@<TRIPOS>MOLECULE
>139.sdf
 47 50 0 0 0
SMALL
GASTEIGER

@<TRIPOS>ATOM
      1 O           2.1363   -5.0287   -1.9052 O.3     1  UNL1       -0.3940
      2 C           3.2170   -4.1419   -2.1745 C.3     1  UNL1        0.0573
      3 C           3.3729   -3.0839   -1.0690 C.3     1  UNL1        0.0614
      4 C           3.4483   -3.7109    0.3430 C.3     1  UNL1        0.0377
      5 N           4.5926   -4.5836    0.5532 N.ar    1  UNL1       -0.3358
      6 C           5.8143   -4.2205    1.0525 C.ar    1  UNL1        0.0240
      7 C           6.5939   -5.3481    0.9456 C.ar    1  UNL1        0.0454
      8 N           5.8574   -6.4010    0.4729 N.ar    1  UNL1       -0.2441
      9 C           4.6492   -5.9204    0.2752 C.ar    1  UNL1        0.0959
     10 C           4.5934   -2.1763   -1.3825 C.3     1  UNL1       -0.0121
     11 C           4.0635   -0.7834   -1.2856 C.ar    1  UNL1       -0.0374
     12 C           2.6764   -0.7271   -1.2094 C.ar    1  UNL1        0.0033
     13 C           2.0130    0.4895   -1.1556 C.ar    1  UNL1       -0.0525
     14 C           2.7688    1.6633   -1.1700 C.ar    1  UNL1       -0.0611
     15 C           4.1669    1.6093   -1.2326 C.ar    1  UNL1       -0.0615
     16 C           4.8227    0.3799   -1.2960 C.ar    1  UNL1       -0.0579
     17 C           2.1790   -2.1070   -1.1236 C.2     1  UNL1        0.0977
     18 N           0.9584   -2.5550   -1.0769 N.2     1  UNL1       -0.0880
     19 O           0.0116   -1.5378   -1.2735 O.2     1  UNL1       -0.3887
     20 C          -1.1861   -1.8207   -0.5496 C.3     1  UNL1        0.1456
     21 C          -2.3250   -1.0461   -1.1582 C.ar    1  UNL1        0.0275
     22 C          -3.1104   -1.6100   -2.1755 C.ar    1  UNL1       -0.0498
     23 C          -4.1730   -0.8921   -2.7289 C.ar    1  UNL1       -0.0259
     24 C          -4.4470    0.3941   -2.2747 C.ar    1  UNL1        0.1261
     25 F          -5.4740    1.0739   -2.8011 F       1  UNL1       -0.2054
     26 C          -3.6718    0.9810   -1.2853 C.ar    1  UNL1        0.0092
     27 C          -2.6142    0.2582   -0.7394 C.ar    1  UNL1        0.1326
     28 F          -1.8680    0.8331    0.2142 F       1  UNL1       -0.2050
     29 H           1.3258   -4.4781   -1.8767 H       1  UNL1        0.2094
     30 H           4.1238   -4.7495   -2.2662 H       1  UNL1        0.0567
     31 H           3.0401   -3.6818   -3.1530 H       1  UNL1        0.0567
     32 H           3.4995   -2.9291    1.1121 H       1  UNL1        0.0502
     33 H           2.5510   -4.3006    0.5700 H       1  UNL1        0.0502
     34 H           6.0380   -3.2204    1.3957 H       1  UNL1        0.0825
     35 H           7.6431   -5.4589    1.1885 H       1  UNL1        0.0845
     36 H           3.7998   -6.4838   -0.0917 H       1  UNL1        0.1029
     37 H           5.4245   -2.3012   -0.6874 H       1  UNL1        0.0324
     38 H           4.9745   -2.3425   -2.3969 H       1  UNL1        0.0324
     39 H           0.9341    0.5602   -1.0918 H       1  UNL1        0.0624
     40 H           2.2666    2.6273   -1.1282 H       1  UNL1        0.0618
     41 H           4.7415    2.5326   -1.2291 H       1  UNL1        0.0618
     42 H           5.9079    0.3420   -1.3467 H       1  UNL1        0.0620
     43 H          -1.4096   -2.8937   -0.5724 H       1  UNL1        0.0776
     44 H          -1.0412   -1.5322    0.4984 H       1  UNL1        0.0776
     45 H          -2.8978   -2.6124   -2.5414 H       1  UNL1        0.0623
     46 H          -4.7898   -1.3270   -3.5102 H       1  UNL1        0.0646
     47 H          -3.8906    1.9859   -0.9427 H       1  UNL1        0.0675
@<TRIPOS>BOND
     1     1    29    1
     2     2     1    1
     3     2    30    1
     4     2    31    1
     5     3     2    1
     6     4     3    1
     7     4    32    1
     8     4    33    1
     9     5     4    1
    10     6     5   ar
    11     6    34    1
    12     7     6   ar
    13     7    35    1
    14     8     7   ar
    15     9     8   ar
    16     9     5   ar
    17     9    36    1
    18    10     3    1
    19    10    37    1
    20    10    38    1
    21    11    10    1
    22    12    11   ar
    23    13    12   ar
    24    13    39    1
    25    14    13   ar
    26    14    40    1
    27    15    14   ar
    28    15    41    1
    29    16    15   ar
    30    16    11   ar
    31    16    42    1
    32    17    12    1
    33    17     3    1
    34    18    17    2
    35    19    18    1
    36    20    19    1
    37    20    43    1
    38    20    44    1
    39    21    20    1
    40    22    21   ar
    41    22    45    1
    42    23    22   ar
    43    23    46    1
    44    24    23   ar
    45    25    24    1
    46    26    24   ar
    47    26    47    1
    48    27    26   ar
    49    27    21   ar
    50    28    27    1
