@<TRIPOS>MOLECULE
>22.sdf
 42 45 0 0 0
SMALL
GASTEIGER

@<TRIPOS>ATOM
      1 C           1.2891   -0.4798   -0.4813 C.3     1  UNL1        0.0018
      2 N           2.5092    0.0864    0.0688 N.pl3   1  UNL1       -0.3184
      3 C           2.9142    1.3716   -0.4797 C.3     1  UNL1        0.0018
      4 C           3.2987   -0.5969    0.9956 C.ar    1  UNL1        0.1642
      5 N           2.9451   -1.8181    1.3551 N.ar    1  UNL1       -0.2353
      6 C           3.7093   -2.5170    2.2678 C.ar    1  UNL1        0.0463
      7 C           4.8291   -2.0490    2.8282 C.ar    1  UNL1        0.0300
      8 N           5.2540   -0.7778    2.4820 N.ar    1  UNL1       -0.2944
      9 C           4.5113   -0.0291    1.6016 C.ar    1  UNL1        0.1793
     10 N           5.0125    1.1782    1.4362 N.ar    1  UNL1       -0.2239
     11 C           6.1429    1.2135    2.2251 C.ar    1  UNL1        0.0979
     12 C           6.3033    0.0109    2.9090 C.ar    1  UNL1        0.0841
     13 C           7.3367   -0.3716    3.9045 C.ar    1  UNL1        0.0384
     14 C           7.9279    0.4715    4.8166 C.ar    1  UNL1        0.0344
     15 N           8.8550   -0.2752    5.4783 N.ar    1  UNL1       -0.2738
     16 C           9.7670    0.1911    6.4933 C.3     1  UNL1        0.0302
     17 N           8.8836   -1.5623    5.0860 N.ar    1  UNL1       -0.1792
     18 C           7.9480   -1.6201    4.1326 C.ar    1  UNL1        0.0586
     19 C           7.0078    2.3882    2.2322 C.ar    1  UNL1        0.0026
     20 C           6.4442    3.6664    2.0819 C.ar    1  UNL1       -0.0498
     21 C           7.2481    4.8100    2.1356 C.ar    1  UNL1       -0.0258
     22 C           8.6145    4.6788    2.3509 C.ar    1  UNL1        0.1234
     23 F           9.3804    5.7733    2.4430 F       1  UNL1       -0.2055
     24 C           9.1998    3.4266    2.4634 C.ar    1  UNL1       -0.0258
     25 C           8.4018    2.2862    2.3622 C.ar    1  UNL1       -0.0498
     26 H           0.4546    0.2140   -0.3309 H       1  UNL1        0.0428
     27 H           1.4060   -0.6503   -1.5568 H       1  UNL1        0.0428
     28 H           1.0023   -1.4311   -0.0235 H       1  UNL1        0.0428
     29 H           2.9067    2.1426    0.2973 H       1  UNL1        0.0428
     30 H           3.9129    1.3048   -0.9241 H       1  UNL1        0.0428
     31 H           2.2347    1.7042   -1.2718 H       1  UNL1        0.0428
     32 H           3.3349   -3.5053    2.5281 H       1  UNL1        0.0845
     33 H           5.3951   -2.6127    3.5534 H       1  UNL1        0.0829
     34 H           7.7813    1.5197    5.0377 H       1  UNL1        0.0833
     35 H           9.6584   -0.4448    7.3744 H       1  UNL1        0.0473
     36 H          10.7830    0.1352    6.0949 H       1  UNL1        0.0473
     37 H           9.5239    1.2260    6.7482 H       1  UNL1        0.0473
     38 H           7.7937   -2.5600    3.6194 H       1  UNL1        0.0854
     39 H           5.3724    3.7754    1.9247 H       1  UNL1        0.0625
     40 H           6.8156    5.7983    2.0191 H       1  UNL1        0.0646
     41 H          10.2686    3.3384    2.6280 H       1  UNL1        0.0646
     42 H           8.8857    1.3140    2.4084 H       1  UNL1        0.0625
@<TRIPOS>BOND
     1     1    26    1
     2     1    27    1
     3     1    28    1
     4     2     1    1
     5     3     2    1
     6     3    29    1
     7     3    30    1
     8     3    31    1
     9     4     2    1
    10     5     4   ar
    11     6     5   ar
    12     6    32    1
    13     7     6   ar
    14     7    33    1
    15     8     7   ar
    16     9     8   ar
    17     9     4   ar
    18    10     9   ar
    19    11    10   ar
    20    12    11   ar
    21    12     8   ar
    22    13    12    1
    23    14    13   ar
    24    14    34    1
    25    15    14   ar
    26    16    15    1
    27    16    35    1
    28    16    36    1
    29    16    37    1
    30    17    15   ar
    31    18    17   ar
    32    18    13   ar
    33    18    38    1
    34    19    11    1
    35    20    19   ar
    36    20    39    1
    37    21    20   ar
    38    21    40    1
    39    22    21   ar
    40    23    22    1
    41    24    22   ar
    42    24    41    1
    43    25    24   ar
    44    25    19   ar
    45    25    42    1
