@<TRIPOS>MOLECULE
>120.sdf
 58 60 0 0 0
SMALL
GASTEIGER

@<TRIPOS>ATOM
      1 C          -7.0943    7.2822   -3.5902 C.3     1  UNL1        0.0790
      2 O          -7.8754    8.0819   -2.7078 O.3     1  UNL1       -0.4914
      3 C          -7.2070    8.6547   -1.6532 C.ar    1  UNL1        0.1618
      4 C          -5.8430    8.5199   -1.3831 C.ar    1  UNL1       -0.0092
      5 C          -5.2554    9.1431   -0.2656 C.ar    1  UNL1       -0.0212
      6 C          -3.8118    9.0277    0.0252 C.2     1  UNL1       -0.0508
      7 C          -3.0605    7.9483   -0.2704 C.2     1  UNL1       -0.0137
      8 C          -1.5984    7.8957    0.0560 C.2     1  UNL1        0.1898
      9 O          -0.9969    8.9421    0.2930 O.2     1  UNL1       -0.2872
     10 C          -0.8708    6.5629    0.0674 C.2     1  UNL1        0.0688
     11 C          -1.5786    5.4225    0.2495 C.2     1  UNL1       -0.0400
     12 C          -1.1298    4.0216    0.3835 C.ar    1  UNL1       -0.0214
     13 C          -1.0548    3.1818   -0.7334 C.ar    1  UNL1       -0.0164
     14 C          -0.8155    1.8161   -0.5600 C.ar    1  UNL1        0.1590
     15 F          -0.8177    1.0083   -1.6310 F       1  UNL1       -0.2025
     16 C          -0.6252    1.2834    0.7100 C.ar    1  UNL1        0.1584
     17 F          -0.4428   -0.0347    0.8724 F       1  UNL1       -0.2025
     18 C          -0.6609    2.1107    1.8251 C.ar    1  UNL1       -0.0230
     19 C          -0.9243    3.4776    1.6632 C.ar    1  UNL1       -0.0517
     20 C           0.6512    6.5373   -0.0062 C.2     1  UNL1        0.1898
     21 O           1.3033    5.6070    0.4457 O.2     1  UNL1       -0.2872
     22 C           1.3395    7.6549   -0.7487 C.2     1  UNL1       -0.0137
     23 C           2.6789    7.6708   -0.8879 C.2     1  UNL1       -0.0508
     24 C           3.4176    8.5287   -1.8430 C.ar    1  UNL1       -0.0212
     25 C           2.9714    9.7975   -2.2585 C.ar    1  UNL1       -0.0092
     26 C           3.6482   10.5004   -3.2649 C.ar    1  UNL1        0.1618
     27 O           3.2849   11.7149   -3.7917 O.3     1  UNL1       -0.4914
     28 C           2.1073   12.3141   -3.2643 C.3     1  UNL1        0.0790
     29 C           4.7975    9.9402   -3.8325 C.ar    1  UNL1        0.1585
     30 O           5.4618   10.5891   -4.8358 O.3     1  UNL1       -0.5033
     31 C           5.2839    8.7125   -3.4088 C.ar    1  UNL1       -0.0160
     32 C           4.5975    8.0129   -2.4131 C.ar    1  UNL1       -0.0509
     33 C          -6.0711    9.9275    0.5668 C.ar    1  UNL1       -0.0509
     34 C          -7.4387   10.0676    0.3040 C.ar    1  UNL1       -0.0160
     35 C          -7.9906    9.4324   -0.7998 C.ar    1  UNL1        0.1585
     36 O          -9.3313    9.5863   -1.0367 O.3     1  UNL1       -0.5033
     37 H          -6.3289    7.8848   -4.0902 H       1  UNL1        0.0660
     38 H          -6.6466    6.4339   -3.0614 H       1  UNL1        0.0660
     39 H          -7.7581    6.8793   -4.3608 H       1  UNL1        0.0660
     40 H          -5.2151    7.9346   -2.0438 H       1  UNL1        0.0661
     41 H          -3.3594    9.8862    0.5298 H       1  UNL1        0.0625
     42 H          -3.4969    7.0888   -0.7617 H       1  UNL1        0.0656
     43 H          -2.6639    5.4547    0.3598 H       1  UNL1        0.0632
     44 H          -1.2174    3.5537   -1.7395 H       1  UNL1        0.0653
     45 H          -0.5076    1.6863    2.8130 H       1  UNL1        0.0647
     46 H          -0.9888    4.1066    2.5484 H       1  UNL1        0.0624
     47 H           0.7214    8.3832   -1.2554 H       1  UNL1        0.0656
     48 H           3.2817    6.9224   -0.3723 H       1  UNL1        0.0625
     49 H           2.0829   10.2156   -1.8010 H       1  UNL1        0.0661
     50 H           1.2261   11.6958   -3.4658 H       1  UNL1        0.0660
     51 H           2.2143   12.5172   -2.1941 H       1  UNL1        0.0660
     52 H           1.9641   13.2726   -3.7724 H       1  UNL1        0.0660
     53 H           4.9454   11.4031   -4.9983 H       1  UNL1        0.2923
     54 H           6.1743    8.2937   -3.8668 H       1  UNL1        0.0655
     55 H           4.9759    7.0369   -2.1140 H       1  UNL1        0.0625
     56 H          -5.6561   10.4308    1.4382 H       1  UNL1        0.0625
     57 H          -8.0687   10.6665    0.9559 H       1  UNL1        0.0655
     58 H          -9.5087    9.0699   -1.8466 H       1  UNL1        0.2923
@<TRIPOS>BOND
     1     1    37    1
     2     1    38    1
     3     1    39    1
     4     2     1    1
     5     3     2    1
     6     4     3   ar
     7     4    40    1
     8     5     4   ar
     9     6     5    1
    10     6    41    1
    11     7     6    2
    12     7    42    1
    13     8     7    1
    14     9     8    2
    15    10     8    1
    16    11    10    2
    17    11    43    1
    18    12    11    1
    19    13    12   ar
    20    13    44    1
    21    14    13   ar
    22    15    14    1
    23    16    14   ar
    24    17    16    1
    25    18    16   ar
    26    18    45    1
    27    19    18   ar
    28    19    12   ar
    29    19    46    1
    30    20    10    1
    31    21    20    2
    32    22    20    1
    33    22    47    1
    34    23    22    2
    35    23    48    1
    36    24    23    1
    37    25    24   ar
    38    25    49    1
    39    26    25   ar
    40    27    26    1
    41    28    27    1
    42    28    50    1
    43    28    51    1
    44    28    52    1
    45    29    26   ar
    46    30    29    1
    47    30    53    1
    48    31    29   ar
    49    31    54    1
    50    32    31   ar
    51    32    24   ar
    52    32    55    1
    53    33     5   ar
    54    33    56    1
    55    34    33   ar
    56    34    57    1
    57    35    34   ar
    58    35     3   ar
    59    36    35    1
    60    36    58    1
