@<TRIPOS>MOLECULE
>144.sdf
 50 54 0 0 0
SMALL
GASTEIGER

@<TRIPOS>ATOM
      1 F           2.1105   -0.1604   -0.0533 F       1  UNL1       -0.2047
      2 C           0.7757   -0.0150   -0.0072 C.ar    1  UNL1        0.1341
      3 C           0.2003    1.2594    0.0195 C.ar    1  UNL1        0.0542
      4 C          -1.2002    1.3553    0.0473 C.ar    1  UNL1       -0.0270
      5 C          -2.0057    0.2113    0.0547 C.ar    1  UNL1        0.0356
      6 N          -3.4147    0.2473    0.0663 N.am    1  UNL1       -0.2693
      7 C          -4.2184    1.3387   -0.1704 C.2     1  UNL1        0.3064
      8 O          -3.8154    2.4556   -0.4820 O.2     1  UNL1       -0.2523
      9 N          -5.5711    1.0982   -0.0472 N.am    1  UNL1       -0.2854
     10 C          -6.2681   -0.1217    0.3095 C.3     1  UNL1        0.0162
     11 C          -7.6653    0.0963   -0.2421 C.3     1  UNL1       -0.0357
     12 C          -7.8928    1.5921   -0.0639 C.3     1  UNL1       -0.0357
     13 C          -6.5023    2.2079   -0.1611 C.3     1  UNL1        0.0162
     14 C          -1.3969   -1.0502    0.0615 C.ar    1  UNL1       -0.0377
     15 C          -0.0076   -1.1639    0.0186 C.ar    1  UNL1       -0.0240
     16 C           1.0079    2.4811    0.0263 C.ar    1  UNL1        0.1439
     17 N           0.5539    3.7207    0.0747 N.ar    1  UNL1       -0.2082
     18 C           1.6563    4.5267    0.0618 C.ar    1  UNL1        0.1783
     19 C           2.8198    3.7751    0.0150 C.ar    1  UNL1        0.0861
     20 N           2.3856    2.4840   -0.0085 N.ar    1  UNL1       -0.3365
     21 C           4.0817    4.3632    0.0041 C.ar    1  UNL1       -0.0255
     22 C           4.1206    5.7667    0.0322 C.ar    1  UNL1        0.0023
     23 C           2.8843    6.4342    0.0762 C.ar    1  UNL1        0.0378
     24 N           1.6482    5.8742    0.0993 N.ar    1  UNL1       -0.2338
     25 C           5.4071    6.4960    0.0227 C.ar    1  UNL1       -0.0164
     26 C           6.5159    6.0117   -0.6975 C.ar    1  UNL1       -0.0540
     27 C           7.7449    6.6772   -0.6813 C.ar    1  UNL1       -0.0612
     28 C           7.8890    7.8539    0.0456 C.ar    1  UNL1       -0.0617
     29 C           6.8055    8.3647    0.7528 C.ar    1  UNL1       -0.0612
     30 C           5.5803    7.6910    0.7440 C.ar    1  UNL1       -0.0540
     31 H          -1.6406    2.3500    0.0782 H       1  UNL1        0.0644
     32 H          -3.8795   -0.6390    0.1470 H       1  UNL1        0.1564
     33 H          -6.2718   -0.1920    1.4027 H       1  UNL1        0.0465
     34 H          -5.7975   -1.0135   -0.1101 H       1  UNL1        0.0465
     35 H          -7.6848   -0.1529   -1.3102 H       1  UNL1        0.0281
     36 H          -8.4186   -0.5129    0.2643 H       1  UNL1        0.0281
     37 H          -8.5727    1.9988   -0.8188 H       1  UNL1        0.0281
     38 H          -8.3272    1.7952    0.9212 H       1  UNL1        0.0281
     39 H          -6.3404    2.7358   -1.1063 H       1  UNL1        0.0465
     40 H          -6.3213    2.9058    0.6646 H       1  UNL1        0.0465
     41 H          -1.9944   -1.9579    0.0782 H       1  UNL1        0.0637
     42 H           0.4690   -2.1389    0.0011 H       1  UNL1        0.0647
     43 H           2.9639    1.6557   -0.0423 H       1  UNL1        0.1674
     44 H           4.9793    3.7565   -0.0115 H       1  UNL1        0.0646
     45 H           2.8468    7.5220    0.0869 H       1  UNL1        0.0836
     46 H           6.4354    5.1047   -1.2933 H       1  UNL1        0.0624
     47 H           8.5865    6.2743   -1.2387 H       1  UNL1        0.0618
     48 H           8.8437    8.3721    0.0612 H       1  UNL1        0.0618
     49 H           6.9117    9.2854    1.3206 H       1  UNL1        0.0618
     50 H           4.7642    8.1103    1.3292 H       1  UNL1        0.0624
@<TRIPOS>BOND
     1     2     1    1
     2     3     2   ar
     3     4     3   ar
     4     4    31    1
     5     5     4   ar
     6     6     5    1
     7     6    32    1
     8     7     6   am
     9     8     7    2
    10     9     7   am
    11    10     9    1
    12    10    33    1
    13    10    34    1
    14    11    10    1
    15    11    35    1
    16    11    36    1
    17    12    11    1
    18    12    37    1
    19    12    38    1
    20    13    12    1
    21    13     9    1
    22    13    39    1
    23    13    40    1
    24    14     5   ar
    25    14    41    1
    26    15    14   ar
    27    15     2   ar
    28    15    42    1
    29    16     3    1
    30    17    16   ar
    31    18    17   ar
    32    19    18   ar
    33    20    19   ar
    34    20    16   ar
    35    20    43    1
    36    21    19   ar
    37    21    44    1
    38    22    21   ar
    39    23    22   ar
    40    23    45    1
    41    24    23   ar
    42    24    18   ar
    43    25    22    1
    44    26    25   ar
    45    26    46    1
    46    27    26   ar
    47    27    47    1
    48    28    27   ar
    49    28    48    1
    50    29    28   ar
    51    29    49    1
    52    30    29   ar
    53    30    25   ar
    54    30    50    1
