@<TRIPOS>MOLECULE
>157.sdf
 66 67 0 0 0
SMALL
GASTEIGER

@<TRIPOS>ATOM
      1 O           1.4867    2.2622    2.1825 O.3     1  UNL1       -0.3950
      2 C           2.0966    1.5108    1.1417 C.3     1  UNL1        0.0442
      3 C           3.0946    2.3888    0.4101 C.3     1  UNL1       -0.0297
      4 C           3.8040    1.6447   -0.7120 C.3     1  UNL1       -0.0510
      5 C           4.8025    2.5855   -1.3765 C.3     1  UNL1       -0.0530
      6 C           5.5481    1.9130   -2.5224 C.3     1  UNL1       -0.0527
      7 C           6.5291    2.9182   -3.1238 C.3     1  UNL1       -0.0458
      8 C           7.2622    2.4487   -4.4043 C.3     1  UNL1        0.0118
      9 C           6.2132    2.0892   -5.4696 C.3     1  UNL1        0.0880
     10 O           6.6619    1.7895   -6.7791 O.3     1  UNL1       -0.2315
     11 O           7.8464    0.9765   -6.6930 O.3     1  UNL1       -0.1965
     12 C           8.9181    1.6770   -7.3409 C.3     1  UNL1        0.2347
     13 C           9.9819    0.5742   -7.6666 C.3     1  UNL1        0.0069
     14 C           9.4714   -0.8783   -7.8516 C.3     1  UNL1       -0.0480
     15 C           9.2978   -1.3360   -9.3068 C.3     1  UNL1       -0.0529
     16 C           7.8304   -1.4263   -9.7431 C.3     1  UNL1       -0.0531
     17 C           7.5871   -0.8538  -11.1453 C.3     1  UNL1       -0.0531
     18 C           6.2700   -0.0600  -11.2445 C.3     1  UNL1       -0.0531
     19 C           6.5072    1.4225  -11.5887 C.3     1  UNL1       -0.0531
     20 C           5.9551    2.3938  -10.5363 C.3     1  UNL1       -0.0531
     21 C           6.9055    3.5662  -10.2177 C.3     1  UNL1       -0.0529
     22 C           7.4613    3.4916   -8.7845 C.3     1  UNL1       -0.0480
     23 C           8.6094    2.4544   -8.6686 C.3     1  UNL1        0.0069
     24 O           9.5700    2.5619   -6.4004 O.3     1  UNL1       -0.1965
     25 O           8.6278    3.6335   -6.1191 O.3     1  UNL1       -0.2315
     26 C           8.2859    3.5431   -4.7481 C.3     1  UNL1        0.0880
     27 H           1.1212    3.0712    1.7848 H       1  UNL1        0.2094
     28 H           2.5942    0.6467    1.5918 H       1  UNL1        0.0557
     29 H           1.3147    1.1493    0.4667 H       1  UNL1        0.0557
     30 H           2.5793    3.2693    0.0052 H       1  UNL1        0.0287
     31 H           3.8298    2.7776    1.1260 H       1  UNL1        0.0287
     32 H           4.3255    0.7648   -0.3187 H       1  UNL1        0.0266
     33 H           3.0734    1.2888   -1.4504 H       1  UNL1        0.0266
     34 H           4.2672    3.4638   -1.7615 H       1  UNL1        0.0265
     35 H           5.5206    2.9468   -0.6327 H       1  UNL1        0.0265
     36 H           6.0938    1.0301   -2.1647 H       1  UNL1        0.0265
     37 H           4.8150    1.5721   -3.2558 H       1  UNL1        0.0265
     38 H           5.9754    3.8375   -3.3671 H       1  UNL1        0.0269
     39 H           7.2655    3.1956   -2.3590 H       1  UNL1        0.0269
     40 H           7.8297    1.5343   -4.1604 H       1  UNL1        0.0347
     41 H           5.5028    2.9194   -5.5697 H       1  UNL1        0.0595
     42 H           5.6448    1.2082   -5.1539 H       1  UNL1        0.0595
     43 H          10.5975    0.8783   -8.5238 H       1  UNL1        0.0319
     44 H          10.6938    0.5410   -6.8294 H       1  UNL1        0.0319
     45 H          10.2360   -1.5279   -7.4050 H       1  UNL1        0.0267
     46 H           8.5691   -1.0869   -7.2669 H       1  UNL1        0.0267
     47 H           9.8918   -0.7070   -9.9748 H       1  UNL1        0.0265
     48 H           9.7237   -2.3452   -9.3873 H       1  UNL1        0.0265
     49 H           7.5380   -2.4876   -9.7585 H       1  UNL1        0.0265
     50 H           7.1758   -0.9514   -9.0054 H       1  UNL1        0.0265
     51 H           8.4332   -0.2383  -11.4626 H       1  UNL1        0.0265
     52 H           7.5456   -1.6862  -11.8591 H       1  UNL1        0.0265
     53 H           5.6686   -0.5033  -12.0487 H       1  UNL1        0.0265
     54 H           5.6648   -0.1721  -10.3381 H       1  UNL1        0.0265
     55 H           7.5666    1.6189  -11.7763 H       1  UNL1        0.0265
     56 H           5.9990    1.6327  -12.5391 H       1  UNL1        0.0265
     57 H           5.0216    2.8141  -10.9338 H       1  UNL1        0.0265
     58 H           5.6745    1.8686   -9.6167 H       1  UNL1        0.0265
     59 H           7.7287    3.6427  -10.9359 H       1  UNL1        0.0265
     60 H           6.3327    4.4982  -10.3017 H       1  UNL1        0.0265
     61 H           7.8371    4.4815   -8.4998 H       1  UNL1        0.0267
     62 H           6.6067    3.3283   -8.1357 H       1  UNL1        0.0267
     63 H           9.5173    3.0325   -8.9034 H       1  UNL1        0.0319
     64 H           8.4946    1.7188   -9.4662 H       1  UNL1        0.0319
     65 H           7.8889    4.5279   -4.4812 H       1  UNL1        0.0595
     66 H           9.1957    3.4157   -4.1447 H       1  UNL1        0.0595
@<TRIPOS>BOND
     1     1    27    1
     2     2     1    1
     3     2    28    1
     4     2    29    1
     5     3     2    1
     6     3    30    1
     7     3    31    1
     8     4     3    1
     9     4    32    1
    10     4    33    1
    11     5     4    1
    12     5    34    1
    13     5    35    1
    14     6     5    1
    15     6    36    1
    16     6    37    1
    17     7     6    1
    18     7    38    1
    19     7    39    1
    20     8     7    1
    21     8    40    1
    22     9     8    1
    23     9    41    1
    24     9    42    1
    25    10     9    1
    26    11    10    1
    27    12    11    1
    28    13    12    1
    29    13    43    1
    30    13    44    1
    31    14    13    1
    32    14    45    1
    33    14    46    1
    34    15    14    1
    35    15    47    1
    36    15    48    1
    37    16    15    1
    38    16    49    1
    39    16    50    1
    40    17    16    1
    41    17    51    1
    42    17    52    1
    43    18    17    1
    44    18    53    1
    45    18    54    1
    46    19    18    1
    47    19    55    1
    48    19    56    1
    49    20    19    1
    50    20    57    1
    51    20    58    1
    52    21    20    1
    53    21    59    1
    54    21    60    1
    55    22    21    1
    56    22    61    1
    57    22    62    1
    58    23    22    1
    59    23    12    1
    60    23    63    1
    61    23    64    1
    62    24    12    1
    63    25    24    1
    64    26    25    1
    65    26     8    1
    66    26    65    1
    67    26    66    1
