@<TRIPOS>MOLECULE
>81.sdf
 81 82 0 0 0
SMALL
GASTEIGER

@<TRIPOS>ATOM
      1 C           8.2120    4.0575   17.3778 C.3     1  UNL1       -0.0653
      2 C           8.3258    4.8809   16.1074 C.3     1  UNL1       -0.0559
      3 C           9.1079    4.1283   15.0352 C.3     1  UNL1       -0.0533
      4 C           9.2281    4.9534   13.7584 C.3     1  UNL1       -0.0531
      5 C          10.0121    4.1930   12.6942 C.3     1  UNL1       -0.0531
      6 C          10.1268    5.0220   11.4210 C.3     1  UNL1       -0.0531
      7 C          10.9014    4.2647   10.3457 C.3     1  UNL1       -0.0531
      8 C          10.9945    5.1080    9.0829 C.3     1  UNL1       -0.0531
      9 C          11.7501    4.3831    7.9775 C.3     1  UNL1       -0.0531
     10 C          11.8104    5.2721    6.7423 C.3     1  UNL1       -0.0530
     11 C          12.5453    4.6000    5.5894 C.3     1  UNL1       -0.0500
     12 C          12.6996    5.5272    4.3806 C.3     1  UNL1       -0.0186
     13 C          13.4471    6.8168    4.7010 C.3     1  UNL1        0.0898
     14 O          14.6925    6.5240    5.3439 O.3     1  UNL1       -0.4883
     15 C          15.2644    7.5355    6.0629 C.ar    1  UNL1        0.1619
     16 C          16.2195    7.2475    7.0449 C.ar    1  UNL1        0.1619
     17 O          16.6880    6.0454    7.5046 O.3     1  UNL1       -0.4914
     18 C          16.5534    4.8750    6.7226 C.3     1  UNL1        0.0790
     19 C          16.8003    8.2912    7.7763 C.ar    1  UNL1       -0.0081
     20 C          16.4030    9.6211    7.6318 C.ar    1  UNL1        0.0008
     21 C          17.0508   10.7199    8.4574 C.3     1  UNL1       -0.0043
     22 N          16.8482   10.7363   10.0005 N.4     1  UNL1        0.2444
     23 C          15.3520   10.7662   10.3268 C.3     1  UNL1       -0.0410
     24 C          17.4218    9.4750   10.6588 C.3     1  UNL1       -0.0410
     25 C          17.5354   11.9463   10.6719 C.3     1  UNL1       -0.0192
     26 C          17.0307   13.3177   10.2299 C.3     1  UNL1       -0.0096
     27 C          18.1218   14.2797   10.7066 C.3     1  UNL1       -0.0478
     28 C          19.3778   13.4391   10.9338 C.3     1  UNL1       -0.0478
     29 C          19.0405   12.0417   10.4215 C.3     1  UNL1       -0.0096
     30 C          15.4657    9.9151    6.6414 C.ar    1  UNL1       -0.0499
     31 C          14.9337    8.8887    5.8545 C.ar    1  UNL1       -0.0158
     32 H           7.6490    4.6056   18.1386 H       1  UNL1        0.0230
     33 H           7.6941    3.1110   17.1852 H       1  UNL1        0.0230
     34 H           9.2032    3.8282   17.7848 H       1  UNL1        0.0230
     35 H           7.3207    5.1192   15.7383 H       1  UNL1        0.0263
     36 H           8.8223    5.8310   16.3347 H       1  UNL1        0.0263
     37 H          10.1106    3.8858   15.4115 H       1  UNL1        0.0265
     38 H           8.6081    3.1771   14.8124 H       1  UNL1        0.0265
     39 H           8.2276    5.1958   13.3778 H       1  UNL1        0.0265
     40 H           9.7291    5.9052   13.9770 H       1  UNL1        0.0265
     41 H          11.0135    3.9528   13.0712 H       1  UNL1        0.0265
     42 H           9.5116    3.2422   12.4737 H       1  UNL1        0.0265
     43 H           9.1256    5.2678   11.0475 H       1  UNL1        0.0265
     44 H          10.6323    5.9702   11.6398 H       1  UNL1        0.0265
     45 H          11.9080    4.0242   10.7098 H       1  UNL1        0.0265
     46 H          10.3990    3.3150   10.1227 H       1  UNL1        0.0265
     47 H           9.9853    5.3582    8.7329 H       1  UNL1        0.0265
     48 H          11.4987    6.0548    9.3112 H       1  UNL1        0.0265
     49 H          12.7679    4.1448    8.3143 H       1  UNL1        0.0265
     50 H          11.2546    3.4355    7.7368 H       1  UNL1        0.0265
     51 H          10.7958    5.5351    6.4193 H       1  UNL1        0.0265
     52 H          12.3083    6.2014    7.0279 H       1  UNL1        0.0265
     53 H          13.5321    4.2655    5.9202 H       1  UNL1        0.0266
     54 H          12.0067    3.6981    5.2809 H       1  UNL1        0.0266
     55 H          13.2445    4.9835    3.5984 H       1  UNL1        0.0298
     56 H          11.7099    5.7733    3.9764 H       1  UNL1        0.0298
     57 H          13.6341    7.3670    3.7662 H       1  UNL1        0.0696
     58 H          12.8064    7.4444    5.3398 H       1  UNL1        0.0696
     59 H          15.5128    4.5681    6.6387 H       1  UNL1        0.0660
     60 H          17.0345    4.9890    5.7476 H       1  UNL1        0.0660
     61 H          17.0752    4.0772    7.2608 H       1  UNL1        0.0660
     62 H          17.6009    8.0184    8.4572 H       1  UNL1        0.0660
     63 H          18.1249   10.6860    8.2639 H       1  UNL1        0.0868
     64 H          16.6726   11.6794    8.0916 H       1  UNL1        0.0868
     65 H          14.8875    9.8470    9.9575 H       1  UNL1        0.0778
     66 H          15.2388   10.8277   11.4120 H       1  UNL1        0.0778
     67 H          14.9031   11.6389    9.8440 H       1  UNL1        0.0778
     68 H          18.4627    9.3562   10.3463 H       1  UNL1        0.0778
     69 H          17.3590    9.5898   11.7460 H       1  UNL1        0.0778
     70 H          16.8210    8.6098   10.3742 H       1  UNL1        0.0778
     71 H          17.3569   11.8393   11.7517 H       1  UNL1        0.0852
     72 H          16.9399   13.4098    9.1444 H       1  UNL1        0.0320
     73 H          16.0611   13.5701   10.6696 H       1  UNL1        0.0320
     74 H          18.2965   15.0665    9.9651 H       1  UNL1        0.0267
     75 H          17.8258   14.7703   11.6410 H       1  UNL1        0.0267
     76 H          20.2523   13.8551   10.4244 H       1  UNL1        0.0267
     77 H          19.6082   13.3974   12.0050 H       1  UNL1        0.0267
     78 H          19.6154   11.2768   10.9509 H       1  UNL1        0.0320
     79 H          19.2970   11.9905    9.3600 H       1  UNL1        0.0320
     80 H          15.1615   10.9399    6.4403 H       1  UNL1        0.0623
     81 H          14.2410    9.1827    5.0613 H       1  UNL1        0.0655
@<TRIPOS>UNITY_ATOM_ATTR
22 1
charge 1
@<TRIPOS>BOND
     1     1    32    1
     2     1    33    1
     3     1    34    1
     4     2     1    1
     5     2    35    1
     6     2    36    1
     7     3     2    1
     8     3    37    1
     9     3    38    1
    10     4     3    1
    11     4    39    1
    12     4    40    1
    13     5     4    1
    14     5    41    1
    15     5    42    1
    16     6     5    1
    17     6    43    1
    18     6    44    1
    19     7     6    1
    20     7    45    1
    21     7    46    1
    22     8     7    1
    23     8    47    1
    24     8    48    1
    25     9     8    1
    26     9    49    1
    27     9    50    1
    28    10     9    1
    29    10    51    1
    30    10    52    1
    31    11    10    1
    32    11    53    1
    33    11    54    1
    34    12    11    1
    35    12    55    1
    36    12    56    1
    37    13    12    1
    38    13    57    1
    39    13    58    1
    40    14    13    1
    41    15    14    1
    42    16    15   ar
    43    17    16    1
    44    18    17    1
    45    18    59    1
    46    18    60    1
    47    18    61    1
    48    19    16   ar
    49    19    62    1
    50    20    19   ar
    51    21    20    1
    52    21    63    1
    53    21    64    1
    54    22    21    1
    55    23    22    1
    56    23    65    1
    57    23    66    1
    58    23    67    1
    59    24    22    1
    60    24    68    1
    61    24    69    1
    62    24    70    1
    63    25    22    1
    64    25    71    1
    65    26    25    1
    66    26    72    1
    67    26    73    1
    68    27    26    1
    69    27    74    1
    70    27    75    1
    71    28    27    1
    72    28    76    1
    73    28    77    1
    74    29    28    1
    75    29    25    1
    76    29    78    1
    77    29    79    1
    78    30    20   ar
    79    30    80    1
    80    31    30   ar
    81    31    15   ar
    82    31    81    1
