@<TRIPOS>MOLECULE
>124.sdf
 46 47 0 0 0
SMALL
GASTEIGER

@<TRIPOS>ATOM
      1 C           8.3512    2.5445    6.1289 C.3     1  UNL1        0.0788
      2 O           7.2478    2.2533    5.2802 O.3     1  UNL1       -0.4951
      3 C           7.0388    0.9403    4.9619 C.ar    1  UNL1        0.1202
      4 C           7.8515   -0.1342    5.3317 C.ar    1  UNL1       -0.0181
      5 C           7.5214   -1.4357    4.9383 C.ar    1  UNL1       -0.0316
      6 C           6.3687   -1.6610    4.1822 C.ar    1  UNL1        0.1087
      7 C           5.5643   -0.5887    3.7848 C.ar    1  UNL1       -0.0316
      8 C           5.9024    0.7064    4.1812 C.ar    1  UNL1       -0.0181
      9 S           6.0388   -3.2826    3.5356 S.O2    1  UNL1        0.0725
     10 O           5.2772   -3.0936    2.3185 O.2     1  UNL1       -0.1500
     11 O           7.2932   -4.0092    3.5302 O.2     1  UNL1       -0.1500
     12 N           4.9789   -3.9801    4.6498 N.pl3   1  UNL1       -0.2126
     13 C           5.4898   -4.7222    5.7627 C.ar    1  UNL1        0.0931
     14 C           5.8329   -4.0253    6.9261 C.ar    1  UNL1        0.0078
     15 C           6.1842   -4.7071    8.1053 C.ar    1  UNL1        0.1432
     16 O           6.2674   -4.0550    9.3081 O.3     1  UNL1       -0.4932
     17 C           6.7605   -2.7229    9.2775 C.3     1  UNL1        0.0789
     18 C           6.2463   -6.1108    8.1161 C.ar    1  UNL1        0.0792
     19 N           6.6402   -6.9032    9.2258 N.am    1  UNL1       -0.2815
     20 C           7.4789   -6.5370   10.2686 C.2     1  UNL1        0.2319
     21 O           8.1301   -5.4944   10.3387 O.2     1  UNL1       -0.2742
     22 C           7.7173   -7.6097   11.3228 C.3     1  UNL1        0.0992
     23 CL          6.4383   -8.8401   11.3761 Cl      1  UNL1       -0.1156
     24 C           5.8491   -6.8011    6.9610 C.ar    1  UNL1        0.0067
     25 C           5.4820   -6.1265    5.7826 C.ar    1  UNL1        0.1443
     26 O           5.0320   -6.9763    4.8036 O.3     1  UNL1       -0.4932
     27 C           5.2686   -6.6082    3.4515 C.3     1  UNL1        0.0789
     28 H           8.3010    1.9741    7.0622 H       1  UNL1        0.0660
     29 H           9.2982    2.3692    5.6082 H       1  UNL1        0.0660
     30 H           8.3010    3.6061    6.3894 H       1  UNL1        0.0660
     31 H           8.7628    0.0096    5.9031 H       1  UNL1        0.0655
     32 H           8.1841   -2.2593    5.1987 H       1  UNL1        0.0638
     33 H           4.7010   -0.7405    3.1402 H       1  UNL1        0.0638
     34 H           5.2890    1.5464    3.8609 H       1  UNL1        0.0655
     35 H           4.1644   -3.4017    4.8486 H       1  UNL1        0.1738
     36 H           5.7415   -2.9455    6.9353 H       1  UNL1        0.0675
     37 H           7.5933   -2.6058    8.5759 H       1  UNL1        0.0660
     38 H           5.9487   -2.0284    9.0402 H       1  UNL1        0.0660
     39 H           7.1273   -2.4790   10.2788 H       1  UNL1        0.0660
     40 H           6.4081   -7.8905    9.1837 H       1  UNL1        0.1549
     41 H           8.6648   -8.1108   11.1051 H       1  UNL1        0.0525
     42 H           7.7709   -7.1398   12.3093 H       1  UNL1        0.0525
     43 H           5.8202   -7.8899    6.9561 H       1  UNL1        0.0674
     44 H           4.5338   -5.8763    3.1069 H       1  UNL1        0.0660
     45 H           6.2967   -6.2721    3.2994 H       1  UNL1        0.0660
     46 H           5.1334   -7.5009    2.8332 H       1  UNL1        0.0660
@<TRIPOS>BOND
     1     1    28    1
     2     1    29    1
     3     1    30    1
     4     2     1    1
     5     3     2    1
     6     4     3   ar
     7     4    31    1
     8     5     4   ar
     9     5    32    1
    10     6     5   ar
    11     7     6   ar
    12     7    33    1
    13     8     7   ar
    14     8     3   ar
    15     8    34    1
    16     9     6    1
    17    10     9    2
    18    11     9    2
    19    12     9    1
    20    12    35    1
    21    13    12    1
    22    14    13   ar
    23    14    36    1
    24    15    14   ar
    25    16    15    1
    26    17    16    1
    27    17    37    1
    28    17    38    1
    29    17    39    1
    30    18    15   ar
    31    19    18    1
    32    19    40    1
    33    20    19   am
    34    21    20    2
    35    22    20    1
    36    22    41    1
    37    22    42    1
    38    23    22    1
    39    24    18   ar
    40    24    43    1
    41    25    24   ar
    42    25    13   ar
    43    26    25    1
    44    27    26    1
    45    27    44    1
    46    27    45    1
    47    27    46    1
