@<TRIPOS>MOLECULE
>52.sdf
 46 49 0 0 0
SMALL
GASTEIGER

@<TRIPOS>ATOM
      1 F           2.0752   -0.1477    0.0156 F       1  UNL1       -0.2055
      2 C           0.7382   -0.0938    0.0135 C.ar    1  UNL1        0.1235
      3 C           0.0523   -0.0467    1.2151 C.ar    1  UNL1       -0.0247
      4 C          -1.3438    0.0114    1.2054 C.ar    1  UNL1       -0.0379
      5 C          -2.0797    0.0213    0.0067 C.ar    1  UNL1        0.0299
      6 C          -1.3448   -0.0226   -1.1896 C.ar    1  UNL1       -0.0379
      7 C           0.0527   -0.0810   -1.1907 C.ar    1  UNL1       -0.0247
      8 N          -3.4568    0.1004    0.0187 N.pl3   1  UNL1       -0.3269
      9 C          -4.2253    0.6989   -1.0779 C.3     1  UNL1        0.0281
     10 C          -5.2641    1.6854   -0.4951 C.3     1  UNL1        0.0319
     11 N          -6.0747    1.0671    0.5633 N.am    1  UNL1       -0.2824
     12 C          -5.2819    0.4234    1.6245 C.3     1  UNL1        0.0319
     13 C          -4.2598   -0.5724    1.0519 C.3     1  UNL1        0.0281
     14 C          -7.4393    1.0545    0.7104 C.2     1  UNL1        0.3076
     15 O          -8.0184    0.5243    1.6440 O.2     1  UNL1       -0.2522
     16 N          -8.1696    1.7111   -0.3225 N.am    1  UNL1       -0.2544
     17 C          -9.5573    1.6403   -0.4194 C.ar    1  UNL1        0.1221
     18 C         -10.4487    0.9371    0.3572 C.ar    1  UNL1        0.0071
     19 C         -11.7389    1.1921   -0.1845 C.ar    1  UNL1        0.1125
     20 N         -11.6422    2.0124   -1.2481 N.ar    1  UNL1       -0.1707
     21 N         -10.3316    2.2656   -1.3583 N.ar    1  UNL1       -0.2633
     22 C         -13.0149    0.6690    0.3194 C.ar    1  UNL1        0.0909
     23 N         -12.9484   -0.1387    1.4096 N.ar    1  UNL1       -0.2534
     24 C         -14.1196   -0.5910    1.9127 C.ar    1  UNL1        0.0283
     25 C         -15.3599   -0.2757    1.3833 C.ar    1  UNL1       -0.0436
     26 C         -15.4060    0.5411    0.2607 C.ar    1  UNL1       -0.0583
     27 C         -14.2182    1.0181   -0.2843 C.ar    1  UNL1       -0.0341
     28 H           0.5997   -0.0463    2.1520 H       1  UNL1        0.0647
     29 H          -1.8461    0.0871    2.1655 H       1  UNL1        0.0637
     30 H          -1.8495   -0.0427   -2.1516 H       1  UNL1        0.0637
     31 H           0.6050   -0.1224   -2.1237 H       1  UNL1        0.0647
     32 H          -3.5981    1.2562   -1.7813 H       1  UNL1        0.0479
     33 H          -4.7379   -0.0941   -1.6357 H       1  UNL1        0.0479
     34 H          -4.7416    2.5310   -0.0276 H       1  UNL1        0.0480
     35 H          -5.8698    2.0849   -1.3073 H       1  UNL1        0.0480
     36 H          -4.7605    1.2259    2.1600 H       1  UNL1        0.0480
     37 H          -5.9172   -0.0943    2.3495 H       1  UNL1        0.0480
     38 H          -4.7836   -1.4201    0.5916 H       1  UNL1        0.0479
     39 H          -3.6645   -0.9896    1.8703 H       1  UNL1        0.0479
     40 H          -7.6908    2.2592   -1.0126 H       1  UNL1        0.1578
     41 H         -10.2520    0.3067    1.2135 H       1  UNL1        0.0674
     42 H         -10.0379    2.8785   -2.1093 H       1  UNL1        0.1903
     43 H         -14.0347   -1.2315    2.7872 H       1  UNL1        0.0830
     44 H         -16.2698   -0.6543    1.8362 H       1  UNL1        0.0633
     45 H         -16.3585    0.8140   -0.1850 H       1  UNL1        0.0619
     46 H         -14.2348    1.6605   -1.1593 H       1  UNL1        0.0639
@<TRIPOS>BOND
     1     2     1    1
     2     3     2   ar
     3     3    28    1
     4     4     3   ar
     5     4    29    1
     6     5     4   ar
     7     6     5   ar
     8     6    30    1
     9     7     6   ar
    10     7     2   ar
    11     7    31    1
    12     8     5    1
    13     9     8    1
    14     9    32    1
    15     9    33    1
    16    10     9    1
    17    10    34    1
    18    10    35    1
    19    11    10    1
    20    12    11    1
    21    12    36    1
    22    12    37    1
    23    13    12    1
    24    13     8    1
    25    13    38    1
    26    13    39    1
    27    14    11   am
    28    15    14    2
    29    16    14   am
    30    16    40    1
    31    17    16    1
    32    18    17   ar
    33    18    41    1
    34    19    18   ar
    35    20    19   ar
    36    21    20   ar
    37    21    17   ar
    38    21    42    1
    39    22    19    1
    40    23    22   ar
    41    24    23   ar
    42    24    43    1
    43    25    24   ar
    44    25    44    1
    45    26    25   ar
    46    26    45    1
    47    27    26   ar
    48    27    22   ar
    49    27    46    1
