@<TRIPOS>MOLECULE
>177.sdf
 26 28 0 0 0
SMALL
GASTEIGER

@<TRIPOS>ATOM
      1 CL         -2.0492    0.0727   -0.1402 Cl      1  UNL1       -0.0835
      2 C          -0.3292    0.0684   -0.1220 C.ar    1  UNL1        0.0410
      3 C           0.3565    1.0621    0.5749 C.ar    1  UNL1       -0.0427
      4 C           1.7578    1.0597    0.5991 C.ar    1  UNL1       -0.0482
      5 C           2.4745    0.0661   -0.0902 C.ar    1  UNL1        0.0372
      6 C           1.7661   -0.9356   -0.7714 C.ar    1  UNL1       -0.0482
      7 C           0.3678   -0.9311   -0.7954 C.ar    1  UNL1       -0.0427
      8 C           3.9579   -0.0253   -0.0561 C.2     1  UNL1        0.2497
      9 O           4.4761   -1.1239   -0.2128 O.2     1  UNL1       -0.2698
     10 N           4.6283    1.1592    0.1755 N.am    1  UNL1       -0.2606
     11 C           5.9602    1.1839    0.5006 C.ar    1  UNL1        0.1672
     12 N           6.8445    0.2191    0.4588 N.ar    1  UNL1       -0.2214
     13 C           8.0212    0.6672    1.0206 C.ar    1  UNL1        0.1168
     14 C           7.9894    1.9774    1.4848 C.ar    1  UNL1        0.1342
     15 S           6.4795    2.6854    1.1274 S.2     1  UNL1       -0.0322
     16 N           8.9716    2.6401    2.1193 N.ar    1  UNL1       -0.2085
     17 C          10.0598    1.8683    2.2613 C.ar    1  UNL1        0.2238
     18 CL         11.3692    2.5809    3.0967 Cl      1  UNL1       -0.0410
     19 N          10.2557    0.6051    1.8401 N.ar    1  UNL1       -0.2237
     20 C           9.2271   -0.0071    1.2045 C.ar    1  UNL1        0.0588
     21 H          -0.1916    1.8263    1.1185 H       1  UNL1        0.0632
     22 H           2.2578    1.8183    1.1905 H       1  UNL1        0.0625
     23 H           2.3048   -1.7329   -1.2855 H       1  UNL1        0.0625
     24 H          -0.1647   -1.7165   -1.3261 H       1  UNL1        0.0632
     25 H           4.1390    2.0357    0.2326 H       1  UNL1        0.1571
     26 H           9.3858   -1.0250    0.8688 H       1  UNL1        0.0853
@<TRIPOS>BOND
     1     2     1    1
     2     3     2   ar
     3     3    21    1
     4     4     3   ar
     5     4    22    1
     6     5     4   ar
     7     6     5   ar
     8     6    23    1
     9     7     6   ar
    10     7     2   ar
    11     7    24    1
    12     8     5    1
    13     9     8    2
    14    10     8   am
    15    10    25    1
    16    11    10    1
    17    12    11   ar
    18    13    12   ar
    19    14    13   ar
    20    15    14   ar
    21    15    11   ar
    22    16    14   ar
    23    17    16   ar
    24    18    17    1
    25    19    17   ar
    26    20    19   ar
    27    20    13   ar
    28    20    26    1
