@<TRIPOS>MOLECULE
>153.sdf
 34 35 0 0 0
SMALL
GASTEIGER

@<TRIPOS>ATOM
      1 C           1.2755    0.3815   -0.5152 C.3     1  UNL1        0.0788
      2 O           2.4210   -0.1107    0.1709 O.3     1  UNL1       -0.4950
      3 C           3.0902   -1.1493   -0.4188 C.ar    1  UNL1        0.1241
      4 C           2.7096   -1.7964   -1.5959 C.ar    1  UNL1       -0.0126
      5 C           3.4885   -2.8355   -2.1236 C.ar    1  UNL1       -0.0181
      6 C           3.1153   -3.5533   -3.3511 C.2     1  UNL1       -0.0538
      7 C           2.4631   -3.0036   -4.3890 C.2     1  UNL1       -0.0540
      8 C           2.1167   -3.7380   -5.6160 C.ar    1  UNL1       -0.0250
      9 C           1.8546   -5.1140   -5.6158 C.ar    1  UNL1       -0.0546
     10 C           1.5147   -5.7770   -6.7962 C.ar    1  UNL1       -0.0612
     11 C           1.4165   -5.0662   -7.9898 C.ar    1  UNL1       -0.0617
     12 C           1.6544   -3.6940   -8.0011 C.ar    1  UNL1       -0.0612
     13 C           1.9995   -3.0329   -6.8215 C.ar    1  UNL1       -0.0546
     14 C           4.6395   -3.2442   -1.4361 C.ar    1  UNL1       -0.0126
     15 C           5.0352   -2.5924   -0.2683 C.ar    1  UNL1        0.1241
     16 O           6.1532   -2.9048    0.4573 O.3     1  UNL1       -0.4950
     17 C           7.2388   -3.4304   -0.3015 C.3     1  UNL1        0.0788
     18 C           4.2482   -1.5608    0.2443 C.ar    1  UNL1        0.0218
     19 H           1.5266    0.7083   -1.5303 H       1  UNL1        0.0660
     20 H           0.4783   -0.3692   -0.5282 H       1  UNL1        0.0660
     21 H           0.9050    1.2548    0.0295 H       1  UNL1        0.0660
     22 H           1.7988   -1.5133   -2.1112 H       1  UNL1        0.0660
     23 H           3.4424   -4.5896   -3.3923 H       1  UNL1        0.0624
     24 H           2.1824   -1.9538   -4.3792 H       1  UNL1        0.0624
     25 H           1.9025   -5.6910   -4.6957 H       1  UNL1        0.0623
     26 H           1.3235   -6.8463   -6.7803 H       1  UNL1        0.0618
     27 H           1.1496   -5.5811   -8.9081 H       1  UNL1        0.0618
     28 H           1.5724   -3.1369   -8.9320 H       1  UNL1        0.0618
     29 H           2.1846   -1.9609   -6.8542 H       1  UNL1        0.0623
     30 H           5.2163   -4.0778   -1.8242 H       1  UNL1        0.0660
     31 H           7.0527   -4.4712   -0.5849 H       1  UNL1        0.0660
     32 H           7.4456   -2.8147   -1.1844 H       1  UNL1        0.0660
     33 H           8.1301   -3.4134    0.3327 H       1  UNL1        0.0660
     34 H           4.5484   -1.0627    1.1628 H       1  UNL1        0.0691
@<TRIPOS>BOND
     1     1    19    1
     2     1    20    1
     3     1    21    1
     4     2     1    1
     5     3     2    1
     6     4     3   ar
     7     4    22    1
     8     5     4   ar
     9     6     5    1
    10     6    23    1
    11     7     6    2
    12     7    24    1
    13     8     7    1
    14     9     8   ar
    15     9    25    1
    16    10     9   ar
    17    10    26    1
    18    11    10   ar
    19    11    27    1
    20    12    11   ar
    21    12    28    1
    22    13    12   ar
    23    13     8   ar
    24    13    29    1
    25    14     5   ar
    26    14    30    1
    27    15    14   ar
    28    16    15    1
    29    17    16    1
    30    17    31    1
    31    17    32    1
    32    17    33    1
    33    18    15   ar
    34    18     3   ar
    35    18    34    1
