@<TRIPOS>MOLECULE
>46.sdf
 59 62 0 0 0
SMALL
GASTEIGER

@<TRIPOS>ATOM
      1 C           4.3802   -9.3483   -2.4467 C.3     1  UNL1        0.0788
      2 O           3.5865   -8.2377   -2.0295 O.3     1  UNL1       -0.4951
      3 C           3.9634   -7.0200   -2.5148 C.ar    1  UNL1        0.1201
      4 C           4.6868   -6.8171   -3.6903 C.ar    1  UNL1       -0.0195
      5 C           5.0248   -5.5243   -4.0973 C.ar    1  UNL1       -0.0501
      6 C           4.6084   -4.4077   -3.3597 C.ar    1  UNL1       -0.0025
      7 C           4.9562   -3.0159   -3.8033 C.3     1  UNL1        0.0001
      8 N           4.5218   -2.6771   -5.2214 N.4     1  UNL1        0.2808
      9 C           4.9462   -1.2946   -5.6451 C.3     1  UNL1        0.0156
     10 C           3.7379   -0.4297   -5.3269 C.3     1  UNL1        0.0156
     11 N           2.5513   -1.3404   -5.5511 N.4     1  UNL1        0.2808
     12 C           1.6851   -0.9634   -6.7511 C.3     1  UNL1        0.0001
     13 C           1.0677    0.4067   -6.6602 C.ar    1  UNL1       -0.0025
     14 C           1.3731    1.3742   -7.6289 C.ar    1  UNL1       -0.0501
     15 C           0.8212    2.6567   -7.5603 C.ar    1  UNL1       -0.0195
     16 C          -0.0593    2.9895   -6.5347 C.ar    1  UNL1        0.1201
     17 O          -0.6489    4.2063   -6.3514 O.3     1  UNL1       -0.4951
     18 C          -0.2951    5.2420   -7.2643 C.3     1  UNL1        0.0788
     19 C          -0.4082    2.0134   -5.5981 C.ar    1  UNL1       -0.0195
     20 C           0.1453    0.7304   -5.6559 C.ar    1  UNL1       -0.0501
     21 C           3.0475   -2.7732   -5.4968 C.3     1  UNL1        0.0256
     22 C           2.6873   -3.6052   -6.7177 C.ar    1  UNL1        0.0495
     23 C           3.4672   -3.6435   -7.8901 C.ar    1  UNL1       -0.0474
     24 C           2.9839   -4.2555   -9.0498 C.ar    1  UNL1       -0.0611
     25 C           1.7168   -4.8305   -9.0639 C.ar    1  UNL1       -0.0617
     26 C           0.9465   -4.8390   -7.9077 C.ar    1  UNL1       -0.0611
     27 C           1.4320   -4.2494   -6.7392 C.ar    1  UNL1       -0.0474
     28 C           3.8936   -4.6196   -2.1728 C.ar    1  UNL1       -0.0501
     29 C           3.5697   -5.9181   -1.7593 C.ar    1  UNL1       -0.0195
     30 H           4.2413   -9.5570   -3.5126 H       1  UNL1        0.0660
     31 H           5.4365   -9.1782   -2.2154 H       1  UNL1        0.0660
     32 H           4.0493  -10.2310   -1.8924 H       1  UNL1        0.0660
     33 H           4.9983   -7.6544   -4.3075 H       1  UNL1        0.0654
     34 H           5.6472   -5.4315   -4.9860 H       1  UNL1        0.0623
     35 H           4.5069   -2.2614   -3.1449 H       1  UNL1        0.0869
     36 H           6.0467   -2.8956   -3.7707 H       1  UNL1        0.0869
     37 H           4.9933   -3.3796   -5.8039 H       1  UNL1        0.2104
     38 H           5.1360   -1.3326   -6.7225 H       1  UNL1        0.0870
     39 H           5.8602   -1.0003   -5.1218 H       1  UNL1        0.0870
     40 H           3.7163   -0.1546   -4.2665 H       1  UNL1        0.0870
     41 H           3.6767    0.4674   -5.9464 H       1  UNL1        0.0870
     42 H           1.9136   -1.2248   -4.7551 H       1  UNL1        0.2104
     43 H           2.3206   -1.0418   -7.6405 H       1  UNL1        0.0869
     44 H           0.8668   -1.6842   -6.8158 H       1  UNL1        0.0869
     45 H           2.0246    1.1499   -8.4725 H       1  UNL1        0.0623
     46 H           1.0838    3.3732   -8.3342 H       1  UNL1        0.0654
     47 H           0.7760    5.4658   -7.2066 H       1  UNL1        0.0660
     48 H          -0.5879    4.9819   -8.2870 H       1  UNL1        0.0660
     49 H          -0.8410    6.1464   -6.9803 H       1  UNL1        0.0660
     50 H          -1.1362    2.2614   -4.8250 H       1  UNL1        0.0654
     51 H          -0.1946    0.0009   -4.9243 H       1  UNL1        0.0623
     52 H           2.5744   -3.2135   -4.6116 H       1  UNL1        0.1531
     53 H           4.4483   -3.1810   -7.9665 H       1  UNL1        0.0624
     54 H           3.5825   -4.2712   -9.9616 H       1  UNL1        0.0618
     55 H           1.3275   -5.2750   -9.9804 H       1  UNL1        0.0618
     56 H          -0.0448   -5.2944   -7.9262 H       1  UNL1        0.0618
     57 H           0.7817   -4.2669   -5.8637 H       1  UNL1        0.0624
     58 H           3.6052   -3.7979   -1.5159 H       1  UNL1        0.0623
     59 H           3.0305   -6.0797   -0.8275 H       1  UNL1        0.0654
@<TRIPOS>UNITY_ATOM_ATTR
8 1
charge 1
11 1
charge 1
@<TRIPOS>BOND
     1     1    30    1
     2     1    31    1
     3     1    32    1
     4     2     1    1
     5     3     2    1
     6     4     3   ar
     7     4    33    1
     8     5     4   ar
     9     5    34    1
    10     6     5   ar
    11     7     6    1
    12     7    35    1
    13     7    36    1
    14     8     7    1
    15     8    37    1
    16     9     8    1
    17     9    38    1
    18     9    39    1
    19    10     9    1
    20    10    40    1
    21    10    41    1
    22    11    10    1
    23    11    42    1
    24    12    11    1
    25    12    43    1
    26    12    44    1
    27    13    12    1
    28    14    13   ar
    29    14    45    1
    30    15    14   ar
    31    15    46    1
    32    16    15   ar
    33    17    16    1
    34    18    17    1
    35    18    47    1
    36    18    48    1
    37    18    49    1
    38    19    16   ar
    39    19    50    1
    40    20    19   ar
    41    20    13   ar
    42    20    51    1
    43    21    11    1
    44    21     8    1
    45    21    52    1
    46    22    21    1
    47    23    22   ar
    48    23    53    1
    49    24    23   ar
    50    24    54    1
    51    25    24   ar
    52    25    55    1
    53    26    25   ar
    54    26    56    1
    55    27    26   ar
    56    27    22   ar
    57    27    57    1
    58    28     6   ar
    59    28    58    1
    60    29    28   ar
    61    29     3   ar
    62    29    59    1
