@<TRIPOS>MOLECULE
>39.sdf
 43 46 0 0 0
SMALL
GASTEIGER

@<TRIPOS>ATOM
      1 C           1.0170    0.0066    0.6518 C.3     1  UNL1        0.0790
      2 O           2.3536   -0.0464    0.1631 O.3     1  UNL1       -0.4913
      3 C           3.0252    1.1440    0.0427 C.ar    1  UNL1        0.1672
      4 C           2.6903    2.2645    0.8193 C.ar    1  UNL1        0.0094
      5 C           3.4239    3.4523    0.7192 C.ar    1  UNL1        0.0742
      6 C           4.5097    3.5233   -0.1576 C.ar    1  UNL1        0.0094
      7 C           4.8960    2.3969   -0.8882 C.ar    1  UNL1        0.1672
      8 O           5.9926    2.4011   -1.7198 O.3     1  UNL1       -0.4913
      9 C           7.0686    3.2375   -1.3021 C.3     1  UNL1        0.0790
     10 C           4.1377    1.2083   -0.8202 C.ar    1  UNL1        0.2036
     11 O           4.6259    0.1677   -1.5756 O.3     1  UNL1       -0.4885
     12 C           3.6800   -0.7485   -2.1084 C.3     1  UNL1        0.0791
     13 N           3.1190    4.5697    1.5363 N.ar    1  UNL1       -0.2193
     14 C           2.1957    4.6676    2.5521 C.ar    1  UNL1        0.0591
     15 C           2.4255    5.9026    3.1170 C.ar    1  UNL1        0.1131
     16 N           3.3962    6.5440    2.3994 N.ar    1  UNL1       -0.1292
     17 N           3.8057    5.7327    1.4365 N.ar    1  UNL1       -0.0602
     18 C           1.8275    6.4419    4.3227 C.ar    1  UNL1        0.0073
     19 C           0.8659    5.7255    5.0548 C.ar    1  UNL1       -0.0069
     20 C           0.4328    6.2586    6.2519 C.ar    1  UNL1        0.1669
     21 C           0.8932    7.4654    6.7227 C.ar    1  UNL1        0.1663
     22 O           0.3611    7.7871    7.9298 O.3     1  UNL1       -0.4526
     23 C          -0.4192    6.6064    8.2049 C.3     1  UNL1        0.2332
     24 O          -0.4512    5.6729    7.1034 O.3     1  UNL1       -0.4526
     25 C           1.8053    8.2164    6.0172 C.ar    1  UNL1       -0.0155
     26 C           2.2757    7.6919    4.8093 C.ar    1  UNL1       -0.0488
     27 H           0.9957    0.2434    1.7203 H       1  UNL1        0.0660
     28 H           0.4125    0.7173    0.0773 H       1  UNL1        0.0660
     29 H           0.5743   -0.9864    0.5307 H       1  UNL1        0.0660
     30 H           1.8707    2.1979    1.5227 H       1  UNL1        0.0677
     31 H           5.0681    4.4507   -0.2528 H       1  UNL1        0.0677
     32 H           6.8784    4.2778   -1.5848 H       1  UNL1        0.0660
     33 H           7.2570    3.1549   -0.2245 H       1  UNL1        0.0660
     34 H           7.9731    2.9101   -1.8223 H       1  UNL1        0.0660
     35 H           3.4482   -1.5300   -1.3790 H       1  UNL1        0.0660
     36 H           2.7728   -0.2504   -2.4675 H       1  UNL1        0.0660
     37 H           4.1454   -1.2430   -2.9671 H       1  UNL1        0.0660
     38 H           1.5348    3.8618    2.8235 H       1  UNL1        0.0853
     39 H           0.4802    4.7673    4.7321 H       1  UNL1        0.0662
     40 H           0.0101    6.0985    9.0772 H       1  UNL1        0.1166
     41 H          -1.4455    6.9076    8.4422 H       1  UNL1        0.1166
     42 H           2.1632    9.1660    6.3952 H       1  UNL1        0.0655
     43 H           3.0225    8.2608    4.2503 H       1  UNL1        0.0625
@<TRIPOS>BOND
     1     1    27    1
     2     1    28    1
     3     1    29    1
     4     2     1    1
     5     3     2    1
     6     4     3   ar
     7     4    30    1
     8     5     4   ar
     9     6     5   ar
    10     6    31    1
    11     7     6   ar
    12     8     7    1
    13     9     8    1
    14     9    32    1
    15     9    33    1
    16     9    34    1
    17    10     7   ar
    18    10     3   ar
    19    11    10    1
    20    12    11    1
    21    12    35    1
    22    12    36    1
    23    12    37    1
    24    13     5    1
    25    14    13   ar
    26    14    38    1
    27    15    14   ar
    28    16    15   ar
    29    17    16   ar
    30    17    13   ar
    31    18    15    1
    32    19    18   ar
    33    19    39    1
    34    20    19   ar
    35    21    20   ar
    36    22    21    1
    37    23    22    1
    38    23    40    1
    39    23    41    1
    40    24    23    1
    41    24    20    1
    42    25    21   ar
    43    25    42    1
    44    26    25   ar
    45    26    18   ar
    46    26    43    1
