@<TRIPOS>MOLECULE
>118.sdf
 63 65 0 0 0
SMALL
GASTEIGER

@<TRIPOS>ATOM
      1 C           1.2491   -0.8526   -2.6995 C.3     1  UNL1       -0.0653
      2 C           2.6954   -0.7235   -2.2535 C.3     1  UNL1       -0.0559
      3 C           3.2327    0.6813   -2.5182 C.3     1  UNL1       -0.0533
      4 C           4.6865    0.8059   -2.0674 C.3     1  UNL1       -0.0531
      5 C           5.2229    2.2088   -2.3352 C.3     1  UNL1       -0.0531
      6 C           6.6767    2.3347   -1.8861 C.3     1  UNL1       -0.0531
      7 C           7.2030    3.7391   -2.1600 C.3     1  UNL1       -0.0530
      8 C           8.6556    3.8872   -1.7153 C.3     1  UNL1       -0.0514
      9 C           9.1485    5.3035   -1.9947 C.3     1  UNL1       -0.0333
     10 C          10.5908    5.4953   -1.5365 C.3     1  UNL1        0.0432
     11 N          11.0542    6.8475   -1.7593 N.ar    1  UNL1       -0.2498
     12 C          10.5462    8.0027   -1.2415 C.ar    1  UNL1        0.0671
     13 C          11.2478    8.9733   -1.9001 C.ar    1  UNL1        0.1608
     14 N          10.9740   10.2882   -1.8505 N.pl3   1  UNL1       -0.3249
     15 C          11.3955   11.2032   -2.9118 C.3     1  UNL1        0.0260
     16 C          11.1082   10.6454   -4.3230 C.3     1  UNL1        0.0247
     17 N          11.4394   11.6090   -5.3841 N.pl3   1  UNL1       -0.3418
     18 C          11.3240   11.1047   -6.7100 C.ar    1  UNL1        0.0379
     19 C          10.3267   10.1796   -7.0480 C.ar    1  UNL1       -0.0221
     20 C          10.1948    9.7691   -8.3546 C.ar    1  UNL1        0.0300
     21 N          10.9538   10.2300   -9.3614 N.ar    1  UNL1       -0.2548
     22 C          11.8731   11.1553   -9.0792 C.ar    1  UNL1        0.0741
     23 C          12.6175   11.6460  -10.1406 C.ar    1  UNL1       -0.0173
     24 C          13.6113   12.5995   -9.9447 C.ar    1  UNL1        0.0430
     25 CL         14.5007   13.1959  -11.2896 Cl      1  UNL1       -0.0835
     26 C          13.8875   13.0704   -8.6746 C.ar    1  UNL1       -0.0426
     27 C          13.1460   12.5996   -7.5895 C.ar    1  UNL1       -0.0494
     28 C          12.1242   11.6335   -7.7707 C.ar    1  UNL1        0.0213
     29 N          12.1870    8.4041   -2.7053 N.ar    1  UNL1       -0.1146
     30 N          12.0607    7.0880   -2.6164 N.ar    1  UNL1       -0.0639
     31 H           0.8809   -1.8647   -2.5041 H       1  UNL1        0.0230
     32 H           0.6088   -0.1467   -2.1609 H       1  UNL1        0.0230
     33 H           1.1510   -0.6552   -3.7717 H       1  UNL1        0.0230
     34 H           2.7660   -0.9541   -1.1843 H       1  UNL1        0.0263
     35 H           3.3053   -1.4619   -2.7863 H       1  UNL1        0.0263
     36 H           3.1583    0.9094   -3.5879 H       1  UNL1        0.0265
     37 H           2.6185    1.4178   -1.9865 H       1  UNL1        0.0265
     38 H           4.7626    0.5812   -0.9969 H       1  UNL1        0.0265
     39 H           5.3029    0.0692   -2.5979 H       1  UNL1        0.0265
     40 H           5.1472    2.4353   -3.4059 H       1  UNL1        0.0265
     41 H           4.6083    2.9469   -1.8052 H       1  UNL1        0.0265
     42 H           6.7539    2.1129   -0.8148 H       1  UNL1        0.0265
     43 H           7.2938    1.5989   -2.4159 H       1  UNL1        0.0265
     44 H           7.1222    3.9606   -3.2314 H       1  UNL1        0.0265
     45 H           6.5806    4.4729   -1.6322 H       1  UNL1        0.0265
     46 H           8.7388    3.6705   -0.6432 H       1  UNL1        0.0266
     47 H           9.2844    3.1613   -2.2443 H       1  UNL1        0.0266
     48 H           9.0673    5.5214   -3.0671 H       1  UNL1        0.0283
     49 H           8.4945    6.0175   -1.4805 H       1  UNL1        0.0283
     50 H          10.6993    5.2976   -0.4639 H       1  UNL1        0.0509
     51 H          11.2585    4.8133   -2.0771 H       1  UNL1        0.0509
     52 H           9.7050    8.0277   -0.5674 H       1  UNL1        0.0862
     53 H          10.7796   10.7235   -0.9556 H       1  UNL1        0.1476
     54 H          10.8299   12.1351   -2.7901 H       1  UNL1        0.0477
     55 H          12.4547   11.4597   -2.7965 H       1  UNL1        0.0477
     56 H          11.7017    9.7455   -4.5067 H       1  UNL1        0.0476
     57 H          10.0464   10.3744   -4.3596 H       1  UNL1        0.0476
     58 H          12.3757   11.9747   -5.2312 H       1  UNL1        0.1461
     59 H           9.6482    9.7639   -6.3127 H       1  UNL1        0.0651
     60 H           9.4446    9.0327   -8.6345 H       1  UNL1        0.0830
     61 H          12.4089   11.2756  -11.1395 H       1  UNL1        0.0653
     62 H          14.6692   13.8130   -8.5126 H       1  UNL1        0.0632
     63 H          13.3853   12.9963   -6.6088 H       1  UNL1        0.0625
@<TRIPOS>BOND
     1     1    31    1
     2     1    32    1
     3     1    33    1
     4     2     1    1
     5     2    34    1
     6     2    35    1
     7     3     2    1
     8     3    36    1
     9     3    37    1
    10     4     3    1
    11     4    38    1
    12     4    39    1
    13     5     4    1
    14     5    40    1
    15     5    41    1
    16     6     5    1
    17     6    42    1
    18     6    43    1
    19     7     6    1
    20     7    44    1
    21     7    45    1
    22     8     7    1
    23     8    46    1
    24     8    47    1
    25     9     8    1
    26     9    48    1
    27     9    49    1
    28    10     9    1
    29    10    50    1
    30    10    51    1
    31    11    10    1
    32    12    11   ar
    33    12    52    1
    34    13    12   ar
    35    14    13    1
    36    14    53    1
    37    15    14    1
    38    15    54    1
    39    15    55    1
    40    16    15    1
    41    16    56    1
    42    16    57    1
    43    17    16    1
    44    17    58    1
    45    18    17    1
    46    19    18   ar
    47    19    59    1
    48    20    19   ar
    49    20    60    1
    50    21    20   ar
    51    22    21   ar
    52    23    22   ar
    53    23    61    1
    54    24    23   ar
    55    25    24    1
    56    26    24   ar
    57    26    62    1
    58    27    26   ar
    59    27    63    1
    60    28    27   ar
    61    28    18   ar
    62    28    22   ar
    63    29    13   ar
    64    30    29   ar
    65    30    11   ar
