@<TRIPOS>MOLECULE
>126.sdf
 40 43 0 0 0
SMALL
GASTEIGER

@<TRIPOS>ATOM
      1 CL         -2.2946   -0.0509   -0.8199 Cl      1  UNL1       -0.0835
      2 C          -0.6091   -0.0307   -0.4958 C.ar    1  UNL1        0.0410
      3 C           0.1557   -1.1670   -0.7344 C.ar    1  UNL1       -0.0426
      4 C           1.5317   -1.1433   -0.4885 C.ar    1  UNL1       -0.0463
      5 C           2.1741    0.0430   -0.0813 C.ar    1  UNL1        0.0567
      6 C           1.3758    1.1665    0.1890 C.ar    1  UNL1       -0.0463
      7 C          -0.0077    1.1274   -0.0110 C.ar    1  UNL1       -0.0426
      8 C           3.6395    0.1189    0.0020 C.ar    1  UNL1        0.2894
      9 N           4.5628   -0.4182   -0.7916 N.ar    1  UNL1       -0.0345
     10 N           5.8721   -0.3966   -0.3379 N.ar    1  UNL1        0.0330
     11 C           5.9596    0.3552    0.7439 C.ar    1  UNL1        0.2354
     12 N           7.0831    0.7183    1.4027 N.pl3   1  UNL1       -0.2890
     13 C           8.2664   -0.0368    1.5018 C.ar    1  UNL1        0.0329
     14 C           9.4784    0.6299    1.7318 C.ar    1  UNL1       -0.0405
     15 C          10.6837   -0.0753    1.7821 C.ar    1  UNL1       -0.0600
     16 C          10.6919   -1.4571    1.6106 C.ar    1  UNL1       -0.0616
     17 C           9.4964   -2.1333    1.3896 C.ar    1  UNL1       -0.0600
     18 C           8.2948   -1.4258    1.3254 C.ar    1  UNL1       -0.0405
     19 S           4.4302    0.9440    1.2864 S.2     1  UNL1        0.0236
     20 C           4.2762   -1.0459   -2.0937 C.ar    1  UNL1        0.2413
     21 C           3.2687   -0.5315   -2.9198 C.ar    1  UNL1        0.0126
     22 C           2.8518   -1.2655   -4.0234 C.ar    1  UNL1       -0.0555
     23 C           3.4825   -2.4686   -4.3343 C.ar    1  UNL1       -0.0613
     24 C           4.5573   -2.9233   -3.5631 C.ar    1  UNL1       -0.0555
     25 C           4.9702   -2.2043   -2.4347 C.ar    1  UNL1        0.0126
     26 H          -0.3108   -2.0703   -1.1245 H       1  UNL1        0.0632
     27 H           2.0850   -2.0634   -0.6727 H       1  UNL1        0.0626
     28 H           1.8082    2.1031    0.5397 H       1  UNL1        0.0626
     29 H          -0.6096    2.0081    0.2006 H       1  UNL1        0.0632
     30 H           7.0387    1.4641    2.0932 H       1  UNL1        0.1542
     31 H           9.5036    1.7105    1.8571 H       1  UNL1        0.0636
     32 H          11.6189    0.4535    1.9513 H       1  UNL1        0.0618
     33 H          11.6295   -2.0068    1.6508 H       1  UNL1        0.0618
     34 H           9.4988   -3.2139    1.2707 H       1  UNL1        0.0618
     35 H           7.3798   -1.9900    1.1752 H       1  UNL1        0.0636
     36 H           2.7750    0.4112   -2.7060 H       1  UNL1        0.0684
     37 H           2.0225   -0.9106   -4.6343 H       1  UNL1        0.0620
     38 H           3.1387   -3.0513   -5.1891 H       1  UNL1        0.0618
     39 H           5.0509   -3.8555   -3.8364 H       1  UNL1        0.0620
     40 H           5.7809   -2.5949   -1.8256 H       1  UNL1        0.0684
@<TRIPOS>UNITY_ATOM_ATTR
9 1
charge 1
@<TRIPOS>BOND
     1     2     1    1
     2     3     2   ar
     3     3    26    1
     4     4     3   ar
     5     4    27    1
     6     5     4   ar
     7     6     5   ar
     8     6    28    1
     9     7     6   ar
    10     7     2   ar
    11     7    29    1
    12     8     5    1
    13     9     8   ar
    14    10     9   ar
    15    11    10   ar
    16    12    11    1
    17    12    30    1
    18    13    12    1
    19    14    13   ar
    20    14    31    1
    21    15    14   ar
    22    15    32    1
    23    16    15   ar
    24    16    33    1
    25    17    16   ar
    26    17    34    1
    27    18    17   ar
    28    18    13   ar
    29    18    35    1
    30    19    11   ar
    31    19     8   ar
    32    20     9    1
    33    21    20   ar
    34    21    36    1
    35    22    21   ar
    36    22    37    1
    37    23    22   ar
    38    23    38    1
    39    24    23   ar
    40    24    39    1
    41    25    24   ar
    42    25    20   ar
    43    25    40    1
