@<TRIPOS>MOLECULE
>103.sdf
 33 35 0 0 0
SMALL
GASTEIGER

@<TRIPOS>ATOM
      1 C           5.7638   -2.3603   -0.5402 C.3     1  UNL1        0.0128
      2 C           5.3326   -3.2123    0.6290 C.2     1  UNL1        0.2186
      3 O           6.2051   -3.8671    1.2002 O.2     1  UNL1       -0.2755
      4 N           3.9828   -3.2490    0.9656 N.am    1  UNL1       -0.2411
      5 C           2.9140   -2.5308    0.2571 C.3     1  UNL1        0.1129
      6 C           2.6442   -2.9190   -1.2019 C.3     1  UNL1        0.0020
      7 C           2.4054   -4.3773   -1.4298 C.ar    1  UNL1       -0.0201
      8 C           3.3577   -5.3596   -1.5852 C.ar    1  UNL1        0.0060
      9 N           2.7150   -6.5537   -1.7768 N.ar    1  UNL1       -0.3604
     10 C           1.3530   -6.3665   -1.7647 C.ar    1  UNL1        0.0467
     11 C           0.3120   -7.2893   -1.9263 C.ar    1  UNL1       -0.0378
     12 C          -0.9976   -6.8039   -1.8667 C.ar    1  UNL1       -0.0598
     13 C          -1.2551   -5.4525   -1.6544 C.ar    1  UNL1       -0.0611
     14 C          -0.2037   -4.5457   -1.4975 C.ar    1  UNL1       -0.0523
     15 C           1.1263   -5.0095   -1.5508 C.ar    1  UNL1        0.0029
     16 C           1.7014   -2.8364    1.1229 C.2     1  UNL1        0.2398
     17 O           0.5690   -2.4117    0.9526 O.2     1  UNL1       -0.2734
     18 N           2.0916   -3.6278    2.1480 N.am    1  UNL1       -0.2658
     19 C           3.4320   -3.8727    2.1159 C.2     1  UNL1        0.1462
     20 S           4.1441   -4.7458    3.3354 S.2     1  UNL1       -0.0179
     21 H           6.6519   -1.7916   -0.2493 H       1  UNL1        0.0323
     22 H           6.0201   -3.0206   -1.3748 H       1  UNL1        0.0323
     23 H           5.0240   -1.6319   -0.8636 H       1  UNL1        0.0323
     24 H           3.1161   -1.4566    0.3399 H       1  UNL1        0.0604
     25 H           1.7781   -2.3494   -1.5636 H       1  UNL1        0.0337
     26 H           3.4694   -2.6150   -1.8526 H       1  UNL1        0.0337
     27 H           4.4378   -5.3227   -1.5750 H       1  UNL1        0.0810
     28 H           3.1695   -7.4454   -1.9146 H       1  UNL1        0.1653
     29 H           0.5070   -8.3424   -2.0944 H       1  UNL1        0.0638
     30 H          -1.8295   -7.4954   -1.9878 H       1  UNL1        0.0618
     31 H          -2.2801   -5.0964   -1.6081 H       1  UNL1        0.0618
     32 H          -0.4225   -3.4937   -1.3302 H       1  UNL1        0.0624
     33 H           1.4715   -3.9666    2.8684 H       1  UNL1        0.1566
@<TRIPOS>BOND
     1     1    21    1
     2     1    22    1
     3     1    23    1
     4     2     1    1
     5     3     2    2
     6     4     2   am
     7     5     4    1
     8     6    25    1
     9     6    26    1
    10     7     6    1
    11     8     7   ar
    12     8    27    1
    13     9     8   ar
    14     9    28    1
    15    10     9   ar
    16    11    10   ar
    17    11    29    1
    18    12    11   ar
    19    12    30    1
    20    13    12   ar
    21    13    31    1
    22    14    13   ar
    23    14    32    1
    24    15    14   ar
    25    15     7   ar
    26    15    10   ar
    27    16     5    1
    28    17    16    2
    29    18    16   am
    30    18    33    1
    31    19    18    1
    32    19     4    1
    33    20    19    2
    34     5     6    1
    35     5    24    1
