@<TRIPOS>MOLECULE
>125.sdf
 50 52 0 0 0
SMALL
GASTEIGER

@<TRIPOS>ATOM
      1 C           2.2085   -1.6758   10.4577 C.3     1  UNL1        0.0788
      2 O           2.0890   -2.9824    9.9086 O.3     1  UNL1       -0.4951
      3 C           2.4337   -3.1577    8.5971 C.ar    1  UNL1        0.1202
      4 C           2.8684   -2.1691    7.7122 C.ar    1  UNL1       -0.0181
      5 C           3.1871   -2.4978    6.3817 C.ar    1  UNL1       -0.0316
      6 C           3.0812   -3.8240    5.9401 C.ar    1  UNL1        0.1087
      7 C           2.6198   -4.8092    6.8170 C.ar    1  UNL1       -0.0316
      8 C           2.3084   -4.4731    8.1387 C.ar    1  UNL1       -0.0181
      9 S           3.3598   -4.2429    4.2193 S.O2    1  UNL1        0.0725
     10 O           2.5517   -5.4040    3.9147 O.2     1  UNL1       -0.1500
     11 O           3.2270   -3.0173    3.4589 O.2     1  UNL1       -0.1500
     12 N           4.9904   -4.6819    4.0955 N.pl3   1  UNL1       -0.2126
     13 C           5.5077   -5.6907    4.9577 C.ar    1  UNL1        0.0937
     14 C           6.0352   -5.2759    6.1883 C.ar    1  UNL1       -0.0183
     15 C           6.4396   -6.2180    7.1373 C.ar    1  UNL1        0.0538
     16 C           6.3055   -7.5752    6.8616 C.ar    1  UNL1       -0.0407
     17 C           5.8137   -7.9893    5.6252 C.ar    1  UNL1       -0.0139
     18 C           5.4513   -7.0594    4.6406 C.ar    1  UNL1        0.1791
     19 O           5.0829   -7.4570    3.3664 O.3     1  UNL1       -0.3404
     20 S           5.7169   -8.8449    2.7525 S.O2    1  UNL1        0.1510
     21 O           7.1644   -8.7038    2.7309 O.2     1  UNL1       -0.1314
     22 O           5.0958   -9.9803    3.4094 O.2     1  UNL1       -0.1314
     23 C           5.2059   -8.9721    1.0615 C.ar    1  UNL1        0.1283
     24 C           5.9967   -9.7270    0.1841 C.ar    1  UNL1       -0.0299
     25 C           5.5941   -9.9010   -1.1417 C.ar    1  UNL1       -0.0180
     26 C           4.4082   -9.3177   -1.5898 C.ar    1  UNL1        0.1202
     27 O           3.9094   -9.3973   -2.8608 O.3     1  UNL1       -0.4951
     28 C           4.6922  -10.1025   -3.8171 C.3     1  UNL1        0.0788
     29 C           3.6219   -8.5772   -0.6960 C.ar    1  UNL1       -0.0180
     30 C           4.0137   -8.3978    0.6335 C.ar    1  UNL1       -0.0299
     31 C           6.9759   -5.7977    8.3956 C.1     1  UNL1        0.0992
     32 N           7.4194   -5.4633    9.4143 N.1     1  UNL1       -0.1909
     33 H           3.2306   -1.2947   10.3679 H       1  UNL1        0.0660
     34 H           1.4879   -0.9910    9.9994 H       1  UNL1        0.0660
     35 H           1.9740   -1.7396   11.5259 H       1  UNL1        0.0660
     36 H           2.9482   -1.1309    8.0224 H       1  UNL1        0.0655
     37 H           3.4879   -1.7043    5.7002 H       1  UNL1        0.0638
     38 H           2.4806   -5.8341    6.4809 H       1  UNL1        0.0638
     39 H           1.9445   -5.2415    8.8181 H       1  UNL1        0.0655
     40 H           5.5914   -3.9024    3.8301 H       1  UNL1        0.1738
     41 H           6.1151   -4.2158    6.4221 H       1  UNL1        0.0650
     42 H           6.5930   -8.3285    7.5936 H       1  UNL1        0.0631
     43 H           5.7368   -9.0613    5.4664 H       1  UNL1        0.0656
     44 H           6.9153  -10.1996    0.5297 H       1  UNL1        0.0639
     45 H           6.2217  -10.5017   -1.7928 H       1  UNL1        0.0655
     46 H           5.6991   -9.6800   -3.9028 H       1  UNL1        0.0660
     47 H           4.7310  -11.1700   -3.5763 H       1  UNL1        0.0660
     48 H           4.2066   -9.9954   -4.7917 H       1  UNL1        0.0660
     49 H           2.6866   -8.1422   -1.0424 H       1  UNL1        0.0655
     50 H           3.3760   -7.8408    1.3150 H       1  UNL1        0.0639
@<TRIPOS>BOND
     1     1    33    1
     2     1    34    1
     3     1    35    1
     4     2     1    1
     5     3     2    1
     6     4     3   ar
     7     4    36    1
     8     5     4   ar
     9     5    37    1
    10     6     5   ar
    11     7     6   ar
    12     7    38    1
    13     8     7   ar
    14     8     3   ar
    15     8    39    1
    16     9     6    1
    17    10     9    2
    18    11     9    2
    19    12     9    1
    20    12    40    1
    21    13    12    1
    22    14    13   ar
    23    14    41    1
    24    15    14   ar
    25    16    15   ar
    26    16    42    1
    27    17    16   ar
    28    17    43    1
    29    18    17   ar
    30    18    13   ar
    31    19    18    1
    32    20    19    1
    33    21    20    2
    34    22    20    2
    35    23    20    1
    36    24    23   ar
    37    24    44    1
    38    25    24   ar
    39    25    45    1
    40    26    25   ar
    41    27    26    1
    42    28    27    1
    43    28    46    1
    44    28    47    1
    45    28    48    1
    46    29    26   ar
    47    29    49    1
    48    30    29   ar
    49    30    23   ar
    50    30    50    1
    51    31    15    1
    52    32    31    3
