@<TRIPOS>MOLECULE
>155.sdf
 28 30 0 0 0
SMALL
GASTEIGER

@<TRIPOS>ATOM
      1 O           3.6855   -1.0414   -0.2319 O.3     1  UNL1       -0.3899
      2 C           2.3874   -0.4362   -0.3037 C.3     1  UNL1        0.0746
      3 C           1.5508   -1.1358   -1.3763 C.3     1  UNL1        0.0355
      4 N           1.9243   -0.7296   -2.7302 N.pl3   1  UNL1       -0.3407
      5 C           1.8687    0.6692   -2.9460 C.ar    1  UNL1        0.0383
      6 C           2.2196    1.5591   -1.9177 C.ar    1  UNL1       -0.0234
      7 C           2.5279    1.0760   -0.5217 C.3     1  UNL1        0.0017
      8 C           2.2858    2.9329   -2.1872 C.ar    1  UNL1       -0.0562
      9 C           2.0462    3.4170   -3.4738 C.ar    1  UNL1       -0.0537
     10 C           1.7255    2.5436   -4.5206 C.ar    1  UNL1       -0.0161
     11 C           1.5152    3.0217   -5.8268 C.ar    1  UNL1       -0.0540
     12 C           1.1840    2.1501   -6.8655 C.ar    1  UNL1       -0.0612
     13 C           1.0354    0.7934   -6.6082 C.ar    1  UNL1       -0.0611
     14 C           1.2484    0.3057   -5.3192 C.ar    1  UNL1       -0.0523
     15 C           1.6205    1.1573   -4.2578 C.ar    1  UNL1        0.0032
     16 H           4.1423   -0.8322   -1.0696 H       1  UNL1        0.2099
     17 H           1.9310   -0.6181    0.6746 H       1  UNL1        0.0612
     18 H           0.4841   -0.9413   -1.2265 H       1  UNL1        0.0487
     19 H           1.6993   -2.2216   -1.3113 H       1  UNL1        0.0487
     20 H           2.8497   -1.0604   -2.9995 H       1  UNL1        0.1462
     21 H           1.8477    1.5906    0.1676 H       1  UNL1        0.0339
     22 H           3.5507    1.3873   -0.2733 H       1  UNL1        0.0339
     23 H           2.5388    3.6352   -1.3952 H       1  UNL1        0.0621
     24 H           2.1160    4.4884   -3.6518 H       1  UNL1        0.0624
     25 H           1.6142    4.0826   -6.0468 H       1  UNL1        0.0624
     26 H           1.0362    2.5316   -7.8722 H       1  UNL1        0.0618
     27 H           0.7529    0.1103   -7.4044 H       1  UNL1        0.0618
     28 H           1.1040   -0.7566   -5.1322 H       1  UNL1        0.0624
@<TRIPOS>BOND
     1     1    16    1
     2     3     2    1
     3     3    18    1
     4     3    19    1
     5     4     3    1
     6     4    20    1
     7     5     4    1
     8     6     5   ar
     9     7     6    1
    10     7     2    1
    11     7    21    1
    12     7    22    1
    13     8     6   ar
    14     8    23    1
    15     9     8   ar
    16     9    24    1
    17    10     9   ar
    18    11    10   ar
    19    11    25    1
    20    12    11   ar
    21    12    26    1
    22    13    12   ar
    23    13    27    1
    24    14    13   ar
    25    14    28    1
    26    15    14   ar
    27    15     5   ar
    28    15    10   ar
    29     2    17    1
    30     2     1    1
