@<TRIPOS>MOLECULE
>26.sdf
 37 39 0 0 0
SMALL
GASTEIGER

@<TRIPOS>ATOM
      1 C           2.5083    0.5097   -0.2692 C.3     1  UNL1       -0.0397
      2 C           1.0585    0.6480    0.0932 C.ar    1  UNL1       -0.0503
      3 C           0.3604   -0.4331    0.6428 C.ar    1  UNL1       -0.0569
      4 C          -0.9771   -0.2885    1.0064 C.ar    1  UNL1       -0.0332
      5 C          -1.6245    0.9402    0.8192 C.ar    1  UNL1        0.1281
      6 C          -0.9438    2.0258    0.2697 C.ar    1  UNL1       -0.0332
      7 C           0.3970    1.8732   -0.0956 C.ar    1  UNL1       -0.0569
      8 S          -3.2947    1.1385    1.4158 S.O2    1  UNL1        0.1510
      9 O          -3.6817   -0.1910    1.8623 O.2     1  UNL1       -0.1314
     10 O          -3.2620    2.2694    2.3220 O.2     1  UNL1       -0.1314
     11 O          -4.1799    1.5350    0.0975 O.3     1  UNL1       -0.3396
     12 C          -5.5571    1.7789    0.1333 C.ar    1  UNL1        0.1916
     13 C          -6.4490    1.1723    0.9560 C.ar    1  UNL1        0.1355
     14 N          -6.2036    0.2486    1.9544 N.pl3   1  UNL1       -0.3508
     15 C          -7.9280    1.4763    0.7910 C.ar    1  UNL1        0.2737
     16 O          -8.7738    0.8597    1.4387 O.2     1  UNL1       -0.2658
     17 N          -8.2925    2.4319   -0.0993 N.ar    1  UNL1       -0.3204
     18 C          -7.3890    3.1325   -0.8897 C.ar    1  UNL1        0.0529
     19 C          -6.0226    2.8150   -0.8319 C.ar    1  UNL1        0.0449
     20 C          -5.1551    3.5557   -1.6479 C.ar    1  UNL1       -0.0490
     21 C          -5.6407    4.5925   -2.4584 C.ar    1  UNL1       -0.0610
     22 C          -7.0008    4.8963   -2.4828 C.ar    1  UNL1       -0.0598
     23 C          -7.8821    4.1536   -1.7095 C.ar    1  UNL1       -0.0376
     24 H           2.6522    0.7164   -1.3338 H       1  UNL1        0.0278
     25 H           3.1117    1.2061    0.3217 H       1  UNL1        0.0278
     26 H           2.8773   -0.5027   -0.0712 H       1  UNL1        0.0278
     27 H           0.8565   -1.3861    0.8130 H       1  UNL1        0.0621
     28 H          -1.4914   -1.1335    1.4603 H       1  UNL1        0.0638
     29 H          -1.4304    2.9908    0.1551 H       1  UNL1        0.0638
     30 H           0.9390    2.7216   -0.5081 H       1  UNL1        0.0621
     31 H          -5.3719   -0.3346    1.8622 H       1  UNL1        0.1426
     32 H          -7.0437   -0.2663    2.2276 H       1  UNL1        0.1426
     33 H          -9.2848    2.6154   -0.1555 H       1  UNL1        0.1690
     34 H          -4.0865    3.3568   -1.6537 H       1  UNL1        0.0625
     35 H          -4.9521    5.1802   -3.0629 H       1  UNL1        0.0618
     36 H          -7.3736    5.7161   -3.0929 H       1  UNL1        0.0618
     37 H          -8.9430    4.3888   -1.7256 H       1  UNL1        0.0638
@<TRIPOS>BOND
     1     1    24    1
     2     1    25    1
     3     1    26    1
     4     2     1    1
     5     3     2   ar
     6     3    27    1
     7     4     3   ar
     8     4    28    1
     9     5     4   ar
    10     6     5   ar
    11     6    29    1
    12     7     6   ar
    13     7     2   ar
    14     7    30    1
    15     8     5    1
    16     9     8    2
    17    10     8    2
    18    11     8    1
    19    12    11    1
    20    13    12   ar
    21    14    13    1
    22    14    31    1
    23    14    32    1
    24    15    13   ar
    25    16    15    2
    26    17    15   ar
    27    17    33    1
    28    18    17   ar
    29    19    18   ar
    30    19    12   ar
    31    20    19   ar
    32    20    34    1
    33    21    20   ar
    34    21    35    1
    35    22    21   ar
    36    22    36    1
    37    23    22   ar
    38    23    18   ar
    39    23    37    1
