@<TRIPOS>MOLECULE
>135.sdf
 31 33 0 0 0
SMALL
GASTEIGER

@<TRIPOS>ATOM
      1 O           1.0076   -0.0145    0.0054 O.3     1  UNL1       -0.3924
      2 C           2.4260    0.0943   -0.0203 C.3     1  UNL1        0.0729
      3 C           2.9148    0.8857   -1.2357 C.3     1  UNL1        0.1109
      4 O           2.5181    0.1841   -2.4297 O.3     1  UNL1       -0.3595
      5 C           1.5973    1.0168   -3.1839 C.3     1  UNL1        0.1330
      6 C           1.1464    2.1467   -2.2505 C.3     1  UNL1        0.1153
      7 O           0.7999    3.3459   -2.9451 O.3     1  UNL1       -0.3862
      8 C           2.3378    2.2998   -1.3127 C.3     1  UNL1        0.1120
      9 O           3.2974    3.2090   -1.8727 O.3     1  UNL1       -0.3865
     10 C           0.4417    0.2058   -3.6964 C.ar    1  UNL1        0.1201
     11 N          -0.3827   -0.4608   -2.8517 N.ar    1  UNL1       -0.1732
     12 N          -1.2935   -1.0386   -3.6735 N.ar    1  UNL1       -0.2701
     13 C          -1.0530   -0.8031   -4.9864 C.ar    1  UNL1        0.1487
     14 C           0.0505   -0.0070   -5.0317 C.ar    1  UNL1        0.1210
     15 N           0.6120    0.4443   -6.2300 N.ar    1  UNL1       -0.2337
     16 C          -0.0276    0.0229   -7.2781 C.ar    1  UNL1        0.0968
     17 N          -1.1485   -0.7837   -7.2903 N.ar    1  UNL1       -0.3117
     18 C          -1.7411   -1.2485   -6.1384 C.ar    1  UNL1        0.2768
     19 O          -2.7380   -1.9641   -6.1410 O.2     1  UNL1       -0.2655
     20 H           0.7406   -0.4645   -0.8271 H       1  UNL1        0.2095
     21 H           2.7439    0.5878    0.9044 H       1  UNL1        0.0584
     22 H           2.8392   -0.9194   -0.0265 H       1  UNL1        0.0584
     23 H           4.0103    0.9051   -1.2249 H       1  UNL1        0.0646
     24 H           2.1622    1.4252   -4.0310 H       1  UNL1        0.0690
     25 H           0.2688    1.8529   -1.6654 H       1  UNL1        0.0650
     26 H           0.9226    4.0813   -2.3209 H       1  UNL1        0.2100
     27 H           2.0494    2.7113   -0.3404 H       1  UNL1        0.0647
     28 H           4.0600    3.2491   -1.2668 H       1  UNL1        0.2100
     29 H          -2.0462   -1.5860   -3.2666 H       1  UNL1        0.1892
     30 H           0.3113    0.3020   -8.2893 H       1  UNL1        0.1028
     31 H          -1.5754   -1.0614   -8.1619 H       1  UNL1        0.1698
@<TRIPOS>BOND
     1     1    20    1
     2     2     1    1
     3     2    21    1
     4     2    22    1
     5     3     2    1
     6     3    23    1
     7     4     3    1
     8     5     4    1
     9     5    24    1
    10     6     5    1
    11     6    25    1
    12     7     6    1
    13     7    26    1
    14     8     6    1
    15     8     3    1
    16     8    27    1
    17     9     8    1
    18     9    28    1
    19    10     5    1
    20    11    10   ar
    21    12    11   ar
    22    12    29    1
    23    13    12   ar
    24    14    13   ar
    25    14    10   ar
    26    15    14   ar
    27    16    15   ar
    28    16    30    1
    29    17    16   ar
    30    17    31    1
    31    18    17   ar
    32    18    13   ar
    33    19    18    2
