@<TRIPOS>MOLECULE
>78.sdf
 32 34 0 0 0
SMALL
GASTEIGER

@<TRIPOS>ATOM
      1 C           1.3102    0.5447    0.5392 C.3     1  UNL1        0.0018
      2 N           2.5224   -0.0561    0.0074 N.pl3   1  UNL1       -0.3184
      3 C           3.0259   -1.2121    0.7332 C.3     1  UNL1        0.0018
      4 C           3.2019    0.4890   -1.0849 C.ar    1  UNL1        0.1643
      5 N           2.7726    1.6321   -1.5881 N.ar    1  UNL1       -0.2353
      6 C           3.4084    2.1912   -2.6756 C.ar    1  UNL1        0.0463
      7 C           4.4564    1.6388   -3.3013 C.ar    1  UNL1        0.0301
      8 N           4.9450    0.4358   -2.8251 N.ar    1  UNL1       -0.2913
      9 C           4.3632   -0.1497   -1.7220 C.ar    1  UNL1        0.1815
     10 N           4.9404   -1.2910   -1.4018 N.ar    1  UNL1       -0.1961
     11 C           5.8943   -1.4547   -2.3571 C.ar    1  UNL1        0.2413
     12 F           6.6623   -2.5087   -2.4193 F       1  UNL1       -0.1815
     13 C           5.9343   -0.4200   -3.2714 C.ar    1  UNL1        0.1283
     14 C           6.7184   -0.2614   -4.4829 C.ar    1  UNL1        0.0971
     15 N           7.0844    1.0007   -4.7709 N.ar    1  UNL1       -0.2130
     16 C           7.7535    1.1842   -5.9110 C.ar    1  UNL1        0.2131
     17 N           8.1519    2.4674   -6.2188 N.pl3   1  UNL1       -0.3275
     18 N           8.0982    0.2124   -6.7587 N.ar    1  UNL1       -0.2231
     19 C           7.7217   -1.0356   -6.4281 C.ar    1  UNL1        0.0333
     20 C           7.0291   -1.3369   -5.2850 C.ar    1  UNL1       -0.0158
     21 H           0.5080   -0.2010    0.5730 H       1  UNL1        0.0428
     22 H           1.4863    0.9103    1.5559 H       1  UNL1        0.0428
     23 H           0.9397    1.3836   -0.0573 H       1  UNL1        0.0428
     24 H           3.0502   -2.0980    0.0910 H       1  UNL1        0.0428
     25 H           4.0292   -1.0120    1.1244 H       1  UNL1        0.0428
     26 H           2.3890   -1.4576    1.5902 H       1  UNL1        0.0428
     27 H           2.9970    3.1338   -3.0278 H       1  UNL1        0.0845
     28 H           4.9279    2.0917   -4.1628 H       1  UNL1        0.0829
     29 H           8.9464    2.4283   -6.8418 H       1  UNL1        0.1452
     30 H           8.2611    3.0048   -5.3699 H       1  UNL1        0.1452
     31 H           7.9977   -1.8085   -7.1391 H       1  UNL1        0.0831
     32 H           6.7325   -2.3509   -5.0536 H       1  UNL1        0.0655
@<TRIPOS>BOND
     1     1    21    1
     2     1    22    1
     3     1    23    1
     4     2     1    1
     5     3     2    1
     6     3    24    1
     7     3    25    1
     8     3    26    1
     9     4     2    1
    10     5     4   ar
    11     6     5   ar
    12     6    27    1
    13     7     6   ar
    14     7    28    1
    15     8     7   ar
    16     9     8   ar
    17     9     4   ar
    18    10     9   ar
    19    11    10   ar
    20    12    11    1
    21    13    11   ar
    22    13     8   ar
    23    14    13    1
    24    15    14   ar
    25    16    15   ar
    26    17    16    1
    27    17    29    1
    28    17    30    1
    29    18    16   ar
    30    19    18   ar
    31    19    31    1
    32    20    19   ar
    33    20    14   ar
    34    20    32    1
