@<TRIPOS>MOLECULE
>41.sdf
 46 49 0 0 0
SMALL
GASTEIGER

@<TRIPOS>ATOM
      1 CL         -1.5968   -0.4021    3.2640 Cl      1  UNL1       -0.0835
      2 C          -0.3676   -0.0384    2.1154 C.ar    1  UNL1        0.0413
      3 C           0.2779    1.1996    2.1596 C.ar    1  UNL1       -0.0369
      4 C           1.2944    1.5016    1.2402 C.ar    1  UNL1       -0.0065
      5 C           2.0234    2.8223    1.3047 C.3     1  UNL1        0.1430
      6 O           1.3092    3.8332    0.5826 O.2     1  UNL1       -0.3888
      7 N           2.0774    5.0135    0.6000 N.2     1  UNL1       -0.0884
      8 C           1.3574    6.0708    0.3801 C.2     1  UNL1        0.0922
      9 C          -0.1402    6.1111    0.0796 C.3     1  UNL1        0.0233
     10 C          -0.2457    6.3334   -1.4451 C.3     1  UNL1        0.0325
     11 N          -1.5909    6.4225   -1.9637 N.ar    1  UNL1       -0.3362
     12 C          -2.1500    7.5129   -2.5701 C.ar    1  UNL1        0.0240
     13 C          -3.4161    7.1070   -2.9217 C.ar    1  UNL1        0.0454
     14 N          -3.6296    5.8034   -2.5458 N.ar    1  UNL1       -0.2441
     15 C          -2.5102    5.4167   -1.9800 C.ar    1  UNL1        0.0959
     16 C          -0.8444    7.2286    0.8950 C.3     1  UNL1       -0.0390
     17 C           0.0880    7.9889    1.8434 C.3     1  UNL1       -0.0250
     18 C           1.2966    8.4231    1.0561 C.ar    1  UNL1       -0.0201
     19 C           1.9907    7.4090    0.3729 C.ar    1  UNL1        0.0043
     20 C           3.0729    7.6773   -0.4626 C.ar    1  UNL1       -0.0524
     21 C           3.4578    9.0019   -0.6481 C.ar    1  UNL1       -0.0598
     22 C           2.7887   10.0273    0.0297 C.ar    1  UNL1       -0.0431
     23 C           1.7261    9.7406    0.8952 C.ar    1  UNL1        0.0448
     24 CL          0.9396   11.0634    1.6728 Cl      1  UNL1       -0.0832
     25 C           1.6310    0.5450    0.2700 C.ar    1  UNL1       -0.0552
     26 C           0.9819   -0.6930    0.2315 C.ar    1  UNL1       -0.0600
     27 C          -0.0186   -0.9867    1.1567 C.ar    1  UNL1       -0.0434
     28 H          -0.0027    1.9249    2.9197 H       1  UNL1        0.0636
     29 H           2.1237    3.1342    2.3519 H       1  UNL1        0.0775
     30 H           3.0342    2.7133    0.8925 H       1  UNL1        0.0775
     31 H          -0.6104    5.1587    0.3442 H       1  UNL1        0.0383
     32 H           0.2678    7.2581   -1.7407 H       1  UNL1        0.0498
     33 H           0.2517    5.5201   -1.9879 H       1  UNL1        0.0498
     34 H          -1.6265    8.4502   -2.7012 H       1  UNL1        0.0825
     35 H          -4.1807    7.6806   -3.4280 H       1  UNL1        0.0845
     36 H          -2.3163    4.4337   -1.5716 H       1  UNL1        0.1029
     37 H          -1.6662    6.7904    1.4744 H       1  UNL1        0.0275
     38 H          -1.3111    7.9595    0.2233 H       1  UNL1        0.0275
     39 H           0.4066    7.3423    2.6717 H       1  UNL1        0.0314
     40 H          -0.4539    8.8249    2.2930 H       1  UNL1        0.0314
     41 H           3.5606    6.8775   -1.0141 H       1  UNL1        0.0624
     42 H           4.2595    9.2440   -1.3424 H       1  UNL1        0.0618
     43 H           3.0869   11.0594   -0.1423 H       1  UNL1        0.0632
     44 H           2.4129    0.7543   -0.4576 H       1  UNL1        0.0621
     45 H           1.2605   -1.4306   -0.5173 H       1  UNL1        0.0618
     46 H          -0.5186   -1.9515    1.1259 H       1  UNL1        0.0632
@<TRIPOS>BOND
     1     2     1    1
     2     3     2   ar
     3     3    28    1
     4     4     3   ar
     5     5     4    1
     6     5    29    1
     7     5    30    1
     8     6     5    1
     9     7     6    1
    10     8     7    2
    11     9     8    1
    12     9    31    1
    13    10     9    1
    14    10    32    1
    15    10    33    1
    16    11    10    1
    17    12    11   ar
    18    12    34    1
    19    13    12   ar
    20    13    35    1
    21    14    13   ar
    22    15    14   ar
    23    15    11   ar
    24    15    36    1
    25    16     9    1
    26    16    37    1
    27    16    38    1
    28    17    16    1
    29    17    39    1
    30    17    40    1
    31    18    17    1
    32    19    18   ar
    33    19     8    1
    34    20    19   ar
    35    20    41    1
    36    21    20   ar
    37    21    42    1
    38    22    21   ar
    39    22    43    1
    40    23    22   ar
    41    23    18   ar
    42    24    23    1
    43    25     4   ar
    44    25    44    1
    45    26    25   ar
    46    26    45    1
    47    27    26   ar
    48    27     2   ar
    49    27    46    1
