@<TRIPOS>MOLECULE
>129.sdf
 42 43 0 0 0
SMALL
GASTEIGER

@<TRIPOS>ATOM
      1 C           1.0197    0.5166   -0.0380 C.3     1  UNL1        0.0790
      2 O           2.3593    0.0559    0.1156 O.3     1  UNL1       -0.4913
      3 C           3.0257   -0.3155   -1.0256 C.ar    1  UNL1        0.1657
      4 C           2.6734    0.1897   -2.2833 C.ar    1  UNL1       -0.0089
      5 C           3.3679   -0.1495   -3.4535 C.ar    1  UNL1       -0.0177
      6 C           2.9775    0.3733   -4.7801 C.2     1  UNL1       -0.0494
      7 C           1.9122    1.1641   -4.9851 C.2     1  UNL1        0.0013
      8 C           1.5735    1.7406   -6.3095 C.2     1  UNL1        0.2459
      9 O           1.9282    1.1807   -7.3436 O.2     1  UNL1       -0.2702
     10 N           0.8106    2.9123   -6.2768 N.am    1  UNL1       -0.2348
     11 C           0.2042    3.3164   -7.5412 C.3     1  UNL1        0.0263
     12 C          -1.1162    4.0545   -7.3397 C.3     1  UNL1       -0.0179
     13 C          -0.9599    5.1204   -6.3057 C.2     1  UNL1       -0.0776
     14 C           0.0004    5.0506   -5.3757 C.2     1  UNL1       -0.0031
     15 C           0.9050    3.8704   -5.2589 C.2     1  UNL1        0.2456
     16 O           1.6261    3.8129   -4.2694 O.2     1  UNL1       -0.2702
     17 C           4.4859   -0.9803   -3.3351 C.ar    1  UNL1       -0.0089
     18 C           4.8901   -1.4619   -2.0799 C.ar    1  UNL1        0.1657
     19 O           5.9797   -2.2872   -1.9163 O.3     1  UNL1       -0.4913
     20 C           7.0666   -2.0542   -2.8050 C.3     1  UNL1        0.0790
     21 C           4.1406   -1.1617   -0.9215 C.ar    1  UNL1        0.2035
     22 O           4.6303   -1.6883    0.2518 O.3     1  UNL1       -0.4885
     23 C           3.6705   -2.0475    1.2377 C.3     1  UNL1        0.0791
     24 H           0.9881    1.5039   -0.5103 H       1  UNL1        0.0660
     25 H           0.4132   -0.2071   -0.5941 H       1  UNL1        0.0660
     26 H           0.5843    0.6231    0.9597 H       1  UNL1        0.0660
     27 H           1.8547    0.8937   -2.3455 H       1  UNL1        0.0661
     28 H           3.6196    0.1124   -5.6201 H       1  UNL1        0.0625
     29 H           1.2348    1.4419   -4.1884 H       1  UNL1        0.0670
     30 H           0.9258    3.9691   -8.0496 H       1  UNL1        0.0473
     31 H           0.0377    2.4465   -8.1862 H       1  UNL1        0.0473
     32 H          -1.4353    4.4969   -8.2900 H       1  UNL1        0.0323
     33 H          -1.8998    3.3603   -7.0164 H       1  UNL1        0.0323
     34 H          -1.6449    5.9625   -6.3201 H       1  UNL1        0.0574
     35 H           0.1208    5.8123   -4.6138 H       1  UNL1        0.0666
     36 H           5.0376   -1.2541   -4.2290 H       1  UNL1        0.0661
     37 H           6.8669   -2.4980   -3.7853 H       1  UNL1        0.0660
     38 H           7.2965   -0.9868   -2.8971 H       1  UNL1        0.0660
     39 H           7.9497   -2.5507   -2.3912 H       1  UNL1        0.0660
     40 H           3.3984   -1.1819    1.8487 H       1  UNL1        0.0660
     41 H           2.7860   -2.5257    0.8021 H       1  UNL1        0.0660
     42 H           4.1399   -2.7725    1.9098 H       1  UNL1        0.0660
@<TRIPOS>BOND
     1     1    24    1
     2     1    25    1
     3     1    26    1
     4     2     1    1
     5     3     2    1
     6     4     3   ar
     7     4    27    1
     8     5     4   ar
     9     6     5    1
    10     6    28    1
    11     7     6    2
    12     7    29    1
    13     8     7    1
    14     9     8    2
    15    10     8   am
    16    11    10    1
    17    11    30    1
    18    11    31    1
    19    12    11    1
    20    12    32    1
    21    12    33    1
    22    13    12    1
    23    13    34    1
    24    14    13    2
    25    14    35    1
    26    15    14    1
    27    15    10   am
    28    16    15    2
    29    17     5   ar
    30    17    36    1
    31    18    17   ar
    32    19    18    1
    33    20    19    1
    34    20    37    1
    35    20    38    1
    36    20    39    1
    37    21    18   ar
    38    21     3   ar
    39    22    21    1
    40    23    22    1
    41    23    40    1
    42    23    41    1
    43    23    42    1
