@<TRIPOS>MOLECULE
>38.sdf
 48 50 0 0 0
SMALL
GASTEIGER

@<TRIPOS>ATOM
      1 C           2.8634   -1.6322    1.1379 C.3     1  UNL1        0.0790
      2 O           3.7789   -0.6999    0.5714 O.3     1  UNL1       -0.4913
      3 C           3.7503    0.5840    1.0542 C.ar    1  UNL1        0.1672
      4 C           3.2911    0.8766    2.3445 C.ar    1  UNL1        0.0094
      5 C           3.3416    2.1817    2.8474 C.ar    1  UNL1        0.0742
      6 C           3.8574    3.2122    2.0574 C.ar    1  UNL1        0.0094
      7 C           4.3672    2.9277    0.7872 C.ar    1  UNL1        0.1672
      8 O           4.9282    3.8951   -0.0144 O.3     1  UNL1       -0.4913
      9 C           5.6199    4.9329    0.6763 C.3     1  UNL1        0.0790
     10 C           4.2872    1.6187    0.2630 C.ar    1  UNL1        0.2036
     11 O           4.8260    1.4605   -0.9929 O.3     1  UNL1       -0.4885
     12 C           4.2267    0.4803   -1.8297 C.3     1  UNL1        0.0791
     13 N           2.9244    2.4561    4.1724 N.ar    1  UNL1       -0.2193
     14 C           2.5028    1.5695    5.1354 C.ar    1  UNL1        0.0591
     15 C           2.3431    2.3337    6.2648 C.ar    1  UNL1        0.1131
     16 N           2.6166    3.6391    5.9682 N.ar    1  UNL1       -0.1292
     17 N           2.9552    3.7079    4.6891 N.ar    1  UNL1       -0.0602
     18 C           2.0127    1.8562    7.5895 C.ar    1  UNL1        0.0073
     19 C           2.4289    2.6050    8.6989 C.ar    1  UNL1       -0.0070
     20 C           2.1423    2.2027   10.0114 C.ar    1  UNL1        0.1621
     21 O           2.5329    2.9280   11.1053 O.3     1  UNL1       -0.4914
     22 C           3.2649    4.1292   10.8907 C.3     1  UNL1        0.0790
     23 C           1.4266    1.0074   10.2088 C.ar    1  UNL1        0.1615
     24 O           1.0425    0.4231   11.3878 O.3     1  UNL1       -0.4915
     25 C           1.3278    1.0909   12.6063 C.3     1  UNL1        0.0790
     26 C           1.0217    0.2530    9.0970 C.ar    1  UNL1       -0.0157
     27 C           1.3058    0.6707    7.7974 C.ar    1  UNL1       -0.0488
     28 H           3.1320   -1.8804    2.1697 H       1  UNL1        0.0660
     29 H           1.8343   -1.2617    1.0756 H       1  UNL1        0.0660
     30 H           2.9251   -2.5576    0.5582 H       1  UNL1        0.0660
     31 H           2.9214    0.0750    2.9695 H       1  UNL1        0.0677
     32 H           3.8759    4.2301    2.4370 H       1  UNL1        0.0677
     33 H           4.9152    5.6852    1.0449 H       1  UNL1        0.0660
     34 H           6.2356    4.5416    1.4947 H       1  UNL1        0.0660
     35 H           6.2894    5.4239   -0.0360 H       1  UNL1        0.0660
     36 H           4.6743   -0.5017   -1.6500 H       1  UNL1        0.0660
     37 H           3.1365    0.4501   -1.7244 H       1  UNL1        0.0660
     38 H           4.4489    0.7479   -2.8673 H       1  UNL1        0.0660
     39 H           2.4181    0.5086    4.9706 H       1  UNL1        0.0853
     40 H           2.9950    3.5125    8.5052 H       1  UNL1        0.0662
     41 H           4.2455    3.9147   10.4529 H       1  UNL1        0.0660
     42 H           2.7008    4.8388   10.2764 H       1  UNL1        0.0660
     43 H           3.4288    4.5983   11.8652 H       1  UNL1        0.0660
     44 H           2.4067    1.1782   12.7678 H       1  UNL1        0.0660
     45 H           0.8208    2.0599   12.6561 H       1  UNL1        0.0660
     46 H           0.9310    0.4757   13.4197 H       1  UNL1        0.0660
     47 H           0.4640   -0.6695    9.2519 H       1  UNL1        0.0655
     48 H           0.9591    0.0654    6.9650 H       1  UNL1        0.0625
@<TRIPOS>BOND
     1     1    28    1
     2     1    29    1
     3     1    30    1
     4     2     1    1
     5     3     2    1
     6     4     3   ar
     7     4    31    1
     8     5     4   ar
     9     6     5   ar
    10     6    32    1
    11     7     6   ar
    12     8     7    1
    13     9     8    1
    14     9    33    1
    15     9    34    1
    16     9    35    1
    17    10     7   ar
    18    10     3   ar
    19    11    10    1
    20    12    11    1
    21    12    36    1
    22    12    37    1
    23    12    38    1
    24    13     5    1
    25    14    13   ar
    26    14    39    1
    27    15    14   ar
    28    16    15   ar
    29    17    16   ar
    30    17    13   ar
    31    18    15    1
    32    19    18   ar
    33    19    40    1
    34    20    19   ar
    35    21    20    1
    36    22    21    1
    37    22    41    1
    38    22    42    1
    39    22    43    1
    40    23    20   ar
    41    24    23    1
    42    25    24    1
    43    25    44    1
    44    25    45    1
    45    25    46    1
    46    26    23   ar
    47    26    47    1
    48    27    26   ar
    49    27    18   ar
    50    27    48    1
