@<TRIPOS>MOLECULE
>132.sdf
 56 60 0 0 0
SMALL
GASTEIGER

@<TRIPOS>ATOM
      1 O           2.4747    2.3103   -3.0687 O.3     1  UNL1       -0.3869
      2 C           2.2009    2.0069   -1.6969 C.3     1  UNL1        0.1052
      3 C           0.6948    1.7809   -1.4900 C.3     1  UNL1        0.1169
      4 O          -0.1739    2.8741   -1.8153 O.3     1  UNL1       -0.4884
      5 C          -1.5219    2.5658   -1.6043 C.ar    1  UNL1        0.1380
      6 C          -1.9947    1.3929   -1.1424 C.ar    1  UNL1        0.0652
      7 C          -3.4290    1.0908   -0.9843 C.ar    1  UNL1        0.3408
      8 O          -3.7853   -0.0089   -0.6263 O.2     1  UNL1       -0.2451
      9 O          -4.3112    2.1179   -1.2779 O.2     1  UNL1       -0.4219
     10 C          -3.8496    3.3694   -1.7277 C.ar    1  UNL1        0.1426
     11 C          -4.8163    4.3396   -1.9854 C.ar    1  UNL1       -0.0185
     12 C          -4.4124    5.5963   -2.4319 C.ar    1  UNL1       -0.0582
     13 C          -3.0573    5.8656   -2.6258 C.ar    1  UNL1       -0.0609
     14 C          -2.0988    4.8831   -2.3676 C.ar    1  UNL1       -0.0476
     15 C          -2.4865    3.6204   -1.9094 C.ar    1  UNL1        0.0592
     16 C           2.9976    0.7264   -1.2889 C.3     1  UNL1        0.0494
     17 N           4.4535    0.8088   -1.4113 N.am    1  UNL1       -0.2629
     18 C           5.2055    1.9621   -1.2148 C.2     1  UNL1        0.2714
     19 O           4.8607    3.1173   -1.0364 O.2     1  UNL1       -0.2679
     20 C           6.6683    1.5306   -1.2512 C.2     1  UNL1        0.1527
     21 N           7.7394    2.2521   -1.1740 N.2     1  UNL1       -0.1743
     22 N           7.6119    3.6102   -1.0757 N.am    1  UNL1       -0.2023
     23 C           8.7684    4.3758   -0.9992 C.2     1  UNL1        0.2634
     24 O           9.9125    3.9238   -1.0083 O.2     1  UNL1       -0.2684
     25 C           8.5979    5.8489   -0.9268 C.ar    1  UNL1        0.0412
     26 C           7.4790    6.4477   -0.3488 C.ar    1  UNL1       -0.0314
     27 C           7.4496    7.8311   -0.2878 C.ar    1  UNL1        0.0283
     28 N           8.4316    8.6272   -0.7630 N.ar    1  UNL1       -0.2632
     29 C           9.5066    8.0187   -1.3083 C.ar    1  UNL1        0.0283
     30 C           9.6395    6.6480   -1.4054 C.ar    1  UNL1       -0.0314
     31 C           6.6570    0.0812   -1.3997 C.ar    1  UNL1        0.0284
     32 C           7.7048   -0.8243   -1.3447 C.ar    1  UNL1       -0.0506
     33 C           7.3830   -2.1782   -1.4370 C.ar    1  UNL1       -0.0610
     34 C           6.0595   -2.5778   -1.6887 C.ar    1  UNL1       -0.0600
     35 C           5.0297   -1.6315   -1.8087 C.ar    1  UNL1       -0.0396
     36 C           5.3255   -0.3003   -1.5653 C.ar    1  UNL1        0.0461
     37 H           2.0989    1.6095   -3.6268 H       1  UNL1        0.2100
     38 H           2.5042    2.8723   -1.0994 H       1  UNL1        0.0643
     39 H           0.3884    0.9404   -2.1272 H       1  UNL1        0.0723
     40 H           0.5432    1.5730   -0.4271 H       1  UNL1        0.0723
     41 H          -1.3641    0.5650   -0.8643 H       1  UNL1        0.0726
     42 H          -5.8702    4.1223   -1.8384 H       1  UNL1        0.0654
     43 H          -5.1519    6.3678   -2.6278 H       1  UNL1        0.0619
     44 H          -2.7399    6.8455   -2.9743 H       1  UNL1        0.0618
     45 H          -1.0478    5.1121   -2.5266 H       1  UNL1        0.0626
     46 H           2.7504    0.4260   -0.2590 H       1  UNL1        0.0495
     47 H           2.6698   -0.0909   -1.9429 H       1  UNL1        0.0495
     48 H           6.6882    4.0278   -1.1838 H       1  UNL1        0.1776
     49 H           6.6692    5.8706    0.0802 H       1  UNL1        0.0640
     50 H           6.6163    8.3569    0.1707 H       1  UNL1        0.0830
     51 H          10.2857    8.6845   -1.6682 H       1  UNL1        0.0830
     52 H          10.5350    6.2081   -1.8345 H       1  UNL1        0.0640
     53 H           8.7280   -0.4951   -1.1910 H       1  UNL1        0.0625
     54 H           8.1578   -2.9338   -1.3150 H       1  UNL1        0.0618
     55 H           5.8271   -3.6402   -1.7568 H       1  UNL1        0.0618
     56 H           4.0328   -1.9690   -2.0678 H       1  UNL1        0.0636
@<TRIPOS>BOND
     1     1    37    1
     2     2     1    1
     3     2    38    1
     4     3     2    1
     5     3    39    1
     6     3    40    1
     7     4     3    1
     8     5     4    1
     9     6     5   ar
    10     6    41    1
    11     7     6   ar
    12     8     7    2
    13     9     7   ar
    14    10     9   ar
    15    11    10   ar
    16    11    42    1
    17    12    11   ar
    18    12    43    1
    19    13    12   ar
    20    13    44    1
    21    14    13   ar
    22    14    45    1
    23    15    14   ar
    24    15     5   ar
    25    15    10   ar
    26    16     2    1
    27    16    46    1
    28    16    47    1
    29    17    16    1
    30    18    17   am
    31    19    18    2
    32    20    18    1
    33    21    20    2
    34    22    21    1
    35    22    48    1
    36    23    22   am
    37    24    23    2
    38    25    23    1
    39    26    25   ar
    40    26    49    1
    41    27    26   ar
    42    27    50    1
    43    28    27   ar
    44    29    28   ar
    45    29    51    1
    46    30    29   ar
    47    30    25   ar
    48    30    52    1
    49    31    20    1
    50    32    31   ar
    51    32    53    1
    52    33    32   ar
    53    33    54    1
    54    34    33   ar
    55    34    55    1
    56    35    34   ar
    57    35    56    1
    58    36    35   ar
    59    36    17    1
    60    36    31   ar
