@<TRIPOS>MOLECULE
>20.sdf
 54 59 0 0 0
SMALL
GASTEIGER

@<TRIPOS>ATOM
      1 O           3.0060   -5.5153    3.6877 O.2     1  UNL1        0.0000
      2 C           3.6445   -5.5073    2.6448 C.2     1  UNL1        0.0000
      3 C           3.5373   -6.6498    1.7040 C.ar    1  UNL1        0.0000
      4 C           2.7074   -7.7446    2.0053 C.ar    1  UNL1        0.0000
      5 C           2.6125   -8.8234    1.1250 C.ar    1  UNL1        0.0000
      6 C           3.3419   -8.8213   -0.0636 C.ar    1  UNL1        0.0000
      7 C           4.1688   -7.7390   -0.3783 C.ar    1  UNL1        0.0000
      8 C           4.2747   -6.6429    0.5002 C.ar    1  UNL1        0.0000
      9 C           5.1551   -5.4873    0.1769 C.2     1  UNL1        0.0000
     10 O           5.7894   -5.4780   -0.8686 O.2     1  UNL1        0.0000
     11 C           5.2717   -4.3474    1.1273 C.ar    1  UNL1        0.0000
     12 C           6.1212   -3.2568    0.8501 C.ar    1  UNL1        0.0000
     13 C           6.2369   -2.1882    1.7570 C.ar    1  UNL1        0.0000
     14 C           7.1822   -1.0475    1.4864 C.3     1  UNL1        0.0000
     15 SE          6.7981   -0.1397   -0.2024 Se      1  UNL1        0.0000
     16 SE          8.4309    1.5762    0.2000 Se      1  UNL1        0.0000
     17 C           9.9265    0.3534   -0.0845 C.3     1  UNL1        0.0000
     18 C          11.2539    1.0614   -0.0752 C.ar    1  UNL1        0.0000
     19 C          12.2035    0.7740    0.9166 C.ar    1  UNL1        0.0000
     20 C          13.4592    1.3832    0.8962 C.ar    1  UNL1        0.0000
     21 C          13.7957    2.2861   -0.1274 C.ar    1  UNL1        0.0000
     22 C          15.1512    2.8957   -0.1862 C.2     1  UNL1        0.0000
     23 O          15.9783    2.6329    0.6759 O.2     1  UNL1        0.0000
     24 C          15.5145    3.7946   -1.3129 C.ar    1  UNL1        0.0000
     25 C          16.8137    4.3271   -1.4220 C.ar    1  UNL1        0.0000
     26 C          17.1479    5.1627   -2.4909 C.ar    1  UNL1        0.0000
     27 C          16.1925    5.4818   -3.4555 C.ar    1  UNL1        0.0000
     28 C          14.9010    4.9625   -3.3598 C.ar    1  UNL1        0.0000
     29 C          14.5517    4.1124   -2.2952 C.ar    1  UNL1        0.0000
     30 C          13.1860    3.5389   -2.2098 C.2     1  UNL1        0.0000
     31 O          12.3512    3.8235   -3.0570 O.2     1  UNL1        0.0000
     32 C          12.8405    2.5942   -1.1185 C.ar    1  UNL1        0.0000
     33 C          11.5721    1.9834   -1.0810 C.ar    1  UNL1        0.0000
     34 C           5.4957   -2.2151    2.9452 C.ar    1  UNL1        0.0000
     35 C           4.6545   -3.2896    3.2294 C.ar    1  UNL1        0.0000
     36 C           4.5341   -4.3617    2.3296 C.ar    1  UNL1        0.0000
     37 H           2.1337   -7.7694    2.9233 H       1  UNL1        0.0000
     38 H           1.9723   -9.6624    1.3668 H       1  UNL1        0.0000
     39 H           3.2663   -9.6615   -0.7418 H       1  UNL1        0.0000
     40 H           4.7255   -7.7616   -1.3065 H       1  UNL1        0.0000
     41 H           6.7015   -3.2394   -0.0650 H       1  UNL1        0.0000
     42 H           7.1391   -0.3010    2.3083 H       1  UNL1        0.0000
     43 H           8.1932   -1.4889    1.4340 H       1  UNL1        0.0000
     44 H           9.9162   -0.3866    0.7339 H       1  UNL1        0.0000
     45 H           9.8124   -0.1663   -1.0598 H       1  UNL1        0.0000
     46 H          11.9781    0.0658    1.7053 H       1  UNL1        0.0000
     47 H          14.1736    1.1311    1.6704 H       1  UNL1        0.0000
     48 H          17.5733    4.0920   -0.6868 H       1  UNL1        0.0000
     49 H          18.1501    5.5631   -2.5732 H       1  UNL1        0.0000
     50 H          16.4527    6.1292   -4.2829 H       1  UNL1        0.0000
     51 H          14.1770    5.2191   -4.1230 H       1  UNL1        0.0000
     52 H          10.8407    2.2016   -1.8483 H       1  UNL1        0.0000
     53 H           5.5789   -1.4103    3.6649 H       1  UNL1        0.0000
     54 H           4.1039   -3.2857    4.1615 H       1  UNL1        0.0000
@<TRIPOS>BOND
     1     2     1    2
     2     3     2    1
     3     4     3   ar
     4     4    37    1
     5     5     4   ar
     6     5    38    1
     7     6     5   ar
     8     6    39    1
     9     7     6   ar
    10     7    40    1
    11     8     7   ar
    12     8     3   ar
    13     9     8    1
    14    10     9    2
    15    11     9    1
    16    12    11   ar
    17    12    41    1
    18    13    12   ar
    19    14    13    1
    20    14    42    1
    21    14    43    1
    22    15    14    1
    23    16    15    1
    24    17    16    1
    25    17    44    1
    26    17    45    1
    27    18    17    1
    28    19    18   ar
    29    19    46    1
    30    20    19   ar
    31    20    47    1
    32    21    20   ar
    33    22    21    1
    34    23    22    2
    35    24    22    1
    36    25    24   ar
    37    25    48    1
    38    26    25   ar
    39    26    49    1
    40    27    26   ar
    41    27    50    1
    42    28    27   ar
    43    28    51    1
    44    29    28   ar
    45    29    24   ar
    46    30    29    1
    47    31    30    2
    48    32    30    1
    49    32    21   ar
    50    33    32   ar
    51    33    18   ar
    52    33    52    1
    53    34    13   ar
    54    34    53    1
    55    35    34   ar
    56    35    54    1
    57    36    35   ar
    58    36     2    1
    59    36    11   ar
