@<TRIPOS>MOLECULE
>137.sdf
 30 31 0 0 0
SMALL
GASTEIGER

@<TRIPOS>ATOM
      1 BR         -1.3051    0.2044    1.8587 Br      1  UNL1       -0.0503
      2 C           0.4975    0.1153    1.2983 C.ar    1  UNL1        0.0179
      3 C           0.9838   -1.0536    0.7147 C.ar    1  UNL1       -0.0471
      4 C           2.3216   -1.1299    0.3091 C.ar    1  UNL1       -0.0499
      5 C           3.1785   -0.0383    0.4973 C.ar    1  UNL1        0.0217
      6 C           2.6677    1.1410    1.0635 C.ar    1  UNL1       -0.0499
      7 C           1.3316    1.2167    1.4694 C.ar    1  UNL1       -0.0471
      8 C           4.6241   -0.0573    0.1314 C.2     1  UNL1        0.1861
      9 O           5.2057    0.9954   -0.1144 O.2     1  UNL1       -0.2873
     10 C           5.3467   -1.3605    0.1292 C.2     1  UNL1       -0.0138
     11 C           6.6878   -1.3706    0.1367 C.2     1  UNL1       -0.0510
     12 C           7.4463   -2.6220    0.1271 C.ar    1  UNL1       -0.0248
     13 C           7.8333   -3.1873   -1.0936 C.ar    1  UNL1       -0.0524
     14 C           8.5517   -4.3830   -1.1262 C.ar    1  UNL1       -0.0309
     15 C           8.8869   -5.0188    0.0773 C.ar    1  UNL1        0.1262
     16 C           8.5064   -4.4615    1.3059 C.ar    1  UNL1       -0.0309
     17 C           7.7847   -3.2634    1.3252 C.ar    1  UNL1       -0.0524
     18 N           9.6400   -6.2782    0.0481 N.pl3   1  UNL1        0.0564
     19 O           9.9507   -6.7390   -1.0596 O.2     1  UNL1       -0.1261
     20 O           9.9172   -6.8095    1.1332 O.2     1  UNL1       -0.1261
     21 H           0.3292   -1.9098    0.5683 H       1  UNL1        0.0629
     22 H           2.6588   -2.0470   -0.1648 H       1  UNL1        0.0625
     23 H           3.3146    2.0063    1.2026 H       1  UNL1        0.0625
     24 H           0.9578    2.1344    1.9164 H       1  UNL1        0.0629
     25 H           4.7848   -2.2849    0.1446 H       1  UNL1        0.0656
     26 H           7.2696   -0.4523    0.1438 H       1  UNL1        0.0625
     27 H           7.5785   -2.6935   -2.0313 H       1  UNL1        0.0624
     28 H           8.8426   -4.8031   -2.0870 H       1  UNL1        0.0640
     29 H           8.7637   -4.9421    2.2478 H       1  UNL1        0.0640
     30 H           7.4946   -2.8320    2.2818 H       1  UNL1        0.0624
@<TRIPOS>BOND
     1     2     1    1
     2     3     2   ar
     3     3    21    1
     4     4     3   ar
     5     4    22    1
     6     5     4   ar
     7     6     5   ar
     8     6    23    1
     9     7     6   ar
    10     7     2   ar
    11     7    24    1
    12     8     5    1
    13     9     8    2
    14    10     8    1
    15    10    25    1
    16    11    10    2
    17    11    26    1
    18    12    11    1
    19    13    12   ar
    20    13    27    1
    21    14    13   ar
    22    14    28    1
    23    15    14   ar
    24    16    15   ar
    25    16    29    1
    26    17    16   ar
    27    17    12   ar
    28    17    30    1
    29    18    15    1
    30    19    18    2
    31    20    18    2
