@<TRIPOS>MOLECULE
>17.sdf
 16 16 0 0 0
SMALL
GASTEIGER

@<TRIPOS>ATOM
      1 C           2.6110    0.6700    0.0713 C.3     1  UNL1        0.0000
      2 C           1.1745    0.2783    0.1467 C.ar    1  UNL1        0.0000
      3 C           0.0782    1.1130    0.1490 C.ar    1  UNL1        0.0000
      4 SE         -0.0121    3.0339    0.0093 Se      1  UNL1        0.0000
      5 C           0.8902    3.6474    1.6376 C.1     1  UNL1        0.0000
      6 N           1.4706    4.0421    2.6851 N.1     1  UNL1        0.0000
      7 C          -0.9993    0.2550    0.1534 C.ar    1  UNL1        0.0000
      8 C          -2.4434    0.6376    0.0828 C.3     1  UNL1        0.0000
      9 N          -0.5557   -1.0157    0.1817 N.ar    1  UNL1        0.0000
     10 O           0.7467   -0.9668    0.1774 O.2     1  UNL1        0.0000
     11 H           2.7931    1.2530   -0.8565 H       1  UNL1        0.0000
     12 H           2.8792    1.2841    0.9547 H       1  UNL1        0.0000
     13 H           3.2469   -0.2402    0.0513 H       1  UNL1        0.0000
     14 H          -2.7091    1.2555    0.9643 H       1  UNL1        0.0000
     15 H          -2.6298    1.2207   -0.8445 H       1  UNL1        0.0000
     16 H          -3.0819   -0.2707    0.0647 H       1  UNL1        0.0000
@<TRIPOS>BOND
     1     1    11    1
     2     1    12    1
     3     1    13    1
     4     2     1    1
     5     3     2   ar
     6     4     3    1
     7     5     4    1
     8     6     5    3
     9     7     3   ar
    10     8     7    1
    11     8    14    1
    12     8    15    1
    13     8    16    1
    14     9     7   ar
    15    10     9   ar
    16    10     2   ar
