@<TRIPOS>MOLECULE
>15.sdf
 37 39 0 0 0
SMALL
GASTEIGER

@<TRIPOS>ATOM
      1 C           1.0992   -0.9161   -0.6768 C.3     1  UNL1        0.0125
      2 C           2.5368   -1.1434   -1.0563 C.2     1  UNL1        0.2141
      3 O           2.9429   -2.2682   -1.3380 O.2     1  UNL1       -0.2758
      4 N           3.3125    0.0047   -1.0519 N.am    1  UNL1       -0.2857
      5 C           4.7162   -0.0526   -1.1333 C.ar    1  UNL1        0.0354
      6 C           5.4158    0.7775   -2.0210 C.ar    1  UNL1       -0.0145
      7 C           6.8025    0.7210   -2.1287 C.ar    1  UNL1        0.0734
      8 N           7.4581    1.4553   -3.0624 N.ar    1  UNL1       -0.2466
      9 C           8.8000    1.3412   -3.1771 C.ar    1  UNL1        0.0734
     10 C           9.5498    0.5170   -2.3252 C.ar    1  UNL1        0.0011
     11 C          10.9372    0.4029   -2.4662 C.ar    1  UNL1       -0.0508
     12 C          11.6032    1.1044   -3.4702 C.ar    1  UNL1       -0.0398
     13 C          10.8936    1.9386   -4.3286 C.ar    1  UNL1        0.0354
     14 N          11.5051    2.6847   -5.3654 N.am    1  UNL1       -0.2857
     15 C          12.8532    2.7012   -5.6929 C.2     1  UNL1        0.2141
     16 C          13.1868    3.6257   -6.8372 C.3     1  UNL1        0.0125
     17 O          13.7508    2.0679   -5.1456 O.2     1  UNL1       -0.2758
     18 C           9.5002    2.0482   -4.1681 C.ar    1  UNL1       -0.0145
     19 C           8.8808   -0.2073   -1.3403 C.ar    1  UNL1       -0.0434
     20 C           7.4904   -0.1375   -1.2489 C.ar    1  UNL1        0.0011
     21 C           6.8057   -0.9254   -0.3191 C.ar    1  UNL1       -0.0508
     22 C           5.4173   -0.9072   -0.2849 C.ar    1  UNL1       -0.0398
     23 H           0.4491   -1.1803   -1.5149 H       1  UNL1        0.0323
     24 H           0.8708   -1.5585    0.1797 H       1  UNL1        0.0323
     25 H           0.9123    0.1206   -0.3880 H       1  UNL1        0.0323
     26 H           2.8579    0.8745   -1.2989 H       1  UNL1        0.1548
     27 H           4.8695    1.4257   -2.7036 H       1  UNL1        0.0657
     28 H          11.5138   -0.2413   -1.8088 H       1  UNL1        0.0625
     29 H          12.6732    0.9654   -3.5485 H       1  UNL1        0.0636
     30 H          10.8874    3.2609   -5.9217 H       1  UNL1        0.1548
     31 H          13.7485    4.4797   -6.4489 H       1  UNL1        0.0323
     32 H          13.8068    3.0817   -7.5567 H       1  UNL1        0.0323
     33 H          12.2960    3.9864   -7.3539 H       1  UNL1        0.0323
     34 H           8.9179    2.6886   -4.8279 H       1  UNL1        0.0657
     35 H           9.4375   -0.8508   -0.6629 H       1  UNL1        0.0631
     36 H           7.3416   -1.5722    0.3720 H       1  UNL1        0.0625
     37 H           4.8933   -1.5365    0.4296 H       1  UNL1        0.0636
@<TRIPOS>BOND
     1     1    23    1
     2     1    24    1
     3     1    25    1
     4     2     1    1
     5     3     2    2
     6     4     2   am
     7     4    26    1
     8     5     4    1
     9     6     5   ar
    10     6    27    1
    11     7     6   ar
    12     8     7   ar
    13     9     8   ar
    14    10     9   ar
    15    11    10   ar
    16    11    28    1
    17    12    11   ar
    18    12    29    1
    19    13    12   ar
    20    14    13    1
    21    14    30    1
    22    15    14   am
    23    16    15    1
    24    16    31    1
    25    16    32    1
    26    16    33    1
    27    17    15    2
    28    18    13   ar
    29    18     9   ar
    30    18    34    1
    31    19    10   ar
    32    19    35    1
    33    20    19   ar
    34    20     7   ar
    35    21    20   ar
    36    21    36    1
    37    22    21   ar
    38    22     5   ar
    39    22    37    1
