@<TRIPOS>MOLECULE
>36.sdf
 46 51 0 0 0
SMALL
GASTEIGER

@<TRIPOS>ATOM
      1 C           1.3529   -0.0720   -0.0640 C.ar    1  UNL1       -0.0617
      2 C           0.5207   -1.1049    0.3485 C.ar    1  UNL1       -0.0611
      3 C          -0.8630   -0.9599    0.2458 C.ar    1  UNL1       -0.0524
      4 C          -1.4395    0.2352   -0.2189 C.ar    1  UNL1        0.0043
      5 C          -0.5916    1.2532   -0.6634 C.ar    1  UNL1       -0.0524
      6 C           0.7991    1.0982   -0.5875 C.ar    1  UNL1       -0.0611
      7 C          -2.8820    0.4284   -0.2018 C.ar    1  UNL1        0.1203
      8 C          -3.7511   -0.0652    0.7492 C.ar    1  UNL1        0.0970
      9 C          -3.6529   -0.8486    1.9177 C.ar    1  UNL1       -0.0332
     10 C          -4.7638   -1.2175    2.5626 C.ar    1  UNL1       -0.0469
     11 C          -6.0860   -0.7080    2.1667 C.ar    1  UNL1        0.0454
     12 C          -6.2230    0.0419    0.9947 C.ar    1  UNL1        0.1678
     13 N          -7.4068    0.4812    0.5014 N.ar    1  UNL1       -0.2062
     14 C          -8.5027    0.1588    1.2181 C.ar    1  UNL1        0.1810
     15 N          -8.4520   -0.5037    2.3972 N.ar    1  UNL1       -0.2252
     16 C          -7.2595   -0.9146    2.8814 C.ar    1  UNL1        0.0855
     17 C          -7.3482   -1.5749    4.2031 C.ar    1  UNL1        0.0192
     18 C          -8.4312   -2.3982    4.5428 C.ar    1  UNL1       -0.0497
     19 C          -8.4795   -3.0390    5.7819 C.ar    1  UNL1       -0.0430
     20 C          -7.4307   -2.8491    6.6630 C.ar    1  UNL1        0.0276
     21 N          -6.3845   -2.0416    6.4068 N.ar    1  UNL1       -0.2626
     22 C          -6.3929   -1.4057    5.2094 C.ar    1  UNL1        0.0367
     23 C          -9.8513    0.5055    0.6916 C.ar    1  UNL1        0.1079
     24 C         -10.0252    1.1986   -0.5102 C.ar    1  UNL1       -0.0326
     25 C         -11.3182    1.4595   -0.9728 C.ar    1  UNL1       -0.0582
     26 C         -12.4097    1.0296   -0.2308 C.ar    1  UNL1       -0.0436
     27 C         -12.1651    0.3562    0.9501 C.ar    1  UNL1        0.0284
     28 N         -10.9272    0.0866    1.4187 N.ar    1  UNL1       -0.2518
     29 N          -5.0022    0.3496    0.3256 N.ar    1  UNL1       -0.1935
     30 N          -4.8890    1.0959   -0.7969 N.ar    1  UNL1       -0.0582
     31 N          -3.5954    1.1621   -1.1168 N.ar    1  UNL1       -0.1285
     32 H           2.4316   -0.1804    0.0135 H       1  UNL1        0.0618
     33 H           0.9421   -2.0224    0.7516 H       1  UNL1        0.0618
     34 H          -1.4823   -1.8029    0.5380 H       1  UNL1        0.0624
     35 H          -1.0003    2.1815   -1.0565 H       1  UNL1        0.0624
     36 H           1.4523    1.8976   -0.9284 H       1  UNL1        0.0618
     37 H          -2.6888   -1.1883    2.2815 H       1  UNL1        0.0640
     38 H          -4.6708   -1.9121    3.3893 H       1  UNL1        0.0626
     39 H          -9.2530   -2.5369    3.8414 H       1  UNL1        0.0625
     40 H          -9.3192   -3.6696    6.0499 H       1  UNL1        0.0633
     41 H          -7.4093   -3.3440    7.6294 H       1  UNL1        0.0829
     42 H          -5.5559   -0.7223    5.0896 H       1  UNL1        0.0836
     43 H          -9.1693    1.5288   -1.0887 H       1  UNL1        0.0640
     44 H         -11.4652    1.9899   -1.9097 H       1  UNL1        0.0619
     45 H         -13.4254    1.2094   -0.5664 H       1  UNL1        0.0633
     46 H         -12.9827    0.0020    1.5736 H       1  UNL1        0.0830
@<TRIPOS>BOND
     1     1    32    1
     2     2     1   ar
     3     2    33    1
     4     3     2   ar
     5     3    34    1
     6     4     3   ar
     7     5     4   ar
     8     5    35    1
     9     6     5   ar
    10     6     1   ar
    11     6    36    1
    12     7     4    1
    13     8     7   ar
    14     9     8   ar
    15     9    37    1
    16    10     9   ar
    17    10    38    1
    18    11    10   ar
    19    12    11   ar
    20    13    12   ar
    21    14    13   ar
    22    15    14   ar
    23    16    15   ar
    24    16    11   ar
    25    17    16    1
    26    18    17   ar
    27    18    39    1
    28    19    18   ar
    29    19    40    1
    30    20    19   ar
    31    20    41    1
    32    21    20   ar
    33    22    21   ar
    34    22    17   ar
    35    22    42    1
    36    23    14    1
    37    24    23   ar
    38    24    43    1
    39    25    24   ar
    40    25    44    1
    41    26    25   ar
    42    26    45    1
    43    27    26   ar
    44    27    46    1
    45    28    27   ar
    46    28    23   ar
    47    29    12   ar
    48    29     8   ar
    49    30    29   ar
    50    31    30   ar
    51    31     7   ar
