@<TRIPOS>MOLECULE
>10.sdf
 89 91 0 0 0
SMALL
GASTEIGER

@<TRIPOS>ATOM
      1 C           1.0260    0.1779    0.0801 C.3     1  UNL1       -0.0388
      2 C           2.5322    0.1308    0.0871 C.ar    1  UNL1       -0.0326
      3 C           3.2592    1.3235    0.0895 C.ar    1  UNL1       -0.0161
      4 C           4.6582    1.3052    0.0732 C.ar    1  UNL1        0.1243
      5 O           5.2278    2.5485    0.0724 O.3     1  UNL1       -0.4918
      6 C           6.5203    2.6330   -0.5110 C.3     1  UNL1        0.0896
      7 C           6.6874    4.0587   -1.0114 C.3     1  UNL1       -0.0185
      8 C           8.0340    4.2427   -1.6692 C.3     1  UNL1       -0.0452
      9 C           8.1832    5.6688   -2.1880 C.3     1  UNL1       -0.0125
     10 C           9.5410    5.7697   -2.8280 C.3     1  UNL1       -0.0332
     11 N           9.7819    7.1355   -3.3691 N.4     1  UNL1        0.2307
     12 C          11.1353    7.3139   -4.0283 C.3     1  UNL1       -0.0204
     13 C          11.2427    6.3480   -5.2131 C.3     1  UNL1       -0.0193
     14 C          11.2255    8.7573   -4.5270 C.3     1  UNL1       -0.0193
     15 C          12.2323    7.0546   -2.9900 C.3     1  UNL1       -0.0193
     16 C           5.3469    0.0921    0.0854 C.ar    1  UNL1        0.0231
     17 C           4.6389   -1.1066    0.0841 C.ar    1  UNL1        0.1430
     18 C           3.2408   -1.0785    0.0846 C.ar    1  UNL1        0.0678
     19 C           2.5218   -2.3624    0.0854 C.ar    1  UNL1        0.2040
     20 O           1.3048   -2.3992    0.0942 O.2     1  UNL1       -0.2863
     21 C           3.3112   -3.5828    0.0751 C.ar    1  UNL1        0.1061
     22 C           2.6881   -4.8408    0.0689 C.ar    1  UNL1        0.1347
     23 O           1.3340   -4.9243    0.0811 O.3     1  UNL1       -0.5058
     24 C           3.4621   -5.9858    0.0646 C.ar    1  UNL1        0.0225
     25 C           4.8464   -5.8821    0.0823 C.ar    1  UNL1        0.1275
     26 O           5.5058   -7.0761    0.0962 O.3     1  UNL1       -0.4917
     27 C           6.8045   -7.0465    0.6765 C.3     1  UNL1        0.0896
     28 C           7.0815   -8.4445    1.1876 C.3     1  UNL1       -0.0185
     29 C           8.4388   -8.4960    1.8532 C.3     1  UNL1       -0.0452
     30 C           8.6924   -9.8900    2.4028 C.3     1  UNL1       -0.0125
     31 C          10.0643   -9.9935    3.0191 C.3     1  UNL1       -0.0332
     32 N          10.2141   -9.0479    4.1740 N.4     1  UNL1        0.2307
     33 C          11.5657   -9.0632    4.8456 C.3     1  UNL1       -0.0204
     34 C          12.6308   -8.6656    3.8185 C.3     1  UNL1       -0.0193
     35 C          11.5375   -8.0339    5.9799 C.3     1  UNL1       -0.0193
     36 C          11.8084  -10.4618    5.4123 C.3     1  UNL1       -0.0193
     37 C           5.4751   -4.6290    0.0671 C.ar    1  UNL1        0.0233
     38 C           4.7037   -3.4679    0.0742 C.ar    1  UNL1        0.1463
     39 O           5.3770   -2.2676    0.0782 O.2     1  UNL1       -0.4542
     40 H           0.6411   -0.3169   -0.8203 H       1  UNL1        0.0278
     41 H           0.6341   -0.3156    0.9776 H       1  UNL1        0.0278
     42 H           0.6416    1.1958    0.0771 H       1  UNL1        0.0278
     43 H           2.7333    2.2733    0.0899 H       1  UNL1        0.0657
     44 H           7.2785    2.4071    0.2486 H       1  UNL1        0.0696
     45 H           6.6318    1.9472   -1.3596 H       1  UNL1        0.0696
     46 H           5.8860    4.2939   -1.7253 H       1  UNL1        0.0298
     47 H           6.5697    4.7670   -0.1804 H       1  UNL1        0.0298
     48 H           8.8360    4.0185   -0.9527 H       1  UNL1        0.0268
     49 H           8.1475    3.5313   -2.4991 H       1  UNL1        0.0268
     50 H           7.3994    5.8936   -2.9203 H       1  UNL1        0.0317
     51 H           8.0950    6.3863   -1.3645 H       1  UNL1        0.0317
     52 H          10.3094    5.5566   -2.0821 H       1  UNL1        0.0814
     53 H           9.6070    5.0582   -3.6536 H       1  UNL1        0.0814
     54 H           9.0390    7.3696   -4.0457 H       1  UNL1        0.2019
     55 H           9.6776    7.8265   -2.6101 H       1  UNL1        0.2019
     56 H          10.4376    6.5192   -5.9370 H       1  UNL1        0.0287
     57 H          12.1995    6.4708   -5.7273 H       1  UNL1        0.0287
     58 H          11.1966    5.2993   -4.9027 H       1  UNL1        0.0287
     59 H          11.1357    9.4757   -3.7049 H       1  UNL1        0.0287
     60 H          12.1936    8.9275   -5.0120 H       1  UNL1        0.0287
     61 H          10.4433    8.9814   -5.2605 H       1  UNL1        0.0287
     62 H          12.1315    7.7287   -2.1315 H       1  UNL1        0.0287
     63 H          12.2163    6.0272   -2.6128 H       1  UNL1        0.0287
     64 H          13.2229    7.2018   -3.4284 H       1  UNL1        0.0287
     65 H           6.4375    0.0655    0.1014 H       1  UNL1        0.0691
     66 H           1.0092   -5.8515    0.0688 H       1  UNL1        0.2922
     67 H           2.9873   -6.9658    0.0658 H       1  UNL1        0.0691
     68 H           7.5403   -6.7636   -0.0840 H       1  UNL1        0.0696
     69 H           6.8594   -6.3477    1.5201 H       1  UNL1        0.0696
     70 H           6.3033   -8.7344    1.9060 H       1  UNL1        0.0298
     71 H           7.0260   -9.1695    0.3663 H       1  UNL1        0.0298
     72 H           9.2256   -8.2243    1.1385 H       1  UNL1        0.0268
     73 H           8.4631   -7.7533    2.6577 H       1  UNL1        0.0268
     74 H           7.9272  -10.1674    3.1357 H       1  UNL1        0.0317
     75 H           8.6386  -10.6207    1.5858 H       1  UNL1        0.0317
     76 H          10.2181  -11.0093    3.3853 H       1  UNL1        0.0814
     77 H          10.8173   -9.7401    2.2706 H       1  UNL1        0.0814
     78 H          10.0304   -8.0810    3.8690 H       1  UNL1        0.2019
     79 H           9.4798   -9.2507    4.8719 H       1  UNL1        0.2019
     80 H          12.4257   -7.6727    3.3996 H       1  UNL1        0.0287
     81 H          13.6223   -8.6459    4.2770 H       1  UNL1        0.0287
     82 H          12.6913   -9.3723    2.9854 H       1  UNL1        0.0287
     83 H          10.7667   -8.2683    6.7223 H       1  UNL1        0.0287
     84 H          12.5035   -8.0169    6.4972 H       1  UNL1        0.0287
     85 H          11.3464   -7.0213    5.6052 H       1  UNL1        0.0287
     86 H          11.0191  -10.7401    6.1206 H       1  UNL1        0.0287
     87 H          11.8392  -11.2250    4.6289 H       1  UNL1        0.0287
     88 H          12.7695  -10.5086    5.9289 H       1  UNL1        0.0287
     89 H           6.5560   -4.5351    0.0465 H       1  UNL1        0.0691
@<TRIPOS>UNITY_ATOM_ATTR
11 1
charge 1
32 1
charge 1
@<TRIPOS>BOND
     1     1    40    1
     2     1    41    1
     3     1    42    1
     4     2     1    1
     5     3     2   ar
     6     3    43    1
     7     4     3   ar
     8     5     4    1
     9     6     5    1
    10     6    44    1
    11     6    45    1
    12     7     6    1
    13     7    46    1
    14     7    47    1
    15     8     7    1
    16     8    48    1
    17     8    49    1
    18     9     8    1
    19     9    50    1
    20     9    51    1
    21    10     9    1
    22    10    52    1
    23    10    53    1
    24    11    10    1
    25    11    54    1
    26    11    55    1
    27    12    11    1
    28    13    12    1
    29    13    56    1
    30    13    57    1
    31    13    58    1
    32    14    12    1
    33    14    59    1
    34    14    60    1
    35    14    61    1
    36    15    12    1
    37    15    62    1
    38    15    63    1
    39    15    64    1
    40    16     4   ar
    41    16    65    1
    42    17    16   ar
    43    18    17   ar
    44    18     2   ar
    45    19    18   ar
    46    20    19    2
    47    21    19   ar
    48    22    21   ar
    49    23    22    1
    50    23    66    1
    51    24    22   ar
    52    24    67    1
    53    25    24   ar
    54    26    25    1
    55    27    26    1
    56    27    68    1
    57    27    69    1
    58    28    27    1
    59    28    70    1
    60    28    71    1
    61    29    28    1
    62    29    72    1
    63    29    73    1
    64    30    29    1
    65    30    74    1
    66    30    75    1
    67    31    30    1
    68    31    76    1
    69    31    77    1
    70    32    31    1
    71    32    78    1
    72    32    79    1
    73    33    32    1
    74    34    33    1
    75    34    80    1
    76    34    81    1
    77    34    82    1
    78    35    33    1
    79    35    83    1
    80    35    84    1
    81    35    85    1
    82    36    33    1
    83    36    86    1
    84    36    87    1
    85    36    88    1
    86    37    25   ar
    87    37    89    1
    88    38    37   ar
    89    38    21   ar
    90    39    38   ar
    91    39    17   ar
