@<TRIPOS>MOLECULE
>150.sdf
 56 58 0 0 0
SMALL
GASTEIGER

@<TRIPOS>ATOM
      1 C          16.4001   -0.3890    0.6103 C.3     1  UNL1       -0.0653
      2 C          14.9579   -0.8824    0.5623 C.3     1  UNL1       -0.0553
      3 C          14.0229    0.0967    1.2820 C.3     1  UNL1       -0.0457
      4 C          12.5075   -0.2672    1.2253 C.3     1  UNL1        0.0012
      5 C          12.3246   -1.6440    1.8643 C.3     1  UNL1        0.0524
      6 C          10.8827   -2.0102    1.9711 C.2     1  UNL1        0.3129
      7 O          10.4245   -3.0938    1.6239 O.2     1  UNL1       -0.2504
      8 O          10.1200   -1.0740    2.6457 O.3     1  UNL1       -0.4246
      9 C          10.5381    0.2706    2.7506 C.ar    1  UNL1        0.1526
     10 C           9.7643    1.1309    3.5479 C.ar    1  UNL1        0.1024
     11 C           8.6765    0.6620    4.4746 C.2     1  UNL1        0.1755
     12 O           7.7430    1.4488    4.6663 O.2     1  UNL1       -0.2914
     13 C           8.7414   -0.6945    5.1987 C.3     1  UNL1        0.0452
     14 C           7.4547   -0.9138    6.0164 C.3     1  UNL1       -0.0530
     15 C          10.0107   -0.7891    6.0671 C.3     1  UNL1        0.0620
     16 C          10.2113   -2.1617    6.7048 C.3     1  UNL1       -0.0383
     17 O          10.0020    0.1971    7.0964 O.3     1  UNL1       -0.3914
     18 C          10.0034    2.5143    3.4422 C.ar    1  UNL1        0.1415
     19 O           9.2873    3.4288    4.1852 O.3     1  UNL1       -0.5052
     20 C          10.9653    3.0184    2.5467 C.ar    1  UNL1        0.0591
     21 C          11.1613    4.4559    2.3630 C.2     1  UNL1       -0.0478
     22 C          12.0359    4.8777    1.4487 C.2     1  UNL1       -0.0408
     23 C          12.8517    3.9412    0.5983 C.3     1  UNL1        0.1235
     24 C          12.5429    4.1606   -0.8872 C.3     1  UNL1       -0.0215
     25 C          14.3463    4.1838    0.8488 C.3     1  UNL1       -0.0215
     26 O          12.6190    2.5453    0.8404 O.3     1  UNL1       -0.4811
     27 C          11.7389    2.1269    1.7961 C.ar    1  UNL1        0.1393
     28 C          11.5992    0.7332    1.9455 C.ar    1  UNL1        0.0417
     29 H          17.0777   -1.1534    0.2179 H       1  UNL1        0.0230
     30 H          16.5255    0.5166    0.0073 H       1  UNL1        0.0230
     31 H          16.7044   -0.1600    1.6371 H       1  UNL1        0.0230
     32 H          14.6511   -0.9925   -0.4841 H       1  UNL1        0.0263
     33 H          14.9198   -1.8707    1.0282 H       1  UNL1        0.0263
     34 H          14.3321    0.1914    2.3310 H       1  UNL1        0.0271
     35 H          14.2139    1.0675    0.8243 H       1  UNL1        0.0271
     36 H          12.1811   -0.3065    0.1778 H       1  UNL1        0.0356
     37 H          12.7478   -1.6826    2.8763 H       1  UNL1        0.0384
     38 H          12.8172   -2.4191    1.2691 H       1  UNL1        0.0384
     39 H           8.7427   -1.4848    4.4439 H       1  UNL1        0.0403
     40 H           7.4102   -1.9300    6.4190 H       1  UNL1        0.0237
     41 H           7.3735   -0.2118    6.8520 H       1  UNL1        0.0237
     42 H           6.5643   -0.7769    5.3915 H       1  UNL1        0.0237
     43 H          10.8953   -0.5815    5.4573 H       1  UNL1        0.0597
     44 H          11.1250   -2.1659    7.3089 H       1  UNL1        0.0255
     45 H           9.3959   -2.4170    7.3915 H       1  UNL1        0.0255
     46 H          10.2910   -2.9436    5.9454 H       1  UNL1        0.0255
     47 H           9.3393   -0.0489    7.7649 H       1  UNL1        0.2098
     48 H           8.5191    2.9665    4.5907 H       1  UNL1        0.2922
     49 H          10.5863    5.1517    2.9659 H       1  UNL1        0.0624
     50 H          12.1778    5.9457    1.3052 H       1  UNL1        0.0611
     51 H          12.7702    5.1816   -1.2117 H       1  UNL1        0.0271
     52 H          13.1214    3.4656   -1.5098 H       1  UNL1        0.0271
     53 H          11.4875    3.9541   -1.1018 H       1  UNL1        0.0271
     54 H          14.6102    3.9625    1.8900 H       1  UNL1        0.0271
     55 H          14.9591    3.5179    0.2299 H       1  UNL1        0.0271
     56 H          14.6375    5.2172    0.6308 H       1  UNL1        0.0271
@<TRIPOS>BOND
     1     1    29    1
     2     1    30    1
     3     1    31    1
     4     2     1    1
     5     2    32    1
     6     2    33    1
     7     3     2    1
     8     3    34    1
     9     3    35    1
    10     5     4    1
    11     5    37    1
    12     5    38    1
    13     6     5    1
    14     7     6    2
    15     8     6    1
    16     9     8    1
    17    10     9   ar
    18    11    10    1
    19    12    11    2
    20    14    13    1
    21    14    40    1
    22    14    41    1
    23    14    42    1
    24    16    15    1
    25    16    44    1
    26    16    45    1
    27    16    46    1
    28    17    15    1
    29    17    47    1
    30    18    10   ar
    31    19    18    1
    32    19    48    1
    33    20    18   ar
    34    21    20    1
    35    21    49    1
    36    22    21    2
    37    22    50    1
    38    23    22    1
    39    24    23    1
    40    24    51    1
    41    24    52    1
    42    24    53    1
    43    25    23    1
    44    25    54    1
    45    25    55    1
    46    25    56    1
    47    26    23    1
    48    27    26    1
    49    27    20   ar
    50    28    27   ar
    51    28     4    1
    52    28     9   ar
    53     4    36    1
    54     4     3    1
    55    13    39    1
    56    13    11    1
    57    15    43    1
    58    15    13    1
