@<TRIPOS>MOLECULE
>90.sdf
 41 42 0 0 0
SMALL
GASTEIGER

@<TRIPOS>ATOM
      1 C          -6.6535   -3.8447   -3.3101 C.3     1  UNL1       -0.0397
      2 C          -5.8532   -2.9285   -2.4344 C.ar    1  UNL1       -0.0503
      3 C          -5.0259   -1.9400   -2.9933 C.ar    1  UNL1       -0.0570
      4 C          -4.2794   -1.0969   -2.1715 C.ar    1  UNL1       -0.0351
      5 C          -4.3653   -1.2363   -0.7838 C.ar    1  UNL1        0.1053
      6 C          -5.1746   -2.2247   -0.2144 C.ar    1  UNL1       -0.0351
      7 C          -5.9169   -3.0690   -1.0409 C.ar    1  UNL1       -0.0570
      8 S          -3.4800   -0.1090    0.2654 S.O2    1  UNL1        0.0590
      9 O          -3.7508   -0.4776    1.6371 O.2     1  UNL1       -0.1530
     10 O          -2.1337   -0.0007   -0.2527 O.2     1  UNL1       -0.1530
     11 N          -4.2240    1.3572   -0.0358 N.3     1  UNL1       -0.1794
     12 C          -5.6967    1.4994   -0.0585 C.3     1  UNL1        0.0919
     13 C          -6.4002    1.1678    1.2643 C.3     1  UNL1       -0.0037
     14 C          -6.1373    1.9170    2.5507 C.ar    1  UNL1       -0.0454
     15 C          -5.2952    3.0247    2.6786 C.ar    1  UNL1       -0.0585
     16 C          -5.1985    3.7065    3.8963 C.ar    1  UNL1       -0.0615
     17 C          -5.9245    3.2809    5.0078 C.ar    1  UNL1       -0.0617
     18 C          -6.7267    2.1502    4.9121 C.ar    1  UNL1       -0.0615
     19 C          -6.8283    1.4748    3.6961 C.ar    1  UNL1       -0.0585
     20 C          -6.0656    2.8720   -0.6288 C.2     1  UNL1        0.1665
     21 O          -5.3077    3.8439   -0.5459 O.2     1  UNL1       -0.2944
     22 C          -7.3771    2.9847   -1.3757 C.3     1  UNL1        0.0825
     23 CL         -7.2469    2.0970   -2.9085 Cl      1  UNL1       -0.1173
     24 H          -6.3591   -4.8860   -3.1379 H       1  UNL1        0.0278
     25 H          -7.7213   -3.7327   -3.0959 H       1  UNL1        0.0278
     26 H          -6.4994   -3.6245   -4.3728 H       1  UNL1        0.0278
     27 H          -4.9629   -1.8214   -4.0710 H       1  UNL1        0.0621
     28 H          -3.6420   -0.3355   -2.6101 H       1  UNL1        0.0637
     29 H          -5.2383   -2.3445    0.8668 H       1  UNL1        0.0637
     30 H          -6.5460   -3.8358   -0.5973 H       1  UNL1        0.0621
     31 H          -3.6890    1.9862   -0.6401 H       1  UNL1        0.1488
     32 H          -6.0610    0.7844   -0.8007 H       1  UNL1        0.0559
     33 H          -6.2400    0.1036    1.4769 H       1  UNL1        0.0333
     34 H          -7.4789    1.2696    1.0819 H       1  UNL1        0.0333
     35 H          -4.6922    3.3827    1.8486 H       1  UNL1        0.0620
     36 H          -4.5519    4.5778    3.9781 H       1  UNL1        0.0618
     37 H          -5.8555    3.8221    5.9474 H       1  UNL1        0.0618
     38 H          -7.2758    1.7940    5.7798 H       1  UNL1        0.0618
     39 H          -7.4583    0.5884    3.6442 H       1  UNL1        0.0620
     40 H          -8.2013    2.5797   -0.7865 H       1  UNL1        0.0508
     41 H          -7.5823    4.0315   -1.6107 H       1  UNL1        0.0508
@<TRIPOS>BOND
     1     1    24    1
     2     1    25    1
     3     1    26    1
     4     2     1    1
     5     3     2   ar
     6     3    27    1
     7     4     3   ar
     8     4    28    1
     9     5     4   ar
    10     6     5   ar
    11     6    29    1
    12     7     6   ar
    13     7     2   ar
    14     7    30    1
    15     8     5    1
    16     9     8    2
    17    10     8    2
    18    11     8    1
    19    11    31    1
    20    12    11    1
    21    12    32    1
    22    13    12    1
    23    13    33    1
    24    13    34    1
    25    14    13    1
    26    15    14   ar
    27    15    35    1
    28    16    15   ar
    29    16    36    1
    30    17    16   ar
    31    17    37    1
    32    18    17   ar
    33    18    38    1
    34    19    18   ar
    35    19    14   ar
    36    19    39    1
    37    20    12    1
    38    21    20    2
    39    22    20    1
    40    22    40    1
    41    22    41    1
    42    23    22    1
