@<TRIPOS>MOLECULE
>172.sdf
 56 59 0 0 0
SMALL
GASTEIGER

@<TRIPOS>ATOM
      1 C           9.2802    1.9364   -3.5451 C.3     1  UNL1        0.0820
      2 O           8.0290    1.7561   -2.8850 O.3     1  UNL1       -0.4643
      3 C           7.9502    0.5589   -2.2416 C.2     1  UNL1        0.3461
      4 O           8.8396   -0.2852   -2.2596 O.2     1  UNL1       -0.2447
      5 C           6.7257    0.3912   -1.5043 C.ar    1  UNL1        0.1471
      6 C           6.5845   -0.4548   -0.4200 C.ar    1  UNL1        0.1854
      7 O           5.2896   -0.4206   -0.0099 O.2     1  UNL1       -0.3519
      8 N           4.5763    0.4592   -0.7792 N.ar    1  UNL1       -0.0619
      9 C           5.4411    0.9878   -1.6538 C.ar    1  UNL1        0.1765
     10 N           5.1354    1.9573   -2.5528 N.pl3   1  UNL1       -0.3216
     11 C           3.7633    2.1020   -3.0131 C.3     1  UNL1        0.0358
     12 C           3.4166    3.5290   -3.3692 C.ar    1  UNL1       -0.0303
     13 C           2.5091    3.7672   -4.4068 C.ar    1  UNL1       -0.0568
     14 C           2.1104    5.0663   -4.7308 C.ar    1  UNL1       -0.0578
     15 C           2.6044    6.1801   -4.0339 C.ar    1  UNL1       -0.0420
     16 C           3.4744    5.9270   -2.9576 C.ar    1  UNL1       -0.0578
     17 C           3.8685    4.6239   -2.6255 C.ar    1  UNL1       -0.0568
     18 C           2.2149    7.6208   -4.4068 C.3     1  UNL1       -0.0127
     19 C           1.2920    7.6826   -5.6455 C.3     1  UNL1       -0.0560
     20 C           1.4872    8.2892   -3.2226 C.3     1  UNL1       -0.0560
     21 C           3.4723    8.4549   -4.7394 C.3     1  UNL1       -0.0560
     22 C           7.4765   -1.2280    0.4355 C.ar    1  UNL1        0.0547
     23 C           7.0630   -2.4258    1.0634 C.ar    1  UNL1        0.1406
     24 C           7.7662   -3.0210    2.1201 C.ar    1  UNL1        0.0148
     25 C           8.9984   -2.4906    2.3855 C.ar    1  UNL1        0.1684
     26 O           9.9227   -3.0342    3.2243 O.3     1  UNL1       -0.4525
     27 C          11.1029   -2.5620    2.5493 C.3     1  UNL1        0.2332
     28 O          10.8570   -1.3043    1.8776 O.3     1  UNL1       -0.4526
     29 C           9.5176   -1.4433    1.6544 C.ar    1  UNL1        0.1670
     30 C           8.7605   -0.7418    0.7402 C.ar    1  UNL1       -0.0032
     31 N           6.0616   -3.2523    0.4226 N.pl3   1  UNL1        0.0573
     32 O           6.3381   -3.6962   -0.6940 O.2     1  UNL1       -0.1261
     33 O           5.0355   -3.4995    1.0837 O.2     1  UNL1       -0.1261
     34 H          10.1003    1.9304   -2.8183 H       1  UNL1        0.0661
     35 H           9.4252    1.1534   -4.2959 H       1  UNL1        0.0661
     36 H           9.2657    2.9057   -4.0467 H       1  UNL1        0.0661
     37 H           5.8321    2.2618   -3.2322 H       1  UNL1        0.1479
     38 H           3.6483    1.4739   -3.9062 H       1  UNL1        0.0511
     39 H           3.0266    1.7665   -2.2742 H       1  UNL1        0.0511
     40 H           2.0871    2.9381   -4.9715 H       1  UNL1        0.0621
     41 H           1.3955    5.1706   -5.5422 H       1  UNL1        0.0621
     42 H           3.8522    6.7463   -2.3491 H       1  UNL1        0.0621
     43 H           4.5241    4.4708   -1.7703 H       1  UNL1        0.0621
     44 H           0.3427    7.1638   -5.4663 H       1  UNL1        0.0238
     45 H           1.0510    8.7144   -5.9214 H       1  UNL1        0.0238
     46 H           1.7706    7.2188   -6.5179 H       1  UNL1        0.0238
     47 H           2.1042    8.3014   -2.3168 H       1  UNL1        0.0238
     48 H           1.2368    9.3318   -3.4509 H       1  UNL1        0.0238
     49 H           0.5568    7.7647   -2.9784 H       1  UNL1        0.0238
     50 H           4.1703    8.5086   -3.8972 H       1  UNL1        0.0238
     51 H           4.0150    8.0354   -5.5938 H       1  UNL1        0.0238
     52 H           3.1995    9.4865   -4.9944 H       1  UNL1        0.0238
     53 H           7.4372   -3.9265    2.6135 H       1  UNL1        0.0678
     54 H          11.3657   -3.3272    1.8017 H       1  UNL1        0.1166
     55 H          11.9342   -2.4629    3.2507 H       1  UNL1        0.1166
     56 H           9.1888    0.1212    0.2417 H       1  UNL1        0.0663
@<TRIPOS>BOND
     1     1    34    1
     2     1    35    1
     3     1    36    1
     4     2     1    1
     5     3     2    1
     6     4     3    2
     7     5     3    1
     8     6     5   ar
     9     7     6   ar
    10     8     7   ar
    11     9     8   ar
    12     9     5   ar
    13    10     9    1
    14    10    37    1
    15    11    10    1
    16    11    38    1
    17    11    39    1
    18    12    11    1
    19    13    12   ar
    20    13    40    1
    21    14    13   ar
    22    14    41    1
    23    15    14   ar
    24    16    15   ar
    25    16    42    1
    26    17    16   ar
    27    17    12   ar
    28    17    43    1
    29    18    15    1
    30    19    18    1
    31    19    44    1
    32    19    45    1
    33    19    46    1
    34    20    18    1
    35    20    47    1
    36    20    48    1
    37    20    49    1
    38    21    18    1
    39    21    50    1
    40    21    51    1
    41    21    52    1
    42    22     6    1
    43    23    22   ar
    44    24    23   ar
    45    24    53    1
    46    25    24   ar
    47    26    25    1
    48    27    26    1
    49    27    54    1
    50    27    55    1
    51    28    27    1
    52    29    28    1
    53    29    25   ar
    54    30    29   ar
    55    30    22   ar
    56    30    56    1
    57    31    23    1
    58    32    31    2
    59    33    31    2
