@<TRIPOS>MOLECULE
>151.sdf
 77 80 0 0 0
SMALL
GASTEIGER

@<TRIPOS>ATOM
      1 C          -4.9666    3.5350    4.4463 C.3     1  UNL1       -0.0616
      2 C          -3.7815    2.9843    5.2364 C.3     1  UNL1       -0.0343
      3 C          -3.1042    1.7733    4.6055 C.2     1  UNL1       -0.0661
      4 C          -4.0284    0.6308    4.2816 C.3     1  UNL1       -0.0433
      5 C          -1.7638    1.7820    4.4231 C.2     1  UNL1        0.0215
      6 C          -0.9243    0.7065    3.8322 C.2     1  UNL1        0.3324
      7 O          -1.3146   -0.3270    3.3263 O.2     1  UNL1       -0.2456
      8 O           0.3688    1.1406    3.8275 O.3     1  UNL1       -0.4504
      9 C           1.2432    0.5031    2.8398 C.3     1  UNL1        0.1819
     10 C           2.6781    0.9197    3.1677 C.3     1  UNL1        0.1250
     11 O           3.1054    0.3313    4.4055 O.3     1  UNL1       -0.3853
     12 C           3.6157    0.5155    2.0170 C.3     1  UNL1        0.1105
     13 O           4.9502    0.9783    2.2694 O.3     1  UNL1       -0.3865
     14 C           3.1420    1.0869    0.6706 C.3     1  UNL1        0.0874
     15 C           3.1526    0.0450   -0.4437 C.3     1  UNL1       -0.0361
     16 O           1.8929    1.7564    0.7790 O.3     1  UNL1       -0.3421
     17 C           0.8605    1.0447    1.4475 C.3     1  UNL1        0.1997
     18 O           0.2390    0.0642    0.6388 O.3     1  UNL1       -0.3412
     19 C          -0.6394    0.5226   -0.4137 C.3     1  UNL1        0.0730
     20 C           0.1704    1.0205   -1.6256 C.3     1  UNL1       -0.0354
     21 C          -1.3621   -0.7849   -0.8757 C.3     1  UNL1       -0.0234
     22 C          -2.4826   -1.2996    0.0327 C.3     1  UNL1       -0.0468
     23 C          -3.7446   -0.4825    0.1994 C.3     1  UNL1       -0.0319
     24 C          -4.0238    0.9191   -0.3454 C.3     1  UNL1       -0.0289
     25 C          -2.8821    1.6839   -0.9582 C.3     1  UNL1       -0.0294
     26 C          -3.0578    3.2081   -1.1653 C.3     1  UNL1       -0.0404
     27 C          -4.4224    3.7455   -1.5362 C.3     1  UNL1       -0.0621
     28 C          -2.5114    3.8443    0.0973 C.3     1  UNL1       -0.0498
     29 C          -1.2502    3.0425    0.3117 C.3     1  UNL1       -0.0471
     30 C          -1.6859    1.5820    0.0480 C.3     1  UNL1       -0.0087
     31 C          -4.7710   -0.3042   -0.9082 C.3     1  UNL1       -0.0284
     32 C          -4.4973   -0.9085   -2.2617 C.3     1  UNL1       -0.0593
     33 C          -6.2104   -0.4924   -0.4729 C.3     1  UNL1       -0.0593
     34 H          -4.7248    3.6540    3.3837 H       1  UNL1        0.0233
     35 H          -5.2598    4.5096    4.8412 H       1  UNL1        0.0233
     36 H          -5.8355    2.8740    4.5298 H       1  UNL1        0.0233
     37 H          -3.0602    3.7999    5.3679 H       1  UNL1        0.0307
     38 H          -4.1251    2.7108    6.2420 H       1  UNL1        0.0307
     39 H          -3.5321   -0.2381    3.8516 H       1  UNL1        0.0274
     40 H          -4.7918    0.9412    3.5612 H       1  UNL1        0.0274
     41 H          -4.5308    0.2945    5.1943 H       1  UNL1        0.0274
     42 H          -1.2009    2.6606    4.7082 H       1  UNL1        0.0688
     43 H           1.1241   -0.5806    2.9234 H       1  UNL1        0.0813
     44 H           2.7315    2.0040    3.3352 H       1  UNL1        0.0659
     45 H           3.0478   -0.6359    4.3220 H       1  UNL1        0.2101
     46 H           3.6887   -0.5771    1.9719 H       1  UNL1        0.0646
     47 H           4.9025    1.9365    2.4413 H       1  UNL1        0.2100
     48 H           3.8432    1.8681    0.3498 H       1  UNL1        0.0621
     49 H           4.1310   -0.4382   -0.5186 H       1  UNL1        0.0255
     50 H           2.9425    0.5205   -1.4072 H       1  UNL1        0.0255
     51 H           2.3973   -0.7311   -0.2933 H       1  UNL1        0.0255
     52 H           0.1279    1.7888    1.6844 H       1  UNL1        0.0949
     53 H           0.7417    0.1984   -2.0713 H       1  UNL1        0.0257
     54 H           0.8889    1.7980   -1.3636 H       1  UNL1        0.0257
     55 H          -0.4710    1.4292   -2.4114 H       1  UNL1        0.0257
     56 H          -1.7231   -0.6807   -1.9005 H       1  UNL1        0.0293
     57 H          -0.6098   -1.5867   -0.9280 H       1  UNL1        0.0293
     58 H          -2.0575   -1.4699    1.0291 H       1  UNL1        0.0269
     59 H          -2.7797   -2.2953   -0.3224 H       1  UNL1        0.0269
     60 H          -4.1405   -0.6819    1.1955 H       1  UNL1        0.0309
     61 H          -4.5716    1.5580    0.3446 H       1  UNL1        0.0312
     62 H          -2.6512    1.2697   -1.9417 H       1  UNL1        0.0310
     63 H          -2.3728    3.5010   -1.9764 H       1  UNL1        0.0301
     64 H          -5.2132    3.3720   -0.8826 H       1  UNL1        0.0233
     65 H          -4.6660    3.4887   -2.5706 H       1  UNL1        0.0233
     66 H          -4.4249    4.8402   -1.4613 H       1  UNL1        0.0233
     67 H          -2.2883    4.9088   -0.0154 H       1  UNL1        0.0268
     68 H          -3.1984    3.7208    0.9437 H       1  UNL1        0.0268
     69 H          -0.4515    3.3629   -0.3627 H       1  UNL1        0.0269
     70 H          -0.9294    3.2408    1.3393 H       1  UNL1        0.0269
     71 H          -2.0569    1.2432    1.0266 H       1  UNL1        0.0331
     72 H          -3.5702   -0.5729   -2.7211 H       1  UNL1        0.0235
     73 H          -5.2977   -0.6607   -2.9661 H       1  UNL1        0.0235
     74 H          -4.4623   -2.0021   -2.1782 H       1  UNL1        0.0235
     75 H          -6.5000    0.2340    0.2941 H       1  UNL1        0.0235
     76 H          -6.3485   -1.4963   -0.0567 H       1  UNL1        0.0235
     77 H          -6.8988   -0.3732   -1.3153 H       1  UNL1        0.0235
@<TRIPOS>BOND
     1     1    34    1
     2     1    35    1
     3     1    36    1
     4     2     1    1
     5     2    37    1
     6     2    38    1
     7     3     2    1
     8     4     3    1
     9     4    39    1
    10     4    40    1
    11     4    41    1
    12     5     3    2
    13     5    42    1
    14     6     5    1
    15     7     6    2
    16     8     6    1
    17     9     8    1
    18     9    43    1
    19    10     9    1
    20    10    44    1
    21    11    10    1
    22    11    45    1
    23    12    10    1
    24    12    46    1
    25    13    12    1
    26    13    47    1
    27    14    12    1
    28    14    48    1
    29    15    14    1
    30    15    49    1
    31    15    50    1
    32    15    51    1
    33    16    14    1
    34    17    16    1
    35    17     9    1
    36    17    52    1
    37    18    17    1
    38    19    18    1
    39    20    19    1
    40    20    53    1
    41    20    54    1
    42    20    55    1
    43    21    19    1
    44    21    56    1
    45    21    57    1
    46    22    21    1
    47    22    58    1
    48    22    59    1
    49    23    22    1
    50    23    60    1
    51    24    23    1
    52    24    61    1
    53    25    24    1
    54    25    62    1
    55    26    25    1
    56    26    63    1
    57    27    26    1
    58    27    64    1
    59    27    65    1
    60    27    66    1
    61    28    26    1
    62    28    67    1
    63    28    68    1
    64    29    28    1
    65    29    69    1
    66    29    70    1
    67    30    29    1
    68    30    19    1
    69    30    25    1
    70    30    71    1
    71    31    24    1
    72    31    23    1
    73    32    31    1
    74    32    72    1
    75    32    73    1
    76    32    74    1
    77    33    31    1
    78    33    75    1
    79    33    76    1
    80    33    77    1
