@<TRIPOS>MOLECULE
>61_alt.sdf
 54 59 0 0 0
SMALL
GASTEIGER

@<TRIPOS>ATOM
      1 C           1.1910   -0.1497    2.5211 C.3     1  UNL1        0.0820
      2 O           2.6081   -0.0922    2.3642 O.3     1  UNL1       -0.4634
      3 C           3.0309    0.3735    1.1588 C.2     1  UNL1        0.3575
      4 O           2.3107    0.7279    0.2372 O.2     1  UNL1       -0.2432
      5 C           4.5301    0.4101    1.1136 C.ar    1  UNL1        0.1487
      6 N           5.1908   -0.0556    2.2117 N.ar    1  UNL1       -0.2394
      7 C           6.5512   -0.0242    2.2337 C.ar    1  UNL1        0.1046
      8 C           7.3182   -0.4275    3.4990 C.3     1  UNL1        0.1400
      9 N           8.1312   -1.5811    3.1009 N.pl3   1  UNL1       -0.3200
     10 C           9.1991   -1.9388    3.9124 C.ar    1  UNL1        0.0410
     11 C           9.7909   -3.1994    3.7698 C.ar    1  UNL1       -0.0401
     12 C          10.9443   -3.5378    4.4836 C.ar    1  UNL1       -0.0600
     13 C          11.5349   -2.6099    5.3370 C.ar    1  UNL1       -0.0609
     14 C          10.9801   -1.3390    5.4601 C.ar    1  UNL1       -0.0478
     15 C           9.8294   -1.0067    4.7336 C.ar    1  UNL1        0.0581
     16 C           9.3283    0.3827    4.7456 C.2     1  UNL1        0.2544
     17 O           9.9682    1.2284    5.3688 O.2     1  UNL1       -0.2695
     18 N           8.1821    0.6514    4.0034 N.am    1  UNL1       -0.2427
     19 C           7.7724    2.0118    3.8583 C.ar    1  UNL1        0.0389
     20 C           8.6686    2.9146    3.2646 C.ar    1  UNL1       -0.0388
     21 C           8.2634    4.2090    2.9403 C.ar    1  UNL1       -0.0416
     22 C           6.9761    4.6260    3.2625 C.ar    1  UNL1        0.0411
     23 CL          6.4767    6.2246    2.8703 Cl      1  UNL1       -0.0835
     24 C           6.0887    3.7544    3.8936 C.ar    1  UNL1       -0.0416
     25 C           6.4781    2.4397    4.1740 C.ar    1  UNL1       -0.0388
     26 C           7.2043    0.4391    1.0827 C.ar    1  UNL1        0.0726
     27 N           8.5556    0.5288    0.8407 N.ar    1  UNL1       -0.3526
     28 C           8.8004    1.1663   -0.3437 C.ar    1  UNL1        0.0475
     29 C           7.5609    1.4288   -0.9275 C.ar    1  UNL1        0.0075
     30 C           7.5473    2.0873   -2.1736 C.ar    1  UNL1       -0.0520
     31 C           8.7625    2.4556   -2.7718 C.ar    1  UNL1       -0.0611
     32 C           9.9795    2.1783   -2.1535 C.ar    1  UNL1       -0.0598
     33 C          10.0217    1.5262   -0.9222 C.ar    1  UNL1       -0.0378
     34 C           6.5481    0.9486   -0.0292 C.ar    1  UNL1        0.0115
     35 C           5.1444    0.9309   -0.0234 C.ar    1  UNL1       -0.0195
     36 H           0.7428    0.8343    2.3542 H       1  UNL1        0.0661
     37 H           0.7626   -0.8937    1.8429 H       1  UNL1        0.0661
     38 H           0.9772   -0.4548    3.5497 H       1  UNL1        0.0661
     39 H           6.6225   -0.7189    4.2960 H       1  UNL1        0.0781
     40 H           7.5545   -2.3665    2.8090 H       1  UNL1        0.1482
     41 H           9.3682   -3.9287    3.0823 H       1  UNL1        0.0636
     42 H          11.3920   -4.5206    4.3567 H       1  UNL1        0.0618
     43 H          12.4410   -2.8636    5.8811 H       1  UNL1        0.0618
     44 H          11.4640   -0.5974    6.0935 H       1  UNL1        0.0626
     45 H           9.6706    2.5941    2.9893 H       1  UNL1        0.0637
     46 H           8.9518    4.8735    2.4258 H       1  UNL1        0.0633
     47 H           5.0893    4.0894    4.1581 H       1  UNL1        0.0633
     48 H           5.7656    1.7725    4.6520 H       1  UNL1        0.0637
     49 H           9.2656    0.2152    1.4891 H       1  UNL1        0.1660
     50 H           6.6073    2.3238   -2.6630 H       1  UNL1        0.0624
     51 H           8.7524    2.9697   -3.7293 H       1  UNL1        0.0618
     52 H          10.9103    2.4785   -2.6301 H       1  UNL1        0.0618
     53 H          10.9667    1.3149   -0.4320 H       1  UNL1        0.0638
     54 H           4.5670    1.3165   -0.8563 H       1  UNL1        0.0648
@<TRIPOS>BOND
     1     1    36    1
     2     1    37    1
     3     1    38    1
     4     2     1    1
     5     3     2    1
     6     4     3    2
     7     5     3    1
     8     6     5   ar
     9     7     6   ar
    10     8     7    1
    11     8    39    1
    12     9     8    1
    13     9    40    1
    14    10     9    1
    15    11    10   ar
    16    11    41    1
    17    12    11   ar
    18    12    42    1
    19    13    12   ar
    20    13    43    1
    21    14    13   ar
    22    14    44    1
    23    15    14   ar
    24    15    10   ar
    25    16    15    1
    26    17    16    2
    27    18    16   am
    28    18     8    1
    29    19    18    1
    30    20    19   ar
    31    20    45    1
    32    21    20   ar
    33    21    46    1
    34    22    21   ar
    35    23    22    1
    36    24    22   ar
    37    24    47    1
    38    25    24   ar
    39    25    19   ar
    40    25    48    1
    41    26     7   ar
    42    27    26   ar
    43    27    49    1
    44    28    27   ar
    45    29    28   ar
    46    30    29   ar
    47    30    50    1
    48    31    30   ar
    49    31    51    1
    50    32    31   ar
    51    32    52    1
    52    33    32   ar
    53    33    28   ar
    54    33    53    1
    55    34    29   ar
    56    34    26   ar
    57    35    34   ar
    58    35     5   ar
    59    35    54    1
