@<TRIPOS>MOLECULE
>12.sdf
 78 81 0 0 0
SMALL
GASTEIGER

@<TRIPOS>ATOM
      1 C           8.0036    6.2362    3.4961 C.3     1  UNL1       -0.0653
      2 C           7.6138    6.5613    2.0633 C.3     1  UNL1       -0.0559
      3 C           8.8246    7.0087    1.2470 C.3     1  UNL1       -0.0533
      4 C           8.4350    7.3321   -0.1951 C.3     1  UNL1       -0.0530
      5 C           9.6529    7.7762   -1.0029 C.3     1  UNL1       -0.0516
      6 C           9.2757    8.0876   -2.4521 C.3     1  UNL1       -0.0372
      7 C          10.4692    8.6266   -3.2476 C.3     1  UNL1        0.0119
      8 N          11.5170    7.6011   -3.3790 N.pl3   1  UNL1       -0.3329
      9 C          12.8415    7.9687   -2.8779 C.3     1  UNL1        0.0007
     10 C          11.4812    6.7112   -4.4562 C.ar    1  UNL1        0.0295
     11 C          10.4063    6.6715   -5.3492 C.ar    1  UNL1       -0.0389
     12 C          10.4481    5.9027   -6.5049 C.ar    1  UNL1       -0.0388
     13 C          11.5716    5.1363   -6.7980 C.ar    1  UNL1        0.0314
     14 N          11.7137    4.4533   -8.0060 N.pl3   1  UNL1       -0.3135
     15 C          10.9032    4.6401   -9.1497 C.ar    1  UNL1        0.0469
     16 C          10.6475    5.8784   -9.7347 C.ar    1  UNL1        0.0040
     17 C          11.2394    7.1545   -9.4994 C.ar    1  UNL1       -0.0505
     18 C          10.7055    8.2889  -10.1340 C.ar    1  UNL1       -0.0400
     19 C           9.5165    8.1427  -10.8544 C.ar    1  UNL1        0.0298
     20 C           8.8163    6.9820  -10.6081 C.ar    1  UNL1       -0.0329
     21 C           9.5819    5.8359  -10.6246 C.ar    1  UNL1       -0.0138
     22 C           9.3001    4.6666  -11.3940 C.ar    1  UNL1       -0.0461
     23 C           9.8081    3.4392  -10.9486 C.ar    1  UNL1       -0.0138
     24 C          10.1837    3.5425   -9.6476 C.ar    1  UNL1        0.0040
     25 C           9.8292    2.4895   -8.8428 C.ar    1  UNL1       -0.0505
     26 C          10.5583    1.4184   -9.2689 C.ar    1  UNL1       -0.0400
     27 C          10.6120    1.0943  -10.6094 C.ar    1  UNL1        0.0298
     28 C          10.0385    2.0690  -11.4803 C.ar    1  UNL1       -0.0329
     29 N          11.2081   -0.1260  -10.9437 N.pl3   1  UNL1       -0.3360
     30 C          11.6636   -0.4908  -12.2729 C.3     1  UNL1        0.0004
     31 C          11.8568   -0.8743   -9.8536 C.3     1  UNL1        0.0004
     32 N           9.0104    9.0204  -11.8192 N.pl3   1  UNL1       -0.3360
     33 C          10.0489    9.7112  -12.5828 C.3     1  UNL1        0.0004
     34 C           7.9188    8.4685  -12.6553 C.3     1  UNL1        0.0004
     35 C          12.5899    5.0406   -5.8591 C.ar    1  UNL1       -0.0388
     36 C          12.5363    5.8110   -4.6991 C.ar    1  UNL1       -0.0389
     37 H           7.1249    5.9178    4.0653 H       1  UNL1        0.0230
     38 H           8.7409    5.4276    3.5275 H       1  UNL1        0.0230
     39 H           8.4327    7.1118    3.9936 H       1  UNL1        0.0230
     40 H           7.1606    5.6757    1.6030 H       1  UNL1        0.0263
     41 H           6.8537    7.3512    2.0663 H       1  UNL1        0.0263
     42 H           9.2760    7.8935    1.7125 H       1  UNL1        0.0265
     43 H           9.5847    6.2179    1.2532 H       1  UNL1        0.0265
     44 H           7.9841    6.4486   -0.6631 H       1  UNL1        0.0265
     45 H           7.6786    8.1262   -0.2044 H       1  UNL1        0.0265
     46 H          10.0964    8.6664   -0.5410 H       1  UNL1        0.0266
     47 H          10.4125    6.9856   -0.9771 H       1  UNL1        0.0266
     48 H           8.8643    7.1865   -2.9218 H       1  UNL1        0.0280
     49 H           8.4813    8.8438   -2.4675 H       1  UNL1        0.0280
     50 H          10.1455    9.0042   -4.2240 H       1  UNL1        0.0463
     51 H          10.8571    9.5124   -2.7331 H       1  UNL1        0.0463
     52 H          13.2868    7.1366   -2.3204 H       1  UNL1        0.0428
     53 H          13.5094    8.2552   -3.7007 H       1  UNL1        0.0428
     54 H          12.7949    8.8135   -2.1875 H       1  UNL1        0.0428
     55 H           9.5128    7.2681   -5.2119 H       1  UNL1        0.0637
     56 H           9.6022    5.9397   -7.1828 H       1  UNL1        0.0637
     57 H          11.8246    3.4592   -7.8145 H       1  UNL1        0.1522
     58 H          12.1500    7.2354   -8.9018 H       1  UNL1        0.0625
     59 H          11.2314    9.2367  -10.0831 H       1  UNL1        0.0636
     60 H           8.3330    7.0917   -9.6000 H       1  UNL1        0.0642
     61 H           8.6522    4.7541  -12.2657 H       1  UNL1        0.0630
     62 H           8.7457    2.2672   -8.9725 H       1  UNL1        0.0625
     63 H          11.3084    1.0800   -8.5584 H       1  UNL1        0.0636
     64 H           9.9168    1.8994  -12.5487 H       1  UNL1        0.0642
     65 H          12.6996   -0.1666  -12.4218 H       1  UNL1        0.0428
     66 H          11.6585   -1.5886  -12.3534 H       1  UNL1        0.0428
     67 H          11.0323   -0.1122  -13.0720 H       1  UNL1        0.0428
     68 H          12.6126   -0.2639   -9.3357 H       1  UNL1        0.0428
     69 H          11.1079   -1.2171   -9.1255 H       1  UNL1        0.0428
     70 H          12.3907   -1.7585  -10.2089 H       1  UNL1        0.0428
     71 H          10.7881    9.0010  -12.9762 H       1  UNL1        0.0428
     72 H           9.6062   10.2323  -13.4377 H       1  UNL1        0.0428
     73 H          10.5554   10.4618  -11.9700 H       1  UNL1        0.0428
     74 H           7.5053    7.5026  -12.3376 H       1  UNL1        0.0428
     75 H           7.0763    9.1627  -12.6485 H       1  UNL1        0.0428
     76 H           8.2538    8.3079  -13.6854 H       1  UNL1        0.0428
     77 H          13.4495    4.4053   -6.0467 H       1  UNL1        0.0637
     78 H          13.3606    5.7097   -4.0044 H       1  UNL1        0.0637
@<TRIPOS>BOND
     1     1    37    1
     2     1    38    1
     3     1    39    1
     4     2     1    1
     5     2    40    1
     6     2    41    1
     7     3     2    1
     8     3    42    1
     9     3    43    1
    10     4     3    1
    11     4    44    1
    12     4    45    1
    13     5     4    1
    14     5    46    1
    15     5    47    1
    16     6     5    1
    17     6    48    1
    18     6    49    1
    19     7     6    1
    20     7    50    1
    21     7    51    1
    22     8     7    1
    23     9     8    1
    24     9    52    1
    25     9    53    1
    26     9    54    1
    27    10     8    1
    28    11    10   ar
    29    11    55    1
    30    12    11   ar
    31    12    56    1
    32    13    12   ar
    33    14    13    1
    34    14    57    1
    35    15    14    1
    36    16    15   ar
    37    17    16   ar
    38    17    58    1
    39    18    17   ar
    40    18    59    1
    41    19    18   ar
    42    20    19   ar
    43    20    60    1
    44    21    20   ar
    45    21    16   ar
    46    22    21   ar
    47    22    61    1
    48    23    22   ar
    49    24    23   ar
    50    24    15   ar
    51    25    24   ar
    52    25    62    1
    53    26    25   ar
    54    26    63    1
    55    27    26   ar
    56    28    27   ar
    57    28    23   ar
    58    28    64    1
    59    29    27    1
    60    30    29    1
    61    30    65    1
    62    30    66    1
    63    30    67    1
    64    31    29    1
    65    31    68    1
    66    31    69    1
    67    31    70    1
    68    32    19    1
    69    33    32    1
    70    33    71    1
    71    33    72    1
    72    33    73    1
    73    34    32    1
    74    34    74    1
    75    34    75    1
    76    34    76    1
    77    35    13   ar
    78    35    77    1
    79    36    35   ar
    80    36    10   ar
    81    36    78    1
