@<TRIPOS>MOLECULE
>154.sdf
 47 48 0 0 0
SMALL
GASTEIGER

@<TRIPOS>ATOM
      1 C           0.7368    0.0392   -0.1158 C.3     1  UNL1        0.0788
      2 O           2.1575   -0.0190   -0.1285 O.3     1  UNL1       -0.4944
      3 C           2.8568    1.1616   -0.0544 C.ar    1  UNL1        0.1307
      4 C           2.2365    2.4117   -0.0308 C.ar    1  UNL1        0.0224
      5 C           2.9873    3.5937   -0.0144 C.ar    1  UNL1        0.1243
      6 O           2.2852    4.7662    0.0073 O.3     1  UNL1       -0.5063
      7 C           4.3889    3.5853   -0.0426 C.ar    1  UNL1        0.0042
      8 C           4.9993    2.3002   -0.0504 C.ar    1  UNL1       -0.0436
      9 C           4.2635    1.0918   -0.0252 C.ar    1  UNL1        0.0173
     10 C           5.0248   -0.1839   -0.0201 C.2     1  UNL1       -0.0475
     11 C           4.5966   -1.2950    0.6029 C.2     1  UNL1       -0.0137
     12 C           5.3380   -2.5858    0.5481 C.2     1  UNL1        0.1861
     13 O           6.5319   -2.6445    0.2889 O.2     1  UNL1       -0.2873
     14 C           4.5588   -3.8154    0.8744 C.ar    1  UNL1        0.0219
     15 C           3.2055   -3.9425    0.5226 C.ar    1  UNL1       -0.0475
     16 C           2.4951   -5.1015    0.8507 C.ar    1  UNL1       -0.0195
     17 C           3.1413   -6.1333    1.5234 C.ar    1  UNL1        0.1169
     18 O           2.4852   -7.2774    1.8662 O.3     1  UNL1       -0.5068
     19 C           4.4885   -6.0277    1.8619 C.ar    1  UNL1       -0.0195
     20 C           5.2022   -4.8737    1.5299 C.ar    1  UNL1       -0.0475
     21 C           5.2824    4.8558   -0.1049 C.3     1  UNL1        0.0113
     22 C           6.1171    4.8051   -1.4117 C.3     1  UNL1       -0.0522
     23 C           4.5166    6.2027   -0.1505 C.3     1  UNL1       -0.0522
     24 C           6.2722    5.0097    1.0586 C.2     1  UNL1       -0.0811
     25 C           6.4105    4.2786    2.1720 C.2     1  UNL1       -0.1018
     26 H           0.3667    0.5152    0.7985 H       1  UNL1        0.0660
     27 H           0.3577    0.5446   -1.0100 H       1  UNL1        0.0660
     28 H           0.3597   -0.9876   -0.1280 H       1  UNL1        0.0660
     29 H           1.1563    2.4889   -0.0359 H       1  UNL1        0.0691
     30 H           1.3321    4.5886    0.0416 H       1  UNL1        0.2921
     31 H           6.0880    2.2396   -0.0562 H       1  UNL1        0.0629
     32 H           5.9739   -0.1883   -0.5517 H       1  UNL1        0.0626
     33 H           3.6743   -1.3070    1.1647 H       1  UNL1        0.0656
     34 H           2.6950   -3.1547   -0.0264 H       1  UNL1        0.0626
     35 H           1.4484   -5.1817    0.5722 H       1  UNL1        0.0654
     36 H           1.5702   -7.2262    1.5419 H       1  UNL1        0.2921
     37 H           4.9796   -6.8464    2.3821 H       1  UNL1        0.0654
     38 H           6.2550   -4.7977    1.7923 H       1  UNL1        0.0626
     39 H           5.4674    4.7567   -2.2938 H       1  UNL1        0.0241
     40 H           6.7465    5.6984   -1.5191 H       1  UNL1        0.0241
     41 H           6.7902    3.9415   -1.4471 H       1  UNL1        0.0241
     42 H           3.9183    6.3617    0.7548 H       1  UNL1        0.0241
     43 H           5.2000    7.0586   -0.2216 H       1  UNL1        0.0241
     44 H           3.8607    6.2655   -1.0272 H       1  UNL1        0.0241
     45 H           6.9457    5.8646    0.9626 H       1  UNL1        0.0575
     46 H           5.7926    3.4157    2.3923 H       1  UNL1        0.0532
     47 H           7.1675    4.5429    2.9067 H       1  UNL1        0.0532
@<TRIPOS>BOND
     1     1    26    1
     2     1    27    1
     3     1    28    1
     4     2     1    1
     5     3     2    1
     6     4     3   ar
     7     4    29    1
     8     5     4   ar
     9     6     5    1
    10     6    30    1
    11     7     5   ar
    12     8     7   ar
    13     8    31    1
    14     9     8   ar
    15     9     3   ar
    16    10     9    1
    17    10    32    1
    18    11    10    2
    19    11    33    1
    20    12    11    1
    21    13    12    2
    22    14    12    1
    23    15    14   ar
    24    15    34    1
    25    16    15   ar
    26    16    35    1
    27    17    16   ar
    28    18    17    1
    29    18    36    1
    30    19    17   ar
    31    19    37    1
    32    20    19   ar
    33    20    14   ar
    34    20    38    1
    35    21     7    1
    36    22    21    1
    37    22    39    1
    38    22    40    1
    39    22    41    1
    40    23    21    1
    41    23    42    1
    42    23    43    1
    43    23    44    1
    44    24    21    1
    45    24    45    1
    46    25    24    2
    47    25    46    1
    48    25    47    1
