@<TRIPOS>MOLECULE
>6.sdf
 29 30 0 0 0
SMALL
GASTEIGER

@<TRIPOS>ATOM
      1 N           0.8959   -3.3157    1.6455 N.pl3   1  UNL1       -0.2925
      2 C           2.1834   -3.4521    1.7087 C.cat   1  UNL1        0.3349
      3 N           2.6454   -4.5928    1.8041 N.pl3   1  UNL1       -0.3928
      4 N           3.0789   -2.4841    1.6753 N.pl3   1  UNL1       -0.1599
      5 N           4.4841   -2.7141    1.7632 N.2     1  UNL1       -0.1179
      6 C           5.1981   -1.6269    1.7133 C.2     1  UNL1        0.0879
      7 C           6.6748   -1.6779    1.7831 C.ar    1  UNL1        0.0855
      8 C           7.3331   -2.8918    1.9091 C.ar    1  UNL1       -0.0341
      9 C           8.7186   -2.8724    1.9393 C.ar    1  UNL1       -0.0505
     10 C           9.3959   -1.6536    1.8504 C.ar    1  UNL1        0.0004
     11 C          10.7981   -1.6115    1.8736 C.ar    1  UNL1       -0.0526
     12 C          11.4614   -0.3912    1.7994 C.ar    1  UNL1       -0.0611
     13 C          10.7270    0.7843    1.7045 C.ar    1  UNL1       -0.0597
     14 C           9.3278    0.7377    1.6744 C.ar    1  UNL1       -0.0357
     15 C           8.6356   -0.4653    1.7415 C.ar    1  UNL1        0.0717
     16 N           7.2839   -0.4783    1.7036 N.ar    1  UNL1       -0.2457
     17 H           0.2174   -4.0704    1.6588 H       1  UNL1        0.2545
     18 H           0.4673   -2.3952    1.5728 H       1  UNL1        0.2545
     19 H           2.7236   -1.5262    1.5922 H       1  UNL1        0.2920
     20 H           4.7473   -0.6224    1.6131 H       1  UNL1        0.0882
     21 H           6.8133   -3.8360    1.9805 H       1  UNL1        0.0639
     22 H           9.2707   -3.8056    2.0330 H       1  UNL1        0.0625
     23 H          11.3847   -2.5250    1.9493 H       1  UNL1        0.0624
     24 H          12.5493   -0.3592    1.8190 H       1  UNL1        0.0618
     25 H          11.2423    1.7416    1.6548 H       1  UNL1        0.0618
     26 H           8.7742    1.6708    1.5988 H       1  UNL1        0.0639
     27 H           3.5139   -4.5106    2.3221 H       1  UNL1        0.2155
     28 H           2.0418   -5.3011    2.1696 H       1  UNL1        0.2155
     29 H           2.9810   -4.8522    0.8858 H       1  UNL1        0.2155
@<TRIPOS>BOND
     1     1    17    1
     2     1    18    1
     3     2     1    1
     4     3     2    2
     5     3    27    1
     6     3    28    1
     7     4     2    1
     8     4    19    1
     9     5     4    1
    10     6     5    2
    11     6    20    1
    12     7     6    1
    13     8     7   ar
    14     8    21    1
    15     9     8   ar
    16     9    22    1
    17    10     9   ar
    18    11    10   ar
    19    11    23    1
    20    12    11   ar
    21    12    24    1
    22    13    12   ar
    23    13    25    1
    24    14    13   ar
    25    14    26    1
    26    15    14   ar
    27    15    10   ar
    28    16    15   ar
    29    16     7   ar
    30     3    29    1
