@<TRIPOS>MOLECULE
>164.sdf
 55 57 0 0 0
SMALL
GASTEIGER

@<TRIPOS>ATOM
      1 O           4.8046    1.0630    1.1841 O.3     1  UNL1       -0.3870
      2 C           4.6075   -0.3406    1.3247 C.3     1  UNL1        0.0850
      3 C           4.9819   -0.7665    2.7468 C.3     1  UNL1        0.0176
      4 C           4.4535    0.1900    3.8103 C.3     1  UNL1       -0.0307
      5 N           2.9593    0.3505    3.7158 N.4     1  UNL1        0.2293
      6 C           2.3395    1.2869    4.7248 C.3     1  UNL1       -0.0197
      7 C           0.8143    1.2296    4.6005 C.3     1  UNL1        0.0061
      8 C           0.2672    2.0475    3.4336 C.3     1  UNL1        0.0173
      9 N           0.8550    3.3947    3.4506 N.pl3   1  UNL1       -0.3291
     10 C           2.3168    3.4145    3.3330 C.3     1  UNL1        0.0173
     11 C           2.8714    2.7147    4.5771 C.3     1  UNL1        0.0061
     12 C           0.1191    4.4380    2.8675 C.ar    1  UNL1        0.0416
     13 C           0.2207    5.7948    3.2657 C.ar    1  UNL1        0.0779
     14 C          -0.6730    6.7576    2.7131 C.ar    1  UNL1       -0.0181
     15 C          -1.6578    6.3946    1.7919 C.ar    1  UNL1        0.1268
     16 C          -1.7477    5.0781    1.3666 C.ar    1  UNL1       -0.0297
     17 C          -0.8618    4.1310    1.8895 C.ar    1  UNL1       -0.0380
     18 N          -2.6076    7.3907    1.2843 N.pl3   1  UNL1        0.0564
     19 O          -2.4970    8.5524    1.7027 O.2     1  UNL1       -0.1261
     20 O          -3.4656    7.0086    0.4779 O.2     1  UNL1       -0.1261
     21 C           1.1816    6.3692    4.2884 C.3     1  UNL1        0.4192
     22 F           1.9303    5.4821    4.9967 F       1  UNL1       -0.1658
     23 F           2.0812    7.2118    3.7002 F       1  UNL1       -0.1658
     24 F           0.5430    7.1193    5.2320 F       1  UNL1       -0.1658
     25 C           5.2969   -1.1490    0.2524 C.ar    1  UNL1       -0.0188
     26 C           4.6628   -2.3028   -0.2381 C.ar    1  UNL1       -0.0534
     27 C           5.2455   -3.0474   -1.2589 C.ar    1  UNL1       -0.0261
     28 C           6.4645   -2.6528   -1.7880 C.ar    1  UNL1        0.1234
     29 F           7.0107   -3.3568   -2.7870 F       1  UNL1       -0.2055
     30 C           7.1271   -1.5313   -1.2994 C.ar    1  UNL1       -0.0261
     31 C           6.5498   -0.7847   -0.2677 C.ar    1  UNL1       -0.0534
     32 H           5.0087    1.2443    0.2447 H       1  UNL1        0.2102
     33 H           3.5292   -0.4818    1.1869 H       1  UNL1        0.0645
     34 H           4.6326   -1.7869    2.9415 H       1  UNL1        0.0345
     35 H           6.0756   -0.7867    2.8500 H       1  UNL1        0.0345
     36 H           4.6734   -0.1793    4.8173 H       1  UNL1        0.0815
     37 H           4.9087    1.1741    3.6841 H       1  UNL1        0.0815
     38 H           2.7288    0.6872    2.7673 H       1  UNL1        0.2016
     39 H           2.5287   -0.5782    3.8180 H       1  UNL1        0.2016
     40 H           2.6259    0.8781    5.7034 H       1  UNL1        0.0851
     41 H           0.4602    0.1953    4.5178 H       1  UNL1        0.0335
     42 H           0.3805    1.6321    5.5259 H       1  UNL1        0.0335
     43 H           0.4930    1.5486    2.4820 H       1  UNL1        0.0466
     44 H          -0.8233    2.0823    3.5475 H       1  UNL1        0.0466
     45 H           2.7377    4.4207    3.2540 H       1  UNL1        0.0466
     46 H           2.6277    2.8906    2.4206 H       1  UNL1        0.0466
     47 H           2.5597    3.2715    5.4707 H       1  UNL1        0.0335
     48 H           3.9634    2.7545    4.5778 H       1  UNL1        0.0335
     49 H          -0.5989    7.7958    3.0452 H       1  UNL1        0.0646
     50 H          -2.5020    4.7613    0.6485 H       1  UNL1        0.0641
     51 H          -0.9764    3.1174    1.5117 H       1  UNL1        0.0637
     52 H           3.7035   -2.6268    0.1599 H       1  UNL1        0.0622
     53 H           4.7544   -3.9359   -1.6534 H       1  UNL1        0.0646
     54 H           8.0803   -1.2471   -1.7276 H       1  UNL1        0.0646
     55 H           7.0846    0.0861    0.1069 H       1  UNL1        0.0622
@<TRIPOS>UNITY_ATOM_ATTR
5 1
charge 1
@<TRIPOS>BOND
     1     1    32    1
     2     3     2    1
     3     3    34    1
     4     3    35    1
     5     4     3    1
     6     4    36    1
     7     4    37    1
     8     5     4    1
     9     5    38    1
    10     5    39    1
    11     6     5    1
    12     6    40    1
    13     7     6    1
    14     7    41    1
    15     7    42    1
    16     8     7    1
    17     8    43    1
    18     8    44    1
    19     9     8    1
    20    10     9    1
    21    10    45    1
    22    10    46    1
    23    11    10    1
    24    11     6    1
    25    11    47    1
    26    11    48    1
    27    12     9    1
    28    13    12   ar
    29    14    13   ar
    30    14    49    1
    31    15    14   ar
    32    16    15   ar
    33    16    50    1
    34    17    16   ar
    35    17    12   ar
    36    17    51    1
    37    18    15    1
    38    19    18    2
    39    20    18    2
    40    21    13    1
    41    22    21    1
    42    23    21    1
    43    24    21    1
    44    25     2    1
    45    26    25   ar
    46    26    52    1
    47    27    26   ar
    48    27    53    1
    49    28    27   ar
    50    29    28    1
    51    30    28   ar
    52    30    54    1
    53    31    30   ar
    54    31    25   ar
    55    31    55    1
    56     2    33    1
    57     2     1    1
