@<TRIPOS>MOLECULE
>175.sdf
 30 32 0 0 0
SMALL
GASTEIGER

@<TRIPOS>ATOM
      1 O           2.0483   -0.2635    0.8739 O.3     1  UNL1       -0.5068
      2 C           0.7401   -0.1562    0.5055 C.ar    1  UNL1        0.1169
      3 C          -0.0654    0.8708    0.9845 C.ar    1  UNL1       -0.0195
      4 C          -1.4185    0.9038    0.6286 C.ar    1  UNL1       -0.0476
      5 C          -1.9619   -0.0944   -0.1946 C.ar    1  UNL1        0.0176
      6 C          -1.1223   -1.0870   -0.7113 C.ar    1  UNL1       -0.0476
      7 C           0.2287   -1.1190   -0.3568 C.ar    1  UNL1       -0.0195
      8 C          -3.3993   -0.1063   -0.4954 C.ar    1  UNL1        0.1392
      9 C          -3.8839    0.5892   -1.5297 C.ar    1  UNL1        0.0288
     10 C          -5.3391    0.6344   -1.7261 C.ar    1  UNL1        0.1966
     11 O          -5.8416    1.3141   -2.6190 O.2     1  UNL1       -0.2869
     12 C          -6.1641   -0.1636   -0.8147 C.ar    1  UNL1        0.1055
     13 C          -7.5583   -0.1951   -0.9289 C.ar    1  UNL1        0.1347
     14 O          -8.2492    0.5680   -1.8309 O.3     1  UNL1       -0.5058
     15 C          -8.3049   -1.0305   -0.1052 C.ar    1  UNL1        0.0223
     16 C          -7.6523   -1.8352    0.8249 C.ar    1  UNL1        0.1239
     17 O          -8.4189   -2.6753    1.5772 O.3     1  UNL1       -0.5065
     18 C          -6.2668   -1.7822    0.9782 C.ar    1  UNL1        0.0231
     19 C          -5.5219   -0.9261    0.1612 C.ar    1  UNL1        0.1462
     20 O          -4.1635   -0.8709    0.3724 O.2     1  UNL1       -0.4544
     21 H           2.2313    0.3909    1.5684 H       1  UNL1        0.2921
     22 H           0.3329    1.6391    1.6388 H       1  UNL1        0.0654
     23 H          -2.0461    1.7053    1.0124 H       1  UNL1        0.0626
     24 H          -1.5145   -1.8512   -1.3768 H       1  UNL1        0.0626
     25 H           0.8753   -1.9051   -0.7369 H       1  UNL1        0.0654
     26 H          -3.2694    1.1527   -2.2186 H       1  UNL1        0.0693
     27 H          -7.6000    1.0858   -2.3585 H       1  UNL1        0.2922
     28 H          -9.3878   -1.0636   -0.1976 H       1  UNL1        0.0691
     29 H          -7.8439   -3.2105    2.1486 H       1  UNL1        0.2921
     30 H          -5.7597   -2.3992    1.7137 H       1  UNL1        0.0691
@<TRIPOS>BOND
     1     1    21    1
     2     2     1    1
     3     3     2   ar
     4     3    22    1
     5     4     3   ar
     6     4    23    1
     7     5     4   ar
     8     6     5   ar
     9     6    24    1
    10     7     6   ar
    11     7     2   ar
    12     7    25    1
    13     8     5    1
    14     9     8   ar
    15     9    26    1
    16    10     9   ar
    17    11    10    2
    18    12    10   ar
    19    13    12   ar
    20    14    13    1
    21    14    27    1
    22    15    13   ar
    23    15    28    1
    24    16    15   ar
    25    17    16    1
    26    17    29    1
    27    18    16   ar
    28    18    30    1
    29    19    18   ar
    30    19    12   ar
    31    20    19   ar
    32    20     8   ar
