@<TRIPOS>MOLECULE
>47.sdf
 34 36 0 0 0
SMALL
GASTEIGER

@<TRIPOS>ATOM
      1 C           1.2276    1.7232   -0.9104 C.3     1  UNL1       -0.0190
      2 C           0.3774    0.5988   -0.4576 C.ar    1  UNL1        0.0825
      3 N           0.7578   -0.1494    0.5830 N.ar    1  UNL1       -0.0814
      4 O          -0.2545   -1.0804    0.7601 O.2     1  UNL1       -0.3389
      5 C          -1.2292   -0.8844   -0.1719 C.ar    1  UNL1        0.2280
      6 C          -0.8568    0.1597   -0.9838 C.ar    1  UNL1        0.0231
      7 N          -2.3489   -1.6824   -0.1745 N.am    1  UNL1       -0.2222
      8 C          -3.5014   -1.5508   -1.0335 C.3     1  UNL1        0.0399
      9 C          -4.3107   -2.8070   -0.7505 C.3     1  UNL1        0.0328
     10 N          -3.8443   -3.2036    0.5540 N.am    1  UNL1       -0.2793
     11 C          -4.4926   -4.2102    1.3688 C.3     1  UNL1        0.0412
     12 C          -5.6896   -3.6503    2.1037 C.ar    1  UNL1       -0.0300
     13 C          -6.9729   -4.1744    1.8917 C.ar    1  UNL1       -0.0560
     14 C          -8.0763   -3.6456    2.5684 C.ar    1  UNL1       -0.0475
     15 C          -7.9016   -2.5914    3.4641 C.ar    1  UNL1        0.0179
     16 BR         -9.3992   -1.8603    4.3551 Br      1  UNL1       -0.0503
     17 C          -6.6316   -2.0719    3.7007 C.ar    1  UNL1       -0.0475
     18 C          -5.5295   -2.6033    3.0257 C.ar    1  UNL1       -0.0560
     19 C          -2.6036   -2.6228    0.8457 C.2     1  UNL1        0.3117
     20 O          -1.9242   -2.9034    1.8188 O.2     1  UNL1       -0.2520
     21 H           1.5693    2.3176   -0.0577 H       1  UNL1        0.0294
     22 H           2.1051    1.3498   -1.4467 H       1  UNL1        0.0294
     23 H           0.6735    2.3886   -1.5803 H       1  UNL1        0.0294
     24 H          -1.4019    0.5631   -1.8231 H       1  UNL1        0.0688
     25 H          -3.2191   -1.4575   -2.0860 H       1  UNL1        0.0485
     26 H          -4.0544   -0.6577   -0.7189 H       1  UNL1        0.0485
     27 H          -4.0516   -3.6079   -1.4523 H       1  UNL1        0.0481
     28 H          -5.3894   -2.6336   -0.7671 H       1  UNL1        0.0481
     29 H          -4.7811   -5.0375    0.7105 H       1  UNL1        0.0514
     30 H          -3.7839   -4.6083    2.1036 H       1  UNL1        0.0514
     31 H          -7.1246   -5.0000    1.2003 H       1  UNL1        0.0621
     32 H          -9.0644   -4.0625    2.3917 H       1  UNL1        0.0629
     33 H          -6.4853   -1.2582    4.4043 H       1  UNL1        0.0629
     34 H          -4.5384   -2.1959    3.2227 H       1  UNL1        0.0621
@<TRIPOS>BOND
     1     1    21    1
     2     1    22    1
     3     1    23    1
     4     2     1    1
     5     3     2   ar
     6     4     3   ar
     7     5     4   ar
     8     6     5   ar
     9     6     2   ar
    10     6    24    1
    11     7     5    1
    12     8     7    1
    13     8    25    1
    14     8    26    1
    15     9     8    1
    16     9    27    1
    17     9    28    1
    18    10     9    1
    19    11    10    1
    20    11    29    1
    21    11    30    1
    22    12    11    1
    23    13    12   ar
    24    13    31    1
    25    14    13   ar
    26    14    32    1
    27    15    14   ar
    28    16    15    1
    29    17    15   ar
    30    17    33    1
    31    18    17   ar
    32    18    12   ar
    33    18    34    1
    34    19    10   am
    35    19     7   am
    36    20    19    2
