@<TRIPOS>MOLECULE
>86.sdf
 28 29 0 0 0
SMALL
GASTEIGER

@<TRIPOS>ATOM
      1 C           2.3324   -0.5198    1.4223 C.3     1  UNL1       -0.0596
      2 C           2.5150   -0.0029   -0.0126 C.3     1  UNL1       -0.0109
      3 C           3.3761    1.2646    0.0141 C.3     1  UNL1       -0.0596
      4 C           3.0349   -1.0946   -0.9884 C.3     1  UNL1        0.1250
      5 C           3.1734   -0.5638   -2.4379 C.3     1  UNL1       -0.0138
      6 C           3.6014   -1.7116   -3.3693 C.3     1  UNL1       -0.0143
      7 C           3.7467   -2.9968   -2.5384 C.3     1  UNL1        0.1200
      8 C           4.1435   -4.1858   -3.4042 C.3     1  UNL1       -0.0291
      9 O           2.4499   -3.2606   -1.9595 O.3     1  UNL1       -0.2234
     10 O           2.0298   -2.1449   -1.0477 O.3     1  UNL1       -0.2229
     11 C           4.7069   -2.7607   -1.3981 C.2     1  UNL1       -0.0510
     12 C           4.3386   -1.7581   -0.5874 C.2     1  UNL1       -0.0505
     13 H           1.8635    0.2493    2.0468 H       1  UNL1        0.0233
     14 H           1.6865   -1.4026    1.4513 H       1  UNL1        0.0233
     15 H           3.2895   -0.7770    1.8869 H       1  UNL1        0.0233
     16 H           1.5117    0.2900   -0.3541 H       1  UNL1        0.0327
     17 H           4.4172    1.0424    0.2681 H       1  UNL1        0.0233
     18 H           3.3586    1.7764   -0.9528 H       1  UNL1        0.0233
     19 H           2.9951    1.9764    0.7548 H       1  UNL1        0.0233
     20 H           3.9141    0.2413   -2.5051 H       1  UNL1        0.0298
     21 H           2.2150   -0.1617   -2.7888 H       1  UNL1        0.0298
     22 H           2.8387   -1.8392   -4.1474 H       1  UNL1        0.0298
     23 H           4.5421   -1.4556   -3.8727 H       1  UNL1        0.0298
     24 H           5.1252   -4.0398   -3.8666 H       1  UNL1        0.0261
     25 H           4.1730   -5.1092   -2.8146 H       1  UNL1        0.0261
     26 H           3.4083   -4.3506   -4.2003 H       1  UNL1        0.0261
     27 H           5.5999   -3.3534   -1.2507 H       1  UNL1        0.0599
     28 H           4.9111   -1.4621    0.2808 H       1  UNL1        0.0599
@<TRIPOS>BOND
     1     1    13    1
     2     1    14    1
     3     1    15    1
     4     2     1    1
     5     2    16    1
     6     3     2    1
     7     3    17    1
     8     3    18    1
     9     3    19    1
    10     4     2    1
    11     5     4    1
    12     5    20    1
    13     5    21    1
    14     6     5    1
    15     6    22    1
    16     6    23    1
    17     7     6    1
    18     7     8    1
    19     8    24    1
    20     8    25    1
    21     8    26    1
    22     9     7    1
    23    10     9    1
    24    10     4    1
    25    11     7    1
    26    11    27    1
    27    12    11    2
    28    12     4    1
    29    12    28    1
