@<TRIPOS>MOLECULE
>49.sdf
 64 68 0 0 0
SMALL
GASTEIGER

@<TRIPOS>ATOM
      1 C           5.2527   -3.5688    0.3413 C.3     1  UNL1        0.0131
      2 C           4.1977   -2.7013    1.0026 C.2     1  UNL1        0.2225
      3 O           4.1359   -2.6937    2.2350 O.2     1  UNL1       -0.2752
      4 N           3.3546   -1.9663    0.1503 N.am    1  UNL1       -0.2180
      5 C           2.8611   -2.4964   -1.0409 C.2     1  UNL1        0.1870
      6 N           2.5764   -1.8017   -2.0998 N.2     1  UNL1       -0.1526
      7 N           1.9716   -2.5810   -3.0724 N.am    1  UNL1       -0.1730
      8 C           1.6132   -3.9449   -2.6769 C.3     1  UNL1        0.1300
      9 S           2.4967   -4.1968   -1.1101 S.3     1  UNL1       -0.0587
     10 C           2.0051   -4.9703   -3.6870 C.ar    1  UNL1        0.0310
     11 C           3.0363   -4.8942   -4.6024 C.ar    1  UNL1        0.0377
     12 N           2.8641   -5.9176   -5.4991 N.ar    1  UNL1       -0.2389
     13 N           1.8910   -6.7697   -5.0881 N.ar    1  UNL1       -0.1660
     14 C           1.3575   -6.2133   -3.9858 C.ar    1  UNL1        0.0989
     15 C           0.2595   -6.8739   -3.2571 C.ar    1  UNL1        0.0025
     16 C           0.1618   -6.7966   -1.8679 C.ar    1  UNL1       -0.0523
     17 C          -0.8785   -7.4029   -1.1586 C.ar    1  UNL1       -0.0582
     18 C          -1.8375   -8.1508   -1.8321 C.ar    1  UNL1       -0.0504
     19 C          -2.9190   -8.8538   -1.0663 C.3     1  UNL1       -0.0397
     20 C          -1.7447   -8.2632   -3.2253 C.ar    1  UNL1       -0.0582
     21 C          -0.7119   -7.6236   -3.9325 C.ar    1  UNL1       -0.0523
     22 C           3.5620   -6.0977   -6.7282 C.ar    1  UNL1        0.0654
     23 C           4.5973   -5.2255   -7.1011 C.ar    1  UNL1       -0.0360
     24 C           5.2537   -5.3877   -8.3236 C.ar    1  UNL1       -0.0568
     25 C           4.8905   -6.4197   -9.1923 C.ar    1  UNL1       -0.0503
     26 C           5.5839   -6.5846  -10.5121 C.3     1  UNL1       -0.0397
     27 C           3.8547   -7.2869   -8.8227 C.ar    1  UNL1       -0.0568
     28 C           3.1952   -7.1322   -7.5974 C.ar    1  UNL1       -0.0360
     29 C           1.4244   -2.0017   -4.2091 C.2     1  UNL1        0.2330
     30 C           1.7245   -0.5442   -4.4598 C.3     1  UNL1        0.0141
     31 O           0.7363   -2.6299   -5.0158 O.2     1  UNL1       -0.2741
     32 C           2.7721   -0.7253    0.6455 C.ar    1  UNL1        0.0432
     33 C           3.3740    0.0024    1.6867 C.ar    1  UNL1       -0.0399
     34 C           2.8169    1.1966    2.1632 C.ar    1  UNL1       -0.0600
     35 C           1.6472    1.6985    1.6048 C.ar    1  UNL1       -0.0616
     36 C           1.0227    0.9960    0.5842 C.ar    1  UNL1       -0.0600
     37 C           1.5743   -0.2030    0.1175 C.ar    1  UNL1       -0.0399
     38 H           6.2393   -3.2282    0.6677 H       1  UNL1        0.0323
     39 H           5.1108   -4.6064    0.6613 H       1  UNL1        0.0323
     40 H           5.2406   -3.5218   -0.7488 H       1  UNL1        0.0323
     41 H           0.5317   -3.9526   -2.5028 H       1  UNL1        0.0692
     42 H           3.7799   -4.1258   -4.7403 H       1  UNL1        0.0834
     43 H           0.9117   -6.2932   -1.2762 H       1  UNL1        0.0624
     44 H          -0.9125   -7.2964   -0.0770 H       1  UNL1        0.0620
     45 H          -3.9051   -8.5282   -1.4109 H       1  UNL1        0.0278
     46 H          -2.8244   -9.9365   -1.1936 H       1  UNL1        0.0278
     47 H          -2.8555   -8.6385    0.0068 H       1  UNL1        0.0278
     48 H          -2.4730   -8.8563   -3.7732 H       1  UNL1        0.0620
     49 H          -0.6641   -7.7314   -5.0139 H       1  UNL1        0.0624
     50 H           4.9215   -4.4047   -6.4709 H       1  UNL1        0.0639
     51 H           6.0499   -4.6963   -8.5918 H       1  UNL1        0.0621
     52 H           5.9805   -7.6000  -10.6075 H       1  UNL1        0.0278
     53 H           4.8864   -6.3877  -11.3320 H       1  UNL1        0.0278
     54 H           6.4254   -5.8899  -10.6107 H       1  UNL1        0.0278
     55 H           3.5485   -8.0884   -9.4917 H       1  UNL1        0.0621
     56 H           2.3859   -7.8144   -7.3443 H       1  UNL1        0.0639
     57 H           2.5153   -0.4640   -5.2105 H       1  UNL1        0.0323
     58 H           0.8153   -0.0690   -4.8418 H       1  UNL1        0.0323
     59 H           2.0226   -0.0013   -3.5621 H       1  UNL1        0.0323
     60 H           4.2954   -0.3330    2.1566 H       1  UNL1        0.0636
     61 H           3.3025    1.7317    2.9755 H       1  UNL1        0.0618
     62 H           1.2194    2.6283    1.9701 H       1  UNL1        0.0618
     63 H           0.0991    1.3720    0.1494 H       1  UNL1        0.0618
     64 H           1.0105   -0.7195   -0.6536 H       1  UNL1        0.0636
@<TRIPOS>BOND
     1     1    38    1
     2     1    39    1
     3     1    40    1
     4     2     1    1
     5     3     2    2
     6     4     2   am
     7     5     4    1
     8     6     5    2
     9     7     6    1
    10     8     7    1
    11     8    41    1
    12     9     8    1
    13     9     5    1
    14    10     8    1
    15    11    10   ar
    16    11    42    1
    17    12    11   ar
    18    13    12   ar
    19    14    13   ar
    20    14    10   ar
    21    15    14    1
    22    16    15   ar
    23    16    43    1
    24    17    16   ar
    25    17    44    1
    26    18    17   ar
    27    19    18    1
    28    19    45    1
    29    19    46    1
    30    19    47    1
    31    20    18   ar
    32    20    48    1
    33    21    20   ar
    34    21    15   ar
    35    21    49    1
    36    22    12    1
    37    23    22   ar
    38    23    50    1
    39    24    23   ar
    40    24    51    1
    41    25    24   ar
    42    26    25    1
    43    26    52    1
    44    26    53    1
    45    26    54    1
    46    27    25   ar
    47    27    55    1
    48    28    27   ar
    49    28    22   ar
    50    28    56    1
    51    29     7   am
    52    30    29    1
    53    30    57    1
    54    30    58    1
    55    30    59    1
    56    31    29    2
    57    32     4    1
    58    33    32   ar
    59    33    60    1
    60    34    33   ar
    61    34    61    1
    62    35    34   ar
    63    35    62    1
    64    36    35   ar
    65    36    63    1
    66    37    36   ar
    67    37    32   ar
    68    37    64    1
