@<TRIPOS>MOLECULE
>16.sdf
 51 55 0 0 0
SMALL
GASTEIGER

@<TRIPOS>ATOM
      1 O           2.4689   -2.2905   -0.7047 O.2     1  UNL1       -0.2699
      2 C           3.0662   -1.2289   -0.5482 C.2     1  UNL1        0.2483
      3 N           2.8506   -0.0993   -1.3135 N.am    1  UNL1       -0.2814
      4 C           2.1733   -0.1668   -2.5420 C.ar    1  UNL1        0.0357
      5 C           2.5842   -1.0828   -3.5232 C.ar    1  UNL1       -0.0145
      6 C           1.9804   -1.1347   -4.7729 C.ar    1  UNL1        0.0734
      7 N           2.4393   -1.9800   -5.7277 N.ar    1  UNL1       -0.2466
      8 C           1.8491   -2.0095   -6.9367 C.ar    1  UNL1        0.0734
      9 C           0.7426   -1.1835   -7.2206 C.ar    1  UNL1        0.0011
     10 C           0.1334   -1.2159   -8.4750 C.ar    1  UNL1       -0.0508
     11 C           0.6181   -2.0624   -9.4655 C.ar    1  UNL1       -0.0398
     12 C           1.7154   -2.8901   -9.2295 C.ar    1  UNL1        0.0357
     13 N           2.2500   -3.7526  -10.2246 N.am    1  UNL1       -0.2814
     14 C           1.7836   -3.8635  -11.5344 C.2     1  UNL1        0.2483
     15 O           0.8440   -3.2427  -12.0121 O.2     1  UNL1       -0.2699
     16 C           2.4881   -4.7998  -12.4525 C.ar    1  UNL1        0.0370
     17 C           3.1622   -5.9499  -12.0285 C.ar    1  UNL1       -0.0496
     18 C           3.7210   -6.8151  -12.9783 C.ar    1  UNL1       -0.0610
     19 C           3.6044   -6.5415  -14.3440 C.ar    1  UNL1       -0.0617
     20 C           2.9339   -5.4014  -14.7712 C.ar    1  UNL1       -0.0610
     21 C           2.3794   -4.5367  -13.8297 C.ar    1  UNL1       -0.0496
     22 C           2.3098   -2.8526   -7.9567 C.ar    1  UNL1       -0.0145
     23 C           0.2684   -0.3209   -6.2364 C.ar    1  UNL1       -0.0434
     24 C           0.8952   -0.2660   -4.9972 C.ar    1  UNL1        0.0011
     25 C           0.4657    0.6383   -4.0095 C.ar    1  UNL1       -0.0508
     26 C           1.1316    0.7158   -2.7914 C.ar    1  UNL1       -0.0398
     27 C           4.1086   -1.1409    0.5060 C.ar    1  UNL1        0.0370
     28 C           4.7758   -2.3317    0.8267 C.ar    1  UNL1       -0.0496
     29 C           5.8032   -2.3342    1.7663 C.ar    1  UNL1       -0.0610
     30 C           6.1626   -1.1473    2.4000 C.ar    1  UNL1       -0.0617
     31 C           5.4913    0.0399    2.0995 C.ar    1  UNL1       -0.0610
     32 C           4.4615    0.0481    1.1537 C.ar    1  UNL1       -0.0496
     33 H           3.2412    0.7955   -1.0555 H       1  UNL1        0.1551
     34 H           3.4248   -1.7429   -3.3283 H       1  UNL1        0.0657
     35 H          -0.7164   -0.5811   -8.7015 H       1  UNL1        0.0625
     36 H           0.1032   -2.0308  -10.4175 H       1  UNL1        0.0636
     37 H           3.0748   -4.2794   -9.9655 H       1  UNL1        0.1551
     38 H           3.2276   -6.2170  -10.9785 H       1  UNL1        0.0625
     39 H           4.2299   -7.7204  -12.6571 H       1  UNL1        0.0618
     40 H           4.0238   -7.2268  -15.0771 H       1  UNL1        0.0618
     41 H           2.8245   -5.1883  -15.8324 H       1  UNL1        0.0618
     42 H           1.8395   -3.6553  -14.1756 H       1  UNL1        0.0625
     43 H           3.1653   -3.4856   -7.7303 H       1  UNL1        0.0657
     44 H          -0.5846    0.3240   -6.4435 H       1  UNL1        0.0631
     45 H          -0.3890    1.2872   -4.1900 H       1  UNL1        0.0625
     46 H           0.7851    1.4070   -2.0291 H       1  UNL1        0.0636
     47 H           4.4990   -3.2610    0.3304 H       1  UNL1        0.0625
     48 H           6.3198   -3.2619    1.9982 H       1  UNL1        0.0618
     49 H           6.9640   -1.1499    3.1344 H       1  UNL1        0.0618
     50 H           5.7720    0.9589    2.6086 H       1  UNL1        0.0618
     51 H           3.9422    0.9806    0.9585 H       1  UNL1        0.0625
@<TRIPOS>BOND
     1     2     1    2
     2     3     2   am
     3     3    33    1
     4     4     3    1
     5     5     4   ar
     6     5    34    1
     7     6     5   ar
     8     7     6   ar
     9     8     7   ar
    10     9     8   ar
    11    10     9   ar
    12    10    35    1
    13    11    10   ar
    14    11    36    1
    15    12    11   ar
    16    13    12    1
    17    13    37    1
    18    14    13   am
    19    15    14    2
    20    16    14    1
    21    17    16   ar
    22    17    38    1
    23    18    17   ar
    24    18    39    1
    25    19    18   ar
    26    19    40    1
    27    20    19   ar
    28    20    41    1
    29    21    20   ar
    30    21    16   ar
    31    21    42    1
    32    22    12   ar
    33    22     8   ar
    34    22    43    1
    35    23     9   ar
    36    23    44    1
    37    24    23   ar
    38    24     6   ar
    39    25    24   ar
    40    25    45    1
    41    26    25   ar
    42    26     4   ar
    43    26    46    1
    44    27     2    1
    45    28    27   ar
    46    28    47    1
    47    29    28   ar
    48    29    48    1
    49    30    29   ar
    50    30    49    1
    51    31    30   ar
    52    31    50    1
    53    32    31   ar
    54    32    27   ar
    55    32    51    1
