@<TRIPOS>MOLECULE
>19.sdf
 34 37 0 0 0
SMALL
GASTEIGER

@<TRIPOS>ATOM
      1 C           0.3664   -3.2148   -1.5391 C.3     1  UNL1        0.0000
      2 SE          0.1988   -2.2956    0.1797 Se      1  UNL1        0.0000
      3 SE         -2.0818   -1.6464   -0.1892 Se      1  UNL1        0.0000
      4 C          -2.7766   -3.4686   -0.0269 C.3     1  UNL1        0.0000
      5 N          -4.2382   -3.4789    0.0468 N.ar    1  UNL1        0.0000
      6 N          -4.9306   -4.0155    1.0482 N.ar    1  UNL1        0.0000
      7 N          -6.2416   -3.9117    0.8312 N.ar    1  UNL1        0.0000
      8 C          -6.3731   -3.2841   -0.3506 C.ar    1  UNL1        0.0000
      9 C          -7.5375   -2.9359   -1.0293 C.ar    1  UNL1        0.0000
     10 C          -7.3935   -2.2707   -2.2624 C.ar    1  UNL1        0.0000
     11 C          -6.1061   -1.9819   -2.7758 C.ar    1  UNL1        0.0000
     12 C          -4.9494   -2.3591   -2.0632 C.ar    1  UNL1        0.0000
     13 C          -5.1333   -3.0112   -0.8430 C.ar    1  UNL1        0.0000
     14 N           1.7563   -3.5732   -1.8203 N.ar    1  UNL1        0.0000
     15 N           2.4224   -3.1908   -2.9073 N.ar    1  UNL1        0.0000
     16 N           3.6549   -3.6980   -2.9145 N.ar    1  UNL1        0.0000
     17 C           3.7645   -4.4230   -1.7876 C.ar    1  UNL1        0.0000
     18 C           4.8532   -5.1565   -1.3243 C.ar    1  UNL1        0.0000
     19 C           4.7052   -5.8279   -0.0952 C.ar    1  UNL1        0.0000
     20 C           3.4865   -5.7519    0.6233 C.ar    1  UNL1        0.0000
     21 C           2.4016   -5.0065    0.1152 C.ar    1  UNL1        0.0000
     22 C           2.5907   -4.3502   -1.1024 C.ar    1  UNL1        0.0000
     23 H          -0.0061   -2.5498   -2.3485 H       1  UNL1        0.0000
     24 H          -0.2346   -4.1455   -1.5084 H       1  UNL1        0.0000
     25 H          -2.4691   -4.0508   -0.9165 H       1  UNL1        0.0000
     26 H          -2.3653   -3.9357    0.8948 H       1  UNL1        0.0000
     27 H          -8.5156   -3.1652   -0.6266 H       1  UNL1        0.0000
     28 H          -8.2737   -1.9785   -2.8209 H       1  UNL1        0.0000
     29 H          -6.0106   -1.4673   -3.7231 H       1  UNL1        0.0000
     30 H          -3.9640   -2.1421   -2.4517 H       1  UNL1        0.0000
     31 H           5.7780   -5.2087   -1.8846 H       1  UNL1        0.0000
     32 H           5.5291   -6.4051    0.3040 H       1  UNL1        0.0000
     33 H           3.3879   -6.2698    1.5671 H       1  UNL1        0.0000
     34 H           1.4689   -4.9476    0.6574 H       1  UNL1        0.0000
@<TRIPOS>BOND
     1     1    23    1
     2     1    24    1
     3     2     1    1
     4     3     2    1
     5     4     3    1
     6     4    25    1
     7     4    26    1
     8     5     4    1
     9     6     5   ar
    10     7     6   ar
    11     8     7   ar
    12     9     8   ar
    13     9    27    1
    14    10     9   ar
    15    10    28    1
    16    11    10   ar
    17    11    29    1
    18    12    11   ar
    19    12    30    1
    20    13    12   ar
    21    13     5   ar
    22    13     8   ar
    23    14     1    1
    24    15    14   ar
    25    16    15   ar
    26    17    16   ar
    27    18    17   ar
    28    18    31    1
    29    19    18   ar
    30    19    32    1
    31    20    19   ar
    32    20    33    1
    33    21    20   ar
    34    21    34    1
    35    22    21   ar
    36    22    14   ar
    37    22    17   ar
