@<TRIPOS>MOLECULE
>80.sdf
 44 46 0 0 0
SMALL
GASTEIGER

@<TRIPOS>ATOM
      1 C           2.8380    1.2049   -1.7072 C.3     1  UNL1       -0.0650
      2 C           2.4789    1.8803   -0.3912 C.3     1  UNL1       -0.0519
      3 C           3.1062    1.1992    0.8276 C.3     1  UNL1       -0.0278
      4 C           4.6168    1.2054    0.8429 C.ar    1  UNL1       -0.0431
      5 C           5.3196   -0.0103    0.8386 C.ar    1  UNL1       -0.0131
      6 C           6.7172   -0.0509    0.8843 C.ar    1  UNL1        0.1631
      7 O           7.2222   -1.3223    0.8744 O.3     1  UNL1       -0.4914
      8 C           8.6317   -1.5012    0.8623 C.3     1  UNL1        0.0790
      9 C           7.4068    1.1623    0.9426 C.ar    1  UNL1        0.1805
     10 O           8.8062    1.1607    1.0848 O.2     1  UNL1       -0.4179
     11 C           9.5121    2.3096    1.3947 C.ar    1  UNL1        0.3483
     12 O          10.6402    2.2385    1.8646 O.2     1  UNL1       -0.2444
     13 C           8.8559    3.5905    1.0660 C.ar    1  UNL1        0.1072
     14 C           7.5225    3.6221    0.8970 C.ar    1  UNL1       -0.0332
     15 C           6.7389    2.3912    0.9194 C.ar    1  UNL1        0.0222
     16 C           5.3393    2.4089    0.8761 C.ar    1  UNL1       -0.0476
     17 C           9.5933    4.8873    0.9750 C.2     1  UNL1        0.2000
     18 O           9.0150    5.9599    1.1410 O.2     1  UNL1       -0.2864
     19 C          11.0536    4.9065    0.6735 C.ar    1  UNL1        0.0229
     20 C          11.6633    3.9741   -0.1794 C.ar    1  UNL1       -0.0445
     21 C          13.0505    3.9838   -0.3628 C.ar    1  UNL1        0.0163
     22 C          13.8260    4.9664    0.2652 C.ar    1  UNL1        0.2732
     23 C          13.2199    5.9480    1.0596 C.ar    1  UNL1        0.0163
     24 C          11.8351    5.9144    1.2600 C.ar    1  UNL1       -0.0445
     25 N          15.2843    4.9643    0.0886 N.pl3   1  UNL1        0.0796
     26 O          15.7795    4.0618   -0.6019 O.co2   1  UNL1       -0.5760
     27 O          15.9328    5.8640    0.6405 O.2     1  UNL1        0.0414
     28 H           2.3307    1.7077   -2.5366 H       1  UNL1        0.0230
     29 H           3.9140    1.2491   -1.9005 H       1  UNL1        0.0230
     30 H           2.5296    0.1547   -1.7071 H       1  UNL1        0.0230
     31 H           2.7706    2.9354   -0.4342 H       1  UNL1        0.0266
     32 H           1.3885    1.8601   -0.2756 H       1  UNL1        0.0266
     33 H           2.7547    1.6949    1.7414 H       1  UNL1        0.0313
     34 H           2.7350    0.1664    0.8881 H       1  UNL1        0.0313
     35 H           4.7731   -0.9520    0.8073 H       1  UNL1        0.0658
     36 H           9.0868   -1.0375   -0.0194 H       1  UNL1        0.0660
     37 H           9.0820   -1.1415    1.7929 H       1  UNL1        0.0660
     38 H           8.8309   -2.5753    0.8025 H       1  UNL1        0.0660
     39 H           6.9962    4.5535    0.7043 H       1  UNL1        0.0634
     40 H           4.8060    3.3561    0.8783 H       1  UNL1        0.0627
     41 H          11.0845    3.2072   -0.6874 H       1  UNL1        0.0627
     42 H          13.5075    3.2141   -0.9825 H       1  UNL1        0.0685
     43 H          13.8059    6.7311    1.5373 H       1  UNL1        0.0685
     44 H          11.3686    6.6707    1.8906 H       1  UNL1        0.0627
@<TRIPOS>UNITY_ATOM_ATTR
25 1
charge 1
26 1
charge -1
@<TRIPOS>BOND
     1     1    28    1
     2     1    29    1
     3     1    30    1
     4     2     1    1
     5     2    31    1
     6     2    32    1
     7     3     2    1
     8     3    33    1
     9     3    34    1
    10     4     3    1
    11     5     4   ar
    12     5    35    1
    13     6     5   ar
    14     7     6    1
    15     8     7    1
    16     8    36    1
    17     8    37    1
    18     8    38    1
    19     9     6   ar
    20    10     9   ar
    21    11    10   ar
    22    12    11    2
    23    13    11   ar
    24    14    13   ar
    25    14    39    1
    26    15    14   ar
    27    15     9   ar
    28    16    15   ar
    29    16     4   ar
    30    16    40    1
    31    17    13    1
    32    18    17    2
    33    19    17    1
    34    20    19   ar
    35    20    41    1
    36    21    20   ar
    37    21    42    1
    38    22    21   ar
    39    23    22   ar
    40    23    43    1
    41    24    23   ar
    42    24    19   ar
    43    24    44    1
    44    25    22    1
    45    26    25    1
    46    27    25    2
