@<TRIPOS>MOLECULE
>30.sdf
 48 51 0 0 0
SMALL
GASTEIGER

@<TRIPOS>ATOM
      1 O           1.4482   -1.7475   -0.6478 O.3     1  UNL1       -0.5033
      2 C           0.2897   -1.0250   -0.6801 C.ar    1  UNL1        0.1582
      3 C          -0.1187   -0.3331   -1.8120 C.ar    1  UNL1       -0.0160
      4 C          -1.3216    0.3833   -1.7778 C.ar    1  UNL1       -0.0509
      5 C          -2.1213    0.3995   -0.6204 C.ar    1  UNL1       -0.0213
      6 C          -3.3668    1.1804   -0.6252 C.2     1  UNL1       -0.0525
      7 C          -4.4518    0.8702    0.1072 C.2     1  UNL1       -0.0357
      8 C          -5.6949    1.6529    0.1014 C.ar    1  UNL1        0.0647
      9 N          -5.7329    2.7497   -0.6876 N.ar    1  UNL1       -0.2436
     10 C          -6.8635    3.4806   -0.7526 C.ar    1  UNL1        0.1136
     11 C          -8.0035    3.1453    0.0052 C.ar    1  UNL1        0.0040
     12 C          -7.9374    2.0199    0.8347 C.ar    1  UNL1       -0.0504
     13 C          -6.7724    1.2621    0.8822 C.ar    1  UNL1       -0.0357
     14 C          -9.1654    3.9297   -0.0720 C.ar    1  UNL1       -0.0517
     15 C          -9.2094    5.0415   -0.9134 C.ar    1  UNL1       -0.0467
     16 C          -8.0980    5.3821   -1.6899 C.ar    1  UNL1        0.0658
     17 C          -8.2200    6.5841   -2.5622 C.2     1  UNL1        0.1968
     18 O          -8.9730    7.4932   -2.2169 O.2     1  UNL1       -0.2865
     19 C          -7.4454    6.7509   -3.8176 C.ar    1  UNL1        0.0245
     20 C          -7.1321    5.6659   -4.6429 C.ar    1  UNL1       -0.0207
     21 C          -6.2773    5.8623   -5.7342 C.ar    1  UNL1        0.1269
     22 C          -5.7985    7.1420   -6.0493 C.ar    1  UNL1       -0.0314
     23 C          -6.1761    8.2318   -5.2637 C.ar    1  UNL1       -0.0589
     24 C          -6.9944    8.0368   -4.1497 C.ar    1  UNL1       -0.0508
     25 N          -5.8424    4.7062   -6.5280 N.pl3   1  UNL1        0.0564
     26 O          -6.2821    3.5912   -6.2145 O.2     1  UNL1       -0.1261
     27 O          -5.0595    4.9144   -7.4659 O.2     1  UNL1       -0.1261
     28 C          -6.9291    4.6140   -1.5745 C.ar    1  UNL1        0.1535
     29 O          -5.7933    4.9607   -2.2698 O.3     1  UNL1       -0.5039
     30 C          -1.6766   -0.2879    0.5177 C.ar    1  UNL1       -0.0094
     31 C          -0.4867   -0.9967    0.4745 C.ar    1  UNL1        0.1588
     32 O          -0.0780   -1.6714    1.5894 O.3     1  UNL1       -0.5033
     33 H           1.8715   -1.6753   -1.5214 H       1  UNL1        0.2923
     34 H           0.4739   -0.3330   -2.7222 H       1  UNL1        0.0655
     35 H          -1.6382    0.9247   -2.6672 H       1  UNL1        0.0625
     36 H          -3.3832    2.0474   -1.2831 H       1  UNL1        0.0624
     37 H          -4.4566   -0.0093    0.7416 H       1  UNL1        0.0639
     38 H          -8.7887    1.7243    1.4445 H       1  UNL1        0.0625
     39 H          -6.7188    0.3842    1.5182 H       1  UNL1        0.0639
     40 H         -10.0435    3.6814    0.5211 H       1  UNL1        0.0624
     41 H         -10.1173    5.6420   -0.9592 H       1  UNL1        0.0626
     42 H          -7.5000    4.6705   -4.4034 H       1  UNL1        0.0647
     43 H          -5.1315    7.3035   -6.8942 H       1  UNL1        0.0640
     44 H          -5.8183    9.2303   -5.5060 H       1  UNL1        0.0618
     45 H          -7.2650    8.8884   -3.5261 H       1  UNL1        0.0625
     46 H          -5.4183    5.7438   -1.8314 H       1  UNL1        0.2923
     47 H          -2.2425   -0.2718    1.4449 H       1  UNL1        0.0661
     48 H           0.7701   -2.0853    1.3223 H       1  UNL1        0.2923
@<TRIPOS>BOND
     1     1    33    1
     2     2     1    1
     3     3     2   ar
     4     3    34    1
     5     4     3   ar
     6     4    35    1
     7     5     4   ar
     8     6     5    1
     9     6    36    1
    10     7     6    2
    11     7    37    1
    12     8     7    1
    13     9     8   ar
    14    10     9   ar
    15    11    10   ar
    16    12    11   ar
    17    12    38    1
    18    13    12   ar
    19    13     8   ar
    20    13    39    1
    21    14    11   ar
    22    14    40    1
    23    15    14   ar
    24    15    41    1
    25    16    15   ar
    26    17    16    1
    27    18    17    2
    28    19    17    1
    29    20    19   ar
    30    20    42    1
    31    21    20   ar
    32    22    21   ar
    33    22    43    1
    34    23    22   ar
    35    23    44    1
    36    24    23   ar
    37    24    19   ar
    38    24    45    1
    39    25    21    1
    40    26    25    2
    41    27    25    2
    42    28    16   ar
    43    28    10   ar
    44    29    28    1
    45    29    46    1
    46    30     5   ar
    47    30    47    1
    48    31    30   ar
    49    31     2   ar
    50    32    31    1
    51    32    48    1
