@<TRIPOS>MOLECULE
>138.sdf
 51 53 0 0 0
SMALL
GASTEIGER

@<TRIPOS>ATOM
      1 C          -5.4310   -4.9395    4.4323 C.3     1  UNL1       -0.0428
      2 N          -5.1843   -6.2042    3.6680 N.4     1  UNL1        0.2353
      3 C          -6.3793   -7.1219    3.6771 C.3     1  UNL1       -0.0317
      4 C          -6.0545   -8.1172    2.5905 C.3     1  UNL1       -0.0074
      5 C          -5.2483   -7.3488    1.5529 C.3     1  UNL1       -0.0048
      6 C          -4.8191   -6.0235    2.1938 C.3     1  UNL1       -0.0188
      7 C          -3.3270   -5.7103    2.0495 C.3     1  UNL1        0.0138
      8 C          -2.8550   -5.6045    0.5931 C.3     1  UNL1        0.0543
      9 O          -3.5859   -4.5703   -0.0536 O.3     1  UNL1       -0.3642
     10 C          -3.2776   -4.3002   -1.4624 C.3     1  UNL1        0.1165
     11 C          -1.7934   -3.8537   -1.5611 C.3     1  UNL1       -0.0274
     12 C          -4.1954   -3.1077   -1.8518 C.ar    1  UNL1       -0.0117
     13 C          -5.4193   -2.8912   -1.1828 C.ar    1  UNL1       -0.0555
     14 C          -6.2249   -1.7816   -1.4586 C.ar    1  UNL1       -0.0614
     15 C          -5.8288   -0.8548   -2.4150 C.ar    1  UNL1       -0.0617
     16 C          -4.6411   -1.0527   -3.1108 C.ar    1  UNL1       -0.0614
     17 C          -3.8427   -2.1729   -2.8456 C.ar    1  UNL1       -0.0555
     18 C          -3.5810   -5.5691   -2.2957 C.ar    1  UNL1       -0.0116
     19 C          -2.6089   -6.1824   -3.1130 C.ar    1  UNL1       -0.0541
     20 C          -2.8633   -7.4015   -3.7590 C.ar    1  UNL1       -0.0430
     21 C          -4.0950   -8.0186   -3.6072 C.ar    1  UNL1        0.0410
     22 CL         -4.3874   -9.5385   -4.3623 Cl      1  UNL1       -0.0835
     23 C          -5.0847   -7.4286   -2.8333 C.ar    1  UNL1       -0.0430
     24 C          -4.8351   -6.2082   -2.1941 C.ar    1  UNL1       -0.0541
     25 H          -5.7093   -5.2163    5.4522 H       1  UNL1        0.0778
     26 H          -4.5060   -4.3584    4.4440 H       1  UNL1        0.0778
     27 H          -6.2400   -4.3854    3.9490 H       1  UNL1        0.0778
     28 H          -4.4131   -6.7021    4.1337 H       1  UNL1        0.2033
     29 H          -6.4681   -7.5739    4.6691 H       1  UNL1        0.0814
     30 H          -7.2679   -6.5281    3.4375 H       1  UNL1        0.0814
     31 H          -5.4458   -8.9323    2.9999 H       1  UNL1        0.0319
     32 H          -6.9563   -8.5662    2.1634 H       1  UNL1        0.0319
     33 H          -4.3963   -7.9578    1.2326 H       1  UNL1        0.0322
     34 H          -5.8542   -7.1516    0.6620 H       1  UNL1        0.0322
     35 H          -5.4426   -5.2036    1.8161 H       1  UNL1        0.0852
     36 H          -3.1182   -4.7570    2.5503 H       1  UNL1        0.0342
     37 H          -2.7294   -6.4783    2.5555 H       1  UNL1        0.0342
     38 H          -1.7867   -5.3747    0.6035 H       1  UNL1        0.0562
     39 H          -2.9999   -6.5589    0.0807 H       1  UNL1        0.0562
     40 H          -1.1016   -4.6406   -1.2396 H       1  UNL1        0.0264
     41 H          -1.4963   -3.5962   -2.5831 H       1  UNL1        0.0264
     42 H          -1.5970   -2.9842   -0.9237 H       1  UNL1        0.0264
     43 H          -5.7541   -3.5826   -0.4153 H       1  UNL1        0.0621
     44 H          -7.1563   -1.6340   -0.9182 H       1  UNL1        0.0618
     45 H          -6.4432    0.0184   -2.6203 H       1  UNL1        0.0618
     46 H          -4.3283   -0.3267   -3.8589 H       1  UNL1        0.0618
     47 H          -2.9298   -2.2756   -3.4259 H       1  UNL1        0.0621
     48 H          -1.6248   -5.7496   -3.2571 H       1  UNL1        0.0622
     49 H          -2.0853   -7.8564   -4.3701 H       1  UNL1        0.0632
     50 H          -6.0527   -7.9072   -2.7250 H       1  UNL1        0.0632
     51 H          -5.6228   -5.7703   -1.5875 H       1  UNL1        0.0622
@<TRIPOS>UNITY_ATOM_ATTR
2 1
charge 1
@<TRIPOS>BOND
     1     1    25    1
     2     1    26    1
     3     1    27    1
     4     2     1    1
     5     2    28    1
     6     3     2    1
     7     3    29    1
     8     3    30    1
     9     4     3    1
    10     4    31    1
    11     4    32    1
    12     5     4    1
    13     5    33    1
    14     5    34    1
    15     6     5    1
    16     6     2    1
    17     6    35    1
    18     7     6    1
    19     7    36    1
    20     7    37    1
    21     8     7    1
    22     8    38    1
    23     8    39    1
    24     9     8    1
    25    11    40    1
    26    11    41    1
    27    11    42    1
    28    12    10    1
    29    13    12   ar
    30    13    43    1
    31    14    13   ar
    32    14    44    1
    33    15    14   ar
    34    15    45    1
    35    16    15   ar
    36    16    46    1
    37    17    16   ar
    38    17    12   ar
    39    17    47    1
    40    18    10    1
    41    19    18   ar
    42    19    48    1
    43    20    19   ar
    44    20    49    1
    45    21    20   ar
    46    22    21    1
    47    23    21   ar
    48    23    50    1
    49    24    23   ar
    50    24    18   ar
    51    24    51    1
    52    10    11    1
    53    10     9    1
