@<TRIPOS>MOLECULE
>11.sdf
 75 78 0 0 0
SMALL
GASTEIGER

@<TRIPOS>ATOM
      1 C           7.7147    7.8298    8.9066 C.3     1  UNL1       -0.0653
      2 C           9.0123    7.8020    8.1159 C.3     1  UNL1       -0.0559
      3 C           8.7452    7.7755    6.6140 C.3     1  UNL1       -0.0533
      4 C          10.0487    7.7344    5.8177 C.3     1  UNL1       -0.0530
      5 C           9.7564    7.6954    4.3240 C.3     1  UNL1       -0.0516
      6 C          11.0373    7.6514    3.4966 C.3     1  UNL1       -0.0375
      7 C          10.6692    7.6536    2.0224 C.3     1  UNL1        0.0091
      8 N          11.8697    7.5456    1.2048 N.pl3   1  UNL1       -0.3438
      9 C          11.6579    7.5649   -0.1871 C.ar    1  UNL1        0.0272
     10 C          10.5228    8.1253   -0.7810 C.ar    1  UNL1       -0.0391
     11 C          10.4541    8.2835   -2.1556 C.ar    1  UNL1       -0.0388
     12 C          11.5312    7.9098   -2.9663 C.ar    1  UNL1        0.0314
     13 N          11.5586    8.1549   -4.3360 N.pl3   1  UNL1       -0.3135
     14 C          10.6889    9.0013   -5.0507 C.ar    1  UNL1        0.0469
     15 C          10.4182   10.3225   -4.6942 C.ar    1  UNL1        0.0040
     16 C          11.0556   11.1341   -3.7051 C.ar    1  UNL1       -0.0505
     17 C          10.5313   12.4000   -3.4150 C.ar    1  UNL1       -0.0400
     18 C           9.3256   12.7706   -4.0119 C.ar    1  UNL1        0.0298
     19 C           8.5955   11.7385   -4.5756 C.ar    1  UNL1       -0.0329
     20 C           9.3159   10.8535   -5.3451 C.ar    1  UNL1       -0.0138
     21 C           8.9062   10.4130   -6.6463 C.ar    1  UNL1       -0.0461
     22 C           9.3649    9.1644   -7.1377 C.ar    1  UNL1       -0.0138
     23 C           9.9380    8.4457   -6.1109 C.ar    1  UNL1        0.0040
     24 C           9.7086    7.1170   -6.1389 C.ar    1  UNL1       -0.0505
     25 C          10.3277    6.6454   -7.2390 C.ar    1  UNL1       -0.0400
     26 C           9.9532    7.1371   -8.4831 C.ar    1  UNL1        0.0298
     27 C           9.3612    8.4328   -8.4212 C.ar    1  UNL1       -0.0329
     28 N          10.3139    6.3776   -9.5963 N.pl3   1  UNL1       -0.3360
     29 C           9.4152    6.2832  -10.7380 C.3     1  UNL1        0.0004
     30 C          10.9331    5.0587   -9.2696 C.3     1  UNL1        0.0004
     31 N           8.8285   14.0733   -4.1195 N.pl3   1  UNL1       -0.3360
     32 C           9.8693   15.0806   -4.3259 C.3     1  UNL1        0.0004
     33 C           7.6492   14.2328   -4.9975 C.3     1  UNL1        0.0004
     34 C          12.6350    7.2891   -2.3799 C.ar    1  UNL1       -0.0388
     35 C          12.7212    7.1328   -0.9984 C.ar    1  UNL1       -0.0391
     36 H           7.9262    7.8466    9.9800 H       1  UNL1        0.0230
     37 H           7.1248    8.7188    8.6614 H       1  UNL1        0.0230
     38 H           7.1067    6.9447    8.6933 H       1  UNL1        0.0230
     39 H           9.6110    8.6837    8.3717 H       1  UNL1        0.0263
     40 H           9.5928    6.9186    8.4057 H       1  UNL1        0.0263
     41 H           8.1347    6.8992    6.3632 H       1  UNL1        0.0265
     42 H           8.1670    8.6625    6.3263 H       1  UNL1        0.0265
     43 H          10.6562    8.6169    6.0514 H       1  UNL1        0.0265
     44 H          10.6324    6.8508    6.1013 H       1  UNL1        0.0265
     45 H           9.1429    6.8161    4.0901 H       1  UNL1        0.0266
     46 H           9.1682    8.5782    4.0419 H       1  UNL1        0.0266
     47 H          11.6648    8.5233    3.7208 H       1  UNL1        0.0280
     48 H          11.6250    6.7590    3.7413 H       1  UNL1        0.0280
     49 H          10.0079    6.8070    1.8022 H       1  UNL1        0.0461
     50 H          10.1314    8.5864    1.8168 H       1  UNL1        0.0461
     51 H          12.5283    8.2947    1.4228 H       1  UNL1        0.1461
     52 H           9.6740    8.4725   -0.2043 H       1  UNL1        0.0637
     53 H           9.5567    8.7163   -2.5858 H       1  UNL1        0.0637
     54 H          11.6517    7.2598   -4.8119 H       1  UNL1        0.1522
     55 H          11.9815   10.8032   -3.2375 H       1  UNL1        0.0625
     56 H          11.0765   13.0730   -2.7614 H       1  UNL1        0.0636
     57 H           8.1149   11.1773   -3.7280 H       1  UNL1        0.0642
     58 H           8.2107   11.0330   -7.2110 H       1  UNL1        0.0630
     59 H           8.5989    6.9522   -6.2233 H       1  UNL1        0.0625
     60 H          11.3132    6.2056   -7.1200 H       1  UNL1        0.0636
     61 H           9.0523    8.9630   -9.3227 H       1  UNL1        0.0642
     62 H           9.9938    5.9531  -11.6118 H       1  UNL1        0.0428
     63 H           8.6515    5.5159  -10.5578 H       1  UNL1        0.0428
     64 H           8.9323    7.2241  -11.0003 H       1  UNL1        0.0428
     65 H          12.0002    5.1855   -9.0493 H       1  UNL1        0.0428
     66 H          10.4426    4.5644   -8.4163 H       1  UNL1        0.0428
     67 H          10.8459    4.3432  -10.0914 H       1  UNL1        0.0428
     68 H          10.5258   14.8097   -5.1640 H       1  UNL1        0.0428
     69 H           9.4159   16.0480   -4.5631 H       1  UNL1        0.0428
     70 H          10.4719   15.2184   -3.4243 H       1  UNL1        0.0428
     71 H           7.2103   13.3081   -5.3927 H       1  UNL1        0.0428
     72 H           6.8528   14.7194   -4.4308 H       1  UNL1        0.0428
     73 H           7.8881   14.8356   -5.8804 H       1  UNL1        0.0428
     74 H          13.4592    6.9537   -3.0027 H       1  UNL1        0.0637
     75 H          13.5840    6.6732   -0.5619 H       1  UNL1        0.0637
@<TRIPOS>BOND
     1     1    36    1
     2     1    37    1
     3     1    38    1
     4     2     1    1
     5     2    39    1
     6     2    40    1
     7     3     2    1
     8     3    41    1
     9     3    42    1
    10     4     3    1
    11     4    43    1
    12     4    44    1
    13     5     4    1
    14     5    45    1
    15     5    46    1
    16     6     5    1
    17     6    47    1
    18     6    48    1
    19     7     6    1
    20     7    49    1
    21     7    50    1
    22     8     7    1
    23     8    51    1
    24     9     8    1
    25    10     9   ar
    26    10    52    1
    27    11    10   ar
    28    11    53    1
    29    12    11   ar
    30    13    12    1
    31    13    54    1
    32    14    13    1
    33    15    14   ar
    34    16    15   ar
    35    16    55    1
    36    17    16   ar
    37    17    56    1
    38    18    17   ar
    39    19    18   ar
    40    19    57    1
    41    20    19   ar
    42    20    15   ar
    43    21    20   ar
    44    21    58    1
    45    22    21   ar
    46    23    22   ar
    47    23    14   ar
    48    24    23   ar
    49    24    59    1
    50    25    24   ar
    51    25    60    1
    52    26    25   ar
    53    27    26   ar
    54    27    22   ar
    55    27    61    1
    56    28    26    1
    57    29    28    1
    58    29    62    1
    59    29    63    1
    60    29    64    1
    61    30    28    1
    62    30    65    1
    63    30    66    1
    64    30    67    1
    65    31    18    1
    66    32    31    1
    67    32    68    1
    68    32    69    1
    69    32    70    1
    70    33    31    1
    71    33    71    1
    72    33    72    1
    73    33    73    1
    74    34    12   ar
    75    34    74    1
    76    35    34   ar
    77    35     9   ar
    78    35    75    1
