@<TRIPOS>MOLECULE
>165.sdf
 55 58 0 0 0
SMALL
GASTEIGER

@<TRIPOS>ATOM
      1 C           4.2752    5.6246   -3.8632 C.3     1  UNL1        0.0368
      2 O           5.2350    6.3699   -3.1400 O.3     1  UNL1       -0.3798
      3 C           5.2962    6.2045   -1.7204 C.3     1  UNL1        0.0585
      4 C           3.9977    6.5434   -0.9824 C.3     1  UNL1       -0.0249
      5 C           3.0449    5.3670   -0.8000 C.3     1  UNL1       -0.0322
      6 C           3.7220    4.1030   -0.2799 C.3     1  UNL1        0.0236
      7 C           4.9694    3.7217   -1.0798 C.3     1  UNL1       -0.0322
      8 C           5.9391    4.8783   -1.3029 C.3     1  UNL1       -0.0249
      9 N           4.0002    4.1793    1.1429 N.am    1  UNL1       -0.3071
     10 C           4.0362    3.0268    1.8987 C.2     1  UNL1        0.2663
     11 O           3.9149    1.9019    1.4143 O.2     1  UNL1       -0.2684
     12 C           4.1827    3.1902    3.3746 C.ar    1  UNL1        0.1694
     13 C           4.2210    2.0499    4.1691 C.ar    1  UNL1        0.1735
     14 O           4.2474    0.7728    3.6461 O.3     1  UNL1       -0.5028
     15 C           4.1814    2.1937    5.5459 C.ar    1  UNL1        0.1166
     16 C           4.1454    3.4939    6.0953 C.ar    1  UNL1        0.0301
     17 C           4.1022    3.5395    7.5184 C.ar    1  UNL1       -0.0490
     18 C           3.9802    2.3827    8.2850 C.ar    1  UNL1       -0.0429
     19 C           3.9945    1.1751    7.6359 C.ar    1  UNL1        0.0284
     20 N           4.1238    1.0753    6.3018 N.ar    1  UNL1       -0.2512
     21 C           4.1127    4.6212    5.1960 C.ar    1  UNL1        0.0847
     22 N           4.1374    4.4637    3.8467 N.ar    1  UNL1       -0.2376
     23 C           3.8543    6.0290    5.6486 C.ar    1  UNL1        0.0426
     24 C           4.4851    7.1855    5.1189 C.ar    1  UNL1        0.1293
     25 O           5.3815    7.0442    4.0832 O.3     1  UNL1       -0.4945
     26 C           5.4655    8.1603    3.1937 C.3     1  UNL1        0.0788
     27 C           4.2182    8.4506    5.6811 C.ar    1  UNL1       -0.0193
     28 C           3.3086    8.6031    6.7251 C.ar    1  UNL1       -0.0583
     29 C           2.6225    7.5014    7.1988 C.ar    1  UNL1       -0.0609
     30 C           2.8724    6.2465    6.6431 C.ar    1  UNL1       -0.0490
     31 H           4.3461    4.5569   -3.6616 H       1  UNL1        0.0524
     32 H           3.2671    5.9939   -3.6642 H       1  UNL1        0.0524
     33 H           4.4719    5.7671   -4.9299 H       1  UNL1        0.0524
     34 H           6.0130    6.9831   -1.4278 H       1  UNL1        0.0596
     35 H           4.2570    6.9198    0.0158 H       1  UNL1        0.0291
     36 H           3.4695    7.3540   -1.4980 H       1  UNL1        0.0291
     37 H           2.2339    5.6648   -0.1231 H       1  UNL1        0.0284
     38 H           2.5646    5.1330   -1.7557 H       1  UNL1        0.0284
     39 H           2.9985    3.2854   -0.4023 H       1  UNL1        0.0498
     40 H           5.5108    2.9056   -0.5838 H       1  UNL1        0.0284
     41 H           4.6553    3.3110   -2.0441 H       1  UNL1        0.0284
     42 H           6.6863    4.5739   -2.0459 H       1  UNL1        0.0291
     43 H           6.4785    5.0426   -0.3611 H       1  UNL1        0.0291
     44 H           4.1738    5.0592    1.6266 H       1  UNL1        0.1493
     45 H           4.1081    0.8189    2.6741 H       1  UNL1        0.2923
     46 H           4.1350    4.4866    8.0494 H       1  UNL1        0.0625
     47 H           3.8579    2.4288    9.3630 H       1  UNL1        0.0633
     48 H           3.8937    0.2341    8.1657 H       1  UNL1        0.0830
     49 H           4.4740    8.4554    2.8256 H       1  UNL1        0.0660
     50 H           5.9744    9.0127    3.6612 H       1  UNL1        0.0660
     51 H           6.0676    7.8697    2.3292 H       1  UNL1        0.0660
     52 H           4.7222    9.3465    5.3317 H       1  UNL1        0.0654
     53 H           3.1283    9.5851    7.1555 H       1  UNL1        0.0619
     54 H           1.8980    7.6059    8.0006 H       1  UNL1        0.0618
     55 H           2.2778    5.4141    7.0153 H       1  UNL1        0.0625
@<TRIPOS>BOND
     1     1    31    1
     2     1    32    1
     3     1    33    1
     4     2     1    1
     5     4     3    1
     6     4    35    1
     7     4    36    1
     8     5     4    1
     9     5    37    1
    10     5    38    1
    11     6     5    1
    12     7     6    1
    13     7    40    1
    14     7    41    1
    15     8     7    1
    16     8     3    1
    17     8    42    1
    18     8    43    1
    19     9    44    1
    20    10     9   am
    21    11    10    2
    22    12    10    1
    23    13    12   ar
    24    14    13    1
    25    14    45    1
    26    15    13   ar
    27    16    15   ar
    28    17    16   ar
    29    17    46    1
    30    18    17   ar
    31    18    47    1
    32    19    18   ar
    33    19    48    1
    34    20    19   ar
    35    20    15   ar
    36    21    16   ar
    37    22    21   ar
    38    22    12   ar
    39    23    21    1
    40    24    23   ar
    41    25    24    1
    42    26    25    1
    43    26    49    1
    44    26    50    1
    45    26    51    1
    46    27    24   ar
    47    27    52    1
    48    28    27   ar
    49    28    53    1
    50    29    28   ar
    51    29    54    1
    52    30    29   ar
    53    30    23   ar
    54    30    55    1
    55     3    34    1
    56     3     2    1
    57     6     9    1
    58     6    39    1
