@<TRIPOS>MOLECULE
>68.sdf
 53 57 0 0 0
SMALL
GASTEIGER

@<TRIPOS>ATOM
      1 C           6.1405    4.1100    0.3652 C.3     1  UNL1       -0.0470
      2 C           5.0522    3.8903    1.4098 C.3     1  UNL1        0.0244
      3 N           4.0068    2.9473    1.0057 N.ar    1  UNL1       -0.3020
      4 C           4.0701    1.5823    1.1597 C.ar    1  UNL1        0.0904
      5 S           2.5424    0.8399    0.8170 S.2     1  UNL1       -0.0659
      6 C           1.9679    2.2480    0.0107 C.ar    1  UNL1        0.0786
      7 C           0.9272    2.2270   -0.8154 C.2     1  UNL1       -0.0404
      8 C           0.1271    1.0013   -1.0243 C.2     1  UNL1       -0.0323
      9 C          -0.0665    0.3039   -2.1526 C.2     1  UNL1        0.0726
     10 S           0.5204    0.9100   -3.7207 S.3     1  UNL1       -0.0721
     11 C          -0.1872   -0.5388   -4.5018 C.ar    1  UNL1        0.0354
     12 C          -0.7612   -1.4273   -3.5549 C.ar    1  UNL1        0.0507
     13 C          -1.3225   -2.6130   -4.0151 C.ar    1  UNL1       -0.0040
     14 C          -1.3221   -2.8788   -5.3849 C.ar    1  UNL1        0.1252
     15 F          -1.8663   -4.0229   -5.8249 F       1  UNL1       -0.2054
     16 C          -0.7712   -1.9861   -6.3092 C.ar    1  UNL1       -0.0253
     17 C          -0.1832   -0.7998   -5.8686 C.ar    1  UNL1       -0.0434
     18 N          -0.6876   -0.9587   -2.2315 N.pl3   1  UNL1       -0.2968
     19 C          -1.1792   -1.7419   -1.1074 C.3     1  UNL1        0.0063
     20 C           2.8773    3.4105    0.3053 C.ar    1  UNL1        0.2659
     21 O           2.6623    4.5584   -0.0654 O.2     1  UNL1       -0.2665
     22 C           5.1654    0.8465    1.4401 C.2     1  UNL1        0.0476
     23 C           5.1717   -0.5135    1.0188 C.ar    1  UNL1        0.2502
     24 N           5.4359   -0.8779   -0.2224 N.ar    1  UNL1       -0.1871
     25 C           6.3442   -0.1763   -1.1238 C.3     1  UNL1        0.1421
     26 C           4.9329   -2.1112   -0.5778 C.ar    1  UNL1        0.2251
     27 C           4.9651   -2.6514   -1.8677 C.ar    1  UNL1        0.0461
     28 C           5.5855   -3.8852   -1.8919 C.ar    1  UNL1        0.1297
     29 F           6.3183   -4.2000   -2.9645 F       1  UNL1       -0.2053
     30 C           5.5498   -4.7244   -0.7863 C.ar    1  UNL1       -0.0250
     31 C           4.9719   -4.3023    0.4243 C.ar    1  UNL1       -0.0387
     32 C           4.8178   -2.9181    0.5462 C.ar    1  UNL1        0.0895
     33 S           4.6174   -1.8799    1.9217 S.2     1  UNL1       -0.0144
     34 H           6.9136    4.7773    0.7646 H       1  UNL1        0.0247
     35 H           6.6277    3.1731    0.0800 H       1  UNL1        0.0247
     36 H           5.7368    4.5699   -0.5417 H       1  UNL1        0.0247
     37 H           5.4997    3.5380    2.3463 H       1  UNL1        0.0490
     38 H           4.5864    4.8592    1.6309 H       1  UNL1        0.0490
     39 H           0.6237    3.1148   -1.3772 H       1  UNL1        0.0631
     40 H          -0.2534    0.5868   -0.0913 H       1  UNL1        0.0642
     41 H          -1.7759   -3.3459   -3.3606 H       1  UNL1        0.0665
     42 H          -0.8090   -2.2293   -7.3673 H       1  UNL1        0.0646
     43 H           0.2343   -0.0940   -6.5768 H       1  UNL1        0.0630
     44 H          -0.3562   -1.9710   -0.4204 H       1  UNL1        0.0432
     45 H          -1.9423   -1.1814   -0.5580 H       1  UNL1        0.0432
     46 H          -1.6270   -2.6987   -1.3872 H       1  UNL1        0.0432
     47 H           6.1180    1.3069    1.6661 H       1  UNL1        0.0716
     48 H           7.2594   -0.7815   -1.1946 H       1  UNL1        0.0994
     49 H           5.9071   -0.0727   -2.1188 H       1  UNL1        0.0994
     50 H           6.6296    0.8061   -0.7463 H       1  UNL1        0.0994
     51 H           3.9983   -2.6565   -2.4022 H       1  UNL1        0.0713
     52 H           6.0103   -5.7055   -0.8676 H       1  UNL1        0.0646
     53 H           4.9140   -4.9683    1.2789 H       1  UNL1        0.0632
@<TRIPOS>UNITY_ATOM_ATTR
24 1
charge 1
@<TRIPOS>BOND
     1     1    34    1
     2     1    35    1
     3     1    36    1
     4     2     1    1
     5     2    37    1
     6     2    38    1
     7     3     2    1
     8     4     3   ar
     9     5     4   ar
    10     6     5   ar
    11     7     6    2
    12     7    39    1
    13     8     7    1
    14     8    40    1
    15     9     8    2
    16    10     9    1
    17    11    10    1
    18    12    11   ar
    19    13    12   ar
    20    13    41    1
    21    14    13   ar
    22    15    14    1
    23    16    14   ar
    24    16    42    1
    25    17    16   ar
    26    17    11   ar
    27    17    43    1
    28    18    12    1
    29    18     9    1
    30    19    18    1
    31    19    44    1
    32    19    45    1
    33    19    46    1
    34    20     6   ar
    35    20     3   ar
    36    21    20    2
    37    22     4    2
    38    22    47    1
    39    23    22    1
    40    24    23   ar
    41    25    24    1
    42    25    48    1
    43    25    49    1
    44    25    50    1
    45    26    24   ar
    46    27    26   ar
    47    27    51    1
    48    28    27   ar
    49    29    28    1
    50    30    28   ar
    51    30    52    1
    52    31    30   ar
    53    31    53    1
    54    32    31   ar
    55    32    26   ar
    56    33    32   ar
    57    33    23   ar
