@<TRIPOS>MOLECULE
>119.sdf
 43 46 0 0 0
SMALL
GASTEIGER

@<TRIPOS>ATOM
      1 C           1.0143    0.3945    0.3648 C.3     1  UNL1        0.0788
      2 O           2.3559    0.6548    0.7683 O.3     1  UNL1       -0.4951
      3 C           2.9900   -0.3585    1.4329 C.ar    1  UNL1        0.1201
      4 C           2.3616   -1.4308    2.0609 C.ar    1  UNL1       -0.0194
      5 C           3.1213   -2.4893    2.5718 C.ar    1  UNL1       -0.0503
      6 C           4.5092   -2.5246    2.3631 C.ar    1  UNL1       -0.0090
      7 C           5.1431   -1.3648    1.8974 C.ar    1  UNL1       -0.0503
      8 C           4.3840   -0.2846    1.4377 C.ar    1  UNL1       -0.0194
      9 C           5.2715   -3.8170    2.2401 C.ar    1  UNL1        0.0883
     10 C           5.4561   -4.2089    0.9499 C.ar    1  UNL1        0.0568
     11 N           6.4623   -5.0445    0.4757 N.pl3   1  UNL1       -0.3133
     12 C           7.1357   -4.7693   -0.7513 C.ar    1  UNL1        0.0315
     13 C           7.2766   -3.4692   -1.2600 C.ar    1  UNL1       -0.0378
     14 C           8.0045   -3.2350   -2.4298 C.ar    1  UNL1       -0.0247
     15 C           8.6041   -4.3009   -3.0889 C.ar    1  UNL1        0.1235
     16 F           9.3046   -4.0773   -4.2060 F       1  UNL1       -0.2055
     17 C           8.4949   -5.5930   -2.5908 C.ar    1  UNL1       -0.0247
     18 C           7.7758   -5.8251   -1.4158 C.ar    1  UNL1       -0.0378
     19 C           4.1200   -4.5218    0.3761 C.ar    1  UNL1        0.0393
     20 C           3.3048   -5.3379    1.1832 C.ar    1  UNL1        0.1409
     21 O           3.8224   -5.7918    2.4227 O.2     1  UNL1       -0.4216
     22 C           4.8305   -5.0151    3.0250 C.ar    1  UNL1        0.3469
     23 O           5.3072   -5.2848    4.1171 O.2     1  UNL1       -0.2444
     24 C           1.9440   -5.4965    0.9439 C.ar    1  UNL1       -0.0186
     25 C           1.3698   -4.7608   -0.0918 C.ar    1  UNL1       -0.0582
     26 C           2.1610   -3.9302   -0.8987 C.ar    1  UNL1       -0.0609
     27 C           3.5414   -3.8237   -0.6858 C.ar    1  UNL1       -0.0493
     28 H           0.9183   -0.5659   -0.1565 H       1  UNL1        0.0660
     29 H           0.3421    0.4415    1.2266 H       1  UNL1        0.0660
     30 H           0.7156    1.1785   -0.3381 H       1  UNL1        0.0660
     31 H           1.2806   -1.5136    2.1035 H       1  UNL1        0.0654
     32 H           2.5869   -3.3450    2.9745 H       1  UNL1        0.0625
     33 H           6.2251   -1.3335    1.7811 H       1  UNL1        0.0625
     34 H           4.8806    0.5750    0.9997 H       1  UNL1        0.0654
     35 H           7.1818   -5.1994    1.1857 H       1  UNL1        0.1522
     36 H           6.8381   -2.6194   -0.7420 H       1  UNL1        0.0637
     37 H           8.1113   -2.2259   -2.8212 H       1  UNL1        0.0647
     38 H           8.9756   -6.4127   -3.1146 H       1  UNL1        0.0647
     39 H           7.6923   -6.8379   -1.0281 H       1  UNL1        0.0637
     40 H           1.3309   -6.0911    1.6128 H       1  UNL1        0.0654
     41 H           0.2928   -4.7921   -0.2405 H       1  UNL1        0.0619
     42 H           1.6887   -3.3195   -1.6649 H       1  UNL1        0.0618
     43 H           4.1268   -3.1213   -1.2697 H       1  UNL1        0.0625
@<TRIPOS>BOND
     1     1    28    1
     2     1    29    1
     3     1    30    1
     4     2     1    1
     5     3     2    1
     6     4     3   ar
     7     4    31    1
     8     5     4   ar
     9     5    32    1
    10     6     5   ar
    11     7     6   ar
    12     7    33    1
    13     8     7   ar
    14     8     3   ar
    15     8    34    1
    16     9     6    1
    17    10     9   ar
    18    11    10    1
    19    11    35    1
    20    12    11    1
    21    13    12   ar
    22    13    36    1
    23    14    13   ar
    24    14    37    1
    25    15    14   ar
    26    16    15    1
    27    17    15   ar
    28    17    38    1
    29    18    17   ar
    30    18    12   ar
    31    18    39    1
    32    19    10   ar
    33    20    19   ar
    34    21    20   ar
    35    22    21   ar
    36    22     9   ar
    37    23    22    2
    38    24    20   ar
    39    24    40    1
    40    25    24   ar
    41    25    41    1
    42    26    25   ar
    43    26    42    1
    44    27    26   ar
    45    27    19   ar
    46    27    43    1
