@<TRIPOS>MOLECULE
>23.sdf
 20 21 0 0 0
SMALL
GASTEIGER

@<TRIPOS>ATOM
      1 BR          0.9684   -0.1286    0.0497 Br      1  UNL1       -0.0447
      2 C           2.8346   -0.1194   -0.0002 C.ar    1  UNL1        0.0827
      3 C           3.5430   -1.2580   -0.0412 C.ar    1  UNL1       -0.0333
      4 C           5.0066   -1.2392   -0.0870 C.ar    1  UNL1        0.0018
      5 C           5.6910   -0.0111   -0.0443 C.ar    1  UNL1        0.0797
      6 N           4.9145    1.1629    0.0099 N.ar    1  UNL1       -0.3194
      7 C           3.5428    1.2001    0.0090 C.ar    1  UNL1        0.2633
      8 O           2.9480    2.2731    0.0164 O.2     1  UNL1       -0.2667
      9 C           7.0986   -0.0091   -0.0725 C.ar    1  UNL1        0.1500
     10 C           7.8048   -1.2222   -0.1701 C.ar    1  UNL1       -0.0294
     11 C           7.1131   -2.4319   -0.2254 C.ar    1  UNL1       -0.0589
     12 C           5.7202   -2.4412   -0.1757 C.ar    1  UNL1       -0.0525
     13 N           7.8774    1.2363    0.0023 N.pl3   1  UNL1        0.0585
     14 O           7.2622    2.3076    0.1063 O.2     1  UNL1       -0.1261
     15 O           9.1128    1.1465   -0.0386 O.2     1  UNL1       -0.1261
     16 H           3.0445   -2.2219   -0.0403 H       1  UNL1        0.0637
     17 H           5.3760    2.0719    0.0297 H       1  UNL1        0.1690
     18 H           8.8933   -1.2432   -0.2062 H       1  UNL1        0.0641
     19 H           7.6608   -3.3693   -0.3051 H       1  UNL1        0.0618
     20 H           5.1977   -3.3957   -0.2127 H       1  UNL1        0.0624
@<TRIPOS>BOND
     1     2     1    1
     2     3     2   ar
     3     3    16    1
     4     4     3   ar
     5     5     4   ar
     6     6     5   ar
     7     6    17    1
     8     7     6   ar
     9     7     2   ar
    10     8     7    2
    11     9     5   ar
    12    10     9   ar
    13    10    18    1
    14    11    10   ar
    15    11    19    1
    16    12    11   ar
    17    12     4   ar
    18    12    20    1
    19    13     9    1
    20    14    13    2
    21    15    13    2
