@<TRIPOS>MOLECULE
>179.sdf
 38 40 0 0 0
SMALL
GASTEIGER

@<TRIPOS>ATOM
      1 BR         12.0932    6.2411   -0.1766 Br      1  UNL1       -0.0503
      2 C          10.8795    4.7923   -0.1028 C.ar    1  UNL1        0.0179
      3 C          11.2548    3.6034    0.5249 C.ar    1  UNL1       -0.0471
      4 C          10.3599    2.5285    0.5806 C.ar    1  UNL1       -0.0502
      5 C           9.0853    2.6474    0.0133 C.ar    1  UNL1        0.0183
      6 C           8.7182    3.8536   -0.6052 C.ar    1  UNL1       -0.0502
      7 C           9.6149    4.9222   -0.6708 C.ar    1  UNL1       -0.0471
      8 C           8.0739    1.5474    0.0648 C.2     1  UNL1        0.1733
      9 O           6.8867    1.8671    0.0324 O.2     1  UNL1       -0.2912
     10 C           8.5742    0.1085    0.1149 C.3     1  UNL1        0.0633
     11 S           7.1917   -1.0789    0.1045 S.3     1  UNL1       -0.0890
     12 C           8.0428   -2.6042    0.1688 C.ar    1  UNL1        0.1606
     13 N           9.3538   -2.6889    0.1570 N.ar    1  UNL1       -0.1329
     14 N           9.7848   -3.9996    0.2327 N.ar    1  UNL1       -0.1205
     15 C           8.7942   -4.8728    0.3032 C.ar    1  UNL1        0.2159
     16 S           7.2383   -4.1127    0.2577 S.2     1  UNL1       -0.0200
     17 N           8.8490   -6.2307    0.4184 N.2     1  UNL1       -0.2281
     18 C          10.0389   -6.7357    0.4819 C.2     1  UNL1        0.0376
     19 C          10.2661   -8.1911    0.6441 C.ar    1  UNL1       -0.0067
     20 C           9.1937   -9.0872    0.7264 C.ar    1  UNL1       -0.0510
     21 C           9.4344  -10.4550    0.9005 C.ar    1  UNL1       -0.0309
     22 C          10.7538  -10.9205    0.9922 C.ar    1  UNL1        0.1262
     23 C          11.8308  -10.0265    0.9075 C.ar    1  UNL1       -0.0309
     24 C          11.5832   -8.6601    0.7326 C.ar    1  UNL1       -0.0510
     25 N          11.0105  -12.3551    1.1826 N.pl3   1  UNL1        0.0564
     26 O          10.0320  -13.1117    1.2526 O.2     1  UNL1       -0.1261
     27 O          12.1917  -12.7223    1.2628 O.2     1  UNL1       -0.1261
     28 H          12.2376    3.5125    0.9809 H       1  UNL1        0.0629
     29 H          10.6749    1.6263    1.0963 H       1  UNL1        0.0625
     30 H           7.7267    3.9660   -1.0419 H       1  UNL1        0.0625
     31 H           9.3150    5.8471   -1.1566 H       1  UNL1        0.0629
     32 H           9.1991   -0.0689   -0.7661 H       1  UNL1        0.0462
     33 H           9.1514   -0.0433    1.0304 H       1  UNL1        0.0462
     34 H          10.9535   -6.1147    0.4287 H       1  UNL1        0.0836
     35 H           8.1680   -8.7290    0.6603 H       1  UNL1        0.0625
     36 H           8.5888  -11.1376    0.9655 H       1  UNL1        0.0640
     37 H          12.8600  -10.3749    0.9792 H       1  UNL1        0.0640
     38 H          12.4250   -7.9733    0.6723 H       1  UNL1        0.0625
@<TRIPOS>BOND
     1     2     1    1
     2     3     2   ar
     3     3    28    1
     4     4     3   ar
     5     4    29    1
     6     5     4   ar
     7     6     5   ar
     8     6    30    1
     9     7     6   ar
    10     7     2   ar
    11     7    31    1
    12     8     5    1
    13     9     8    2
    14    10     8    1
    15    10    32    1
    16    10    33    1
    17    11    10    1
    18    12    11    1
    19    13    12   ar
    20    14    13   ar
    21    15    14   ar
    22    16    15   ar
    23    16    12   ar
    24    17    15    1
    25    18    17    2
    26    18    34    1
    27    19    18    1
    28    20    19   ar
    29    20    35    1
    30    21    20   ar
    31    21    36    1
    32    22    21   ar
    33    23    22   ar
    34    23    37    1
    35    24    23   ar
    36    24    19   ar
    37    24    38    1
    38    25    22    1
    39    26    25    2
    40    27    25    2
