@<TRIPOS>MOLECULE
>160.sdf
 61 62 0 0 0
SMALL
GASTEIGER

@<TRIPOS>ATOM
      1 C           1.8674   -1.1157    0.3503 C.3     1  UNL1        0.0788
      2 O           2.1763    0.0746   -0.3351 O.3     1  UNL1       -0.4947
      3 C           3.0625    1.0487   -0.0592 C.ar    1  UNL1        0.1270
      4 C           4.0017    1.3371    0.9572 C.ar    1  UNL1       -0.0015
      5 C           4.5379    0.4222    2.0754 C.3     1  UNL1       -0.0058
      6 C           3.7785    0.5025    3.3695 C.2     1  UNL1       -0.0809
      7 C           4.1433    0.8115    4.6130 C.2     1  UNL1       -0.0793
      8 C           5.5475    0.7874    5.1819 C.3     1  UNL1       -0.0440
      9 C           3.0766    1.2591    5.5884 C.3     1  UNL1       -0.0440
     10 C           4.6599    2.6104    0.8926 C.ar    1  UNL1       -0.0473
     11 C           4.5839    3.4946   -0.2141 C.ar    1  UNL1        0.0058
     12 C           5.4072    4.7898   -0.2608 C.3     1  UNL1        0.0339
     13 C           6.4222    4.8463   -1.4392 C.2     1  UNL1       -0.0792
     14 C           7.0195    3.8604   -2.1131 C.2     1  UNL1       -0.1017
     15 C           4.5513    6.0766   -0.1222 C.ar    1  UNL1        0.0055
     16 C           4.2874    6.6369    1.1632 C.ar    1  UNL1       -0.0507
     17 C           3.6037    7.8728    1.3228 C.ar    1  UNL1       -0.0431
     18 C           3.3224    8.3161    2.7527 C.3     1  UNL1       -0.0092
     19 C           4.3687    9.1715    3.3978 C.2     1  UNL1       -0.0810
     20 C           4.3252    9.6396    4.6729 C.2     1  UNL1       -0.0793
     21 C           3.2219    9.3542    5.6533 C.3     1  UNL1       -0.0440
     22 C           5.4356   10.5211    5.1513 C.3     1  UNL1       -0.0440
     23 C           3.1865    8.5603    0.1982 C.ar    1  UNL1       -0.0548
     24 C           3.4182    8.0175   -1.0862 C.ar    1  UNL1       -0.0196
     25 C           4.0670    6.7938   -1.2119 C.ar    1  UNL1        0.1209
     26 O           4.2900    6.2946   -2.4733 O.3     1  UNL1       -0.5065
     27 C           3.7738    3.0806   -1.2657 C.ar    1  UNL1        0.1244
     28 O           3.7177    3.6742   -2.4937 O.3     1  UNL1       -0.5063
     29 C           2.9892    1.9484   -1.1456 C.ar    1  UNL1        0.0221
     30 H           2.5089   -1.9192   -0.0330 H       1  UNL1        0.0660
     31 H           1.9286   -1.0054    1.4307 H       1  UNL1        0.0660
     32 H           0.8493   -1.3902    0.0869 H       1  UNL1        0.0660
     33 H           4.5389   -0.6047    1.7247 H       1  UNL1        0.0357
     34 H           5.6004    0.6888    2.2424 H       1  UNL1        0.0357
     35 H           2.7310    0.2344    3.2279 H       1  UNL1        0.0575
     36 H           5.8516    1.7490    5.6063 H       1  UNL1        0.0274
     37 H           5.5629    0.0447    5.9940 H       1  UNL1        0.0274
     38 H           6.2892    0.4633    4.4505 H       1  UNL1        0.0274
     39 H           2.7770    2.2859    5.3409 H       1  UNL1        0.0274
     40 H           2.1915    0.6210    5.5242 H       1  UNL1        0.0274
     41 H           3.4220    1.2699    6.6260 H       1  UNL1        0.0274
     42 H           5.3169    2.8763    1.7266 H       1  UNL1        0.0626
     43 H           6.0575    4.8072    0.6228 H       1  UNL1        0.0442
     44 H           6.6285    5.8485   -1.8269 H       1  UNL1        0.0576
     45 H           6.9086    2.8023   -1.8825 H       1  UNL1        0.0532
     46 H           7.6660    4.1068   -2.9587 H       1  UNL1        0.0532
     47 H           4.6320    6.1375    2.0624 H       1  UNL1        0.0625
     48 H           2.3734    8.8508    2.7696 H       1  UNL1        0.0356
     49 H           3.1985    7.4080    3.3638 H       1  UNL1        0.0356
     50 H           5.2387    9.4475    2.8006 H       1  UNL1        0.0575
     51 H           3.6300    8.8592    6.5407 H       1  UNL1        0.0274
     52 H           2.7451   10.2895    5.9674 H       1  UNL1        0.0274
     53 H           2.4398    8.7069    5.2470 H       1  UNL1        0.0274
     54 H           6.3968    9.9965    5.0838 H       1  UNL1        0.0274
     55 H           5.4909   11.4293    4.5368 H       1  UNL1        0.0274
     56 H           5.2948   10.8295    6.1904 H       1  UNL1        0.0274
     57 H           2.6778    9.5149    0.2594 H       1  UNL1        0.0622
     58 H           3.0934    8.5769   -1.9534 H       1  UNL1        0.0654
     59 H           4.1672    7.0134   -3.1120 H       1  UNL1        0.2921
     60 H           4.4549    4.3143   -2.5742 H       1  UNL1        0.2921
     61 H           2.3157    1.7177   -1.9705 H       1  UNL1        0.0691
@<TRIPOS>BOND
     1     1    30    1
     2     1    31    1
     3     1    32    1
     4     2     1    1
     5     3     2    1
     6     4     3   ar
     7     5     4    1
     8     5    33    1
     9     5    34    1
    10     6     5    1
    11     6    35    1
    12     7     6    2
    13     8     7    1
    14     8    36    1
    15     8    37    1
    16     8    38    1
    17     9     7    1
    18     9    39    1
    19     9    40    1
    20     9    41    1
    21    10     4   ar
    22    10    42    1
    23    11    10   ar
    24    12    11    1
    25    12    43    1
    26    13    12    1
    27    13    44    1
    28    14    13    2
    29    14    45    1
    30    14    46    1
    31    15    12    1
    32    16    15   ar
    33    16    47    1
    34    17    16   ar
    35    18    17    1
    36    18    48    1
    37    18    49    1
    38    19    18    1
    39    19    50    1
    40    20    19    2
    41    21    20    1
    42    21    51    1
    43    21    52    1
    44    21    53    1
    45    22    20    1
    46    22    54    1
    47    22    55    1
    48    22    56    1
    49    23    17   ar
    50    23    57    1
    51    24    23   ar
    52    24    58    1
    53    25    24   ar
    54    25    15   ar
    55    26    25    1
    56    26    59    1
    57    27    11   ar
    58    28    27    1
    59    28    60    1
    60    29    27   ar
    61    29     3   ar
    62    29    61    1
