@<TRIPOS>MOLECULE
>95.sdf
 34 36 0 0 0
SMALL
GASTEIGER

@<TRIPOS>ATOM
      1 C           1.0018    0.1085   -0.0255 C.3     1  UNL1       -0.0382
      2 C           2.5036   -0.0414   -0.0337 C.ar    1  UNL1       -0.0284
      3 C           3.2634    1.1482   -0.0897 C.ar    1  UNL1       -0.0143
      4 C           4.6354    1.0471   -0.1359 C.ar    1  UNL1        0.1401
      5 C           5.2598   -0.1949   -0.0916 C.ar    1  UNL1        0.0719
      6 C           6.6935    0.0518   -0.2019 C.2     1  UNL1        0.2318
      7 O           7.5852   -0.7602   -0.0735 O.2     1  UNL1       -0.2832
      8 C           6.7720    1.5105   -0.4665 C.2     1  UNL1        0.1762
      9 O           5.5128    2.0955   -0.3023 O.3     1  UNL1       -0.4514
     10 C           7.8381    2.1776   -0.9264 C.2     1  UNL1       -0.0082
     11 C           9.1042    1.5449   -1.3109 C.ar    1  UNL1       -0.0180
     12 C          10.1358    1.3751   -0.3822 C.ar    1  UNL1       -0.0543
     13 C          11.3403    0.7778   -0.7695 C.ar    1  UNL1       -0.0578
     14 C          11.5206    0.3450   -2.0825 C.ar    1  UNL1       -0.0201
     15 C          10.4873    0.5032   -3.0003 C.ar    1  UNL1        0.1174
     16 O          10.6208    0.0933   -4.2955 O.3     1  UNL1       -0.5068
     17 C           9.2836    1.0934   -2.6255 C.ar    1  UNL1       -0.0129
     18 C           4.5684   -1.4006   -0.0346 C.ar    1  UNL1       -0.0174
     19 C           5.3466   -2.6836   -0.0495 C.3     1  UNL1       -0.0375
     20 C           3.1627   -1.3069   -0.0084 C.ar    1  UNL1        0.0477
     21 CL          2.2193   -2.7642    0.0224 Cl      1  UNL1       -0.0830
     22 H           0.6870    0.6441    0.8764 H       1  UNL1        0.0278
     23 H           0.6822    0.6745   -0.9072 H       1  UNL1        0.0278
     24 H           0.4619   -0.8392   -0.0462 H       1  UNL1        0.0278
     25 H           2.7812    2.1215   -0.1277 H       1  UNL1        0.0657
     26 H           7.7677    3.2405   -1.1343 H       1  UNL1        0.0661
     27 H          10.0056    1.6915    0.6492 H       1  UNL1        0.0623
     28 H          12.1357    0.6454   -0.0403 H       1  UNL1        0.0619
     29 H          12.4621   -0.1159   -2.3673 H       1  UNL1        0.0654
     30 H          11.5068   -0.2884   -4.4076 H       1  UNL1        0.2921
     31 H           8.4905    1.1918   -3.3617 H       1  UNL1        0.0660
     32 H           5.9776   -2.7244   -0.9451 H       1  UNL1        0.0278
     33 H           5.9812   -2.7479    0.8404 H       1  UNL1        0.0278
     34 H           4.7225   -3.5786   -0.0669 H       1  UNL1        0.0278
@<TRIPOS>BOND
     1     1    22    1
     2     1    23    1
     3     1    24    1
     4     2     1    1
     5     3     2   ar
     6     3    25    1
     7     4     3   ar
     8     5     4   ar
     9     6     5    1
    10     7     6    2
    11     8     6    1
    12     9     8    1
    13     9     4    1
    14    10     8    2
    15    10    26    1
    16    11    10    1
    17    12    11   ar
    18    12    27    1
    19    13    12   ar
    20    13    28    1
    21    14    13   ar
    22    14    29    1
    23    15    14   ar
    24    16    15    1
    25    16    30    1
    26    17    15   ar
    27    17    11   ar
    28    17    31    1
    29    18     5   ar
    30    19    18    1
    31    19    32    1
    32    19    33    1
    33    19    34    1
    34    20    18   ar
    35    20     2   ar
    36    21    20    1
