@<TRIPOS>MOLECULE
>92.sdf
 27 30 0 0 0
SMALL
GASTEIGER

@<TRIPOS>ATOM
      1 O           1.0075   -0.0695   -0.0585 O.2     1  UNL1       -0.2833
      2 C           2.2145   -0.0829   -0.0581 C.2     1  UNL1        0.2306
      3 C           3.1488    1.1213   -0.0576 C.ar    1  UNL1        0.1895
      4 N           2.8169    2.3689   -0.0575 N.ar    1  UNL1       -0.2254
      5 C           3.8912    3.2855   -0.0576 C.ar    1  UNL1        0.0786
      6 C           5.2353    2.8791   -0.0574 C.ar    1  UNL1        0.0653
      7 C           6.2801    3.8109   -0.0583 C.ar    1  UNL1       -0.0473
      8 C           5.9876    5.1713   -0.0594 C.ar    1  UNL1       -0.0609
      9 C           4.6580    5.5929   -0.0593 C.ar    1  UNL1       -0.0597
     10 C           3.6170    4.6554   -0.0584 C.ar    1  UNL1       -0.0355
     11 C           5.5414    1.4312   -0.0572 C.ar    1  UNL1        0.2666
     12 O           6.7098    1.0563   -0.0555 O.2     1  UNL1       -0.2666
     13 N           4.4341    0.6192   -0.0574 N.ar    1  UNL1       -0.2571
     14 C           4.4109   -0.7852   -0.0581 C.ar    1  UNL1        0.0625
     15 C           5.4706   -1.6751   -0.0593 C.ar    1  UNL1       -0.0370
     16 C           5.1823   -3.0445   -0.0589 C.ar    1  UNL1       -0.0598
     17 C           3.8519   -3.5049   -0.0586 C.ar    1  UNL1       -0.0610
     18 C           2.7848   -2.6027   -0.0584 C.ar    1  UNL1       -0.0488
     19 C           3.0969   -1.2563   -0.0581 C.ar    1  UNL1        0.0493
     20 H           7.3153    3.4769   -0.0586 H       1  UNL1        0.0626
     21 H           6.7954    5.8994   -0.0602 H       1  UNL1        0.0618
     22 H           4.4299    6.6565   -0.0599 H       1  UNL1        0.0618
     23 H           2.5846    4.9981   -0.0586 H       1  UNL1        0.0639
     24 H           6.5038   -1.3410   -0.0592 H       1  UNL1        0.0638
     25 H           6.0009   -3.7627   -0.0593 H       1  UNL1        0.0618
     26 H           3.6587   -4.5761   -0.0585 H       1  UNL1        0.0618
     27 H           1.7552   -2.9445   -0.0583 H       1  UNL1        0.0625
@<TRIPOS>BOND
     1     2     1    2
     2     3     2    1
     3     4     3   ar
     4     5     4   ar
     5     6     5   ar
     6     7     6   ar
     7     7    20    1
     8     8     7   ar
     9     8    21    1
    10     9     8   ar
    11     9    22    1
    12    10     9   ar
    13    10     5   ar
    14    10    23    1
    15    11     6   ar
    16    12    11    2
    17    13    11   ar
    18    13     3   ar
    19    14    13    1
    20    15    14   ar
    21    15    24    1
    22    16    15   ar
    23    16    25    1
    24    17    16   ar
    25    17    26    1
    26    18    17   ar
    27    18    27    1
    28    19    18   ar
    29    19     2    1
    30    19    14   ar
