@<TRIPOS>MOLECULE
>123.sdf
 58 61 0 0 0
SMALL
GASTEIGER

@<TRIPOS>ATOM
      1 C           1.1428   -0.8697    2.7474 C.3     1  UNL1       -0.0394
      2 C           2.6191   -0.5876    2.4336 C.3     1  UNL1        0.0872
      3 N           2.9223    0.8519    2.6417 N.ar    1  UNL1       -0.2345
      4 N           3.9671    1.1937    3.4774 N.ar    1  UNL1       -0.1586
      5 C           4.0740    2.4775    3.3547 C.ar    1  UNL1        0.1230
      6 N           3.2114    3.0612    2.4920 N.ar    1  UNL1       -0.2777
      7 C           2.3763    2.0249    2.0622 C.ar    1  UNL1        0.1829
      8 S           0.9483    2.1251    1.1921 S.2     1  UNL1       -0.0109
      9 C           3.2221    4.4304    2.1193 C.ar    1  UNL1        0.0501
     10 C           2.7170    4.8447    0.8810 C.ar    1  UNL1       -0.0343
     11 C           2.6595    6.1907    0.5152 C.ar    1  UNL1       -0.0180
     12 C           3.1480    7.1654    1.3717 C.ar    1  UNL1        0.1209
     13 O           3.1330    8.5083    1.1278 O.3     1  UNL1       -0.4858
     14 C           2.4389    8.9357   -0.0527 C.3     1  UNL1        0.1582
     15 C           2.4822   10.4516   -0.1627 C.3     1  UNL1        0.3406
     16 F           1.8885   10.8203   -1.3316 F       1  UNL1       -0.1957
     17 F           1.7281   10.9937    0.8337 F       1  UNL1       -0.1957
     18 C           3.9101   10.9700   -0.0905 C.3     1  UNL1        0.3045
     19 F           4.6672   10.4293   -1.0836 F       1  UNL1       -0.2026
     20 F           3.9449   12.3166   -0.2744 F       1  UNL1       -0.2026
     21 C           3.7227    6.7728    2.5809 C.ar    1  UNL1       -0.0180
     22 C           3.7640    5.4191    2.9520 C.ar    1  UNL1       -0.0343
     23 C           3.1360   -1.1584    1.0376 C.3     1  UNL1        0.1349
     24 O           2.5438   -0.3923   -0.0286 O.3     1  UNL1       -0.3799
     25 C           2.6750   -2.6426    0.8984 C.3     1  UNL1        0.0782
     26 N           3.0647   -3.3237   -0.3196 N.ar    1  UNL1       -0.2489
     27 C           3.8851   -4.4028   -0.4433 C.ar    1  UNL1        0.1144
     28 N           3.8263   -4.8649   -1.6715 N.ar    1  UNL1       -0.2228
     29 C           2.9164   -4.0393   -2.2652 C.ar    1  UNL1        0.1379
     30 N           2.3954   -3.1036   -1.4687 N.ar    1  UNL1       -0.1583
     31 C           4.6596   -0.9447    0.9446 C.ar    1  UNL1        0.0230
     32 C           5.1794    0.2553    0.4104 C.ar    1  UNL1       -0.0503
     33 C           6.5521    0.5186    0.4080 C.ar    1  UNL1       -0.0259
     34 C           7.4300   -0.4278    0.9142 C.ar    1  UNL1        0.1261
     35 F           8.7451   -0.1746    0.9188 F       1  UNL1       -0.2054
     36 C           6.9612   -1.6256    1.4282 C.ar    1  UNL1        0.0092
     37 C           5.5884   -1.8635    1.4562 C.ar    1  UNL1        0.1321
     38 F           5.1720   -3.0087    2.0126 F       1  UNL1       -0.2050
     39 H           0.9666   -1.9355    2.9158 H       1  UNL1        0.0251
     40 H           0.8373   -0.3459    3.6610 H       1  UNL1        0.0251
     41 H           0.4745   -0.5598    1.9411 H       1  UNL1        0.0251
     42 H           3.1847   -1.1128    3.2170 H       1  UNL1        0.0576
     43 H           4.8236    3.0815    3.8800 H       1  UNL1        0.1051
     44 H           2.3836    4.1333    0.1323 H       1  UNL1        0.0639
     45 H           2.2273    6.4241   -0.4524 H       1  UNL1        0.0655
     46 H           2.9114    8.5051   -0.9441 H       1  UNL1        0.0759
     47 H           1.3909    8.6133   -0.0111 H       1  UNL1        0.0759
     48 H           4.3849   10.7515    0.8702 H       1  UNL1        0.1082
     49 H           4.1285    7.5265    3.2534 H       1  UNL1        0.0655
     50 H           4.1917    5.1807    3.9222 H       1  UNL1        0.0639
     51 H           1.6937   -0.7870   -0.2945 H       1  UNL1        0.2108
     52 H           3.0024   -3.2552    1.7441 H       1  UNL1        0.0542
     53 H           1.5788   -2.6936    0.8890 H       1  UNL1        0.0542
     54 H           4.4689   -4.8164    0.3684 H       1  UNL1        0.1044
     55 H           2.6082   -4.1387   -3.2977 H       1  UNL1        0.1065
     56 H           4.5067    1.0150    0.0147 H       1  UNL1        0.0623
     57 H           6.9350    1.4584    0.0222 H       1  UNL1        0.0646
     58 H           7.6560   -2.3594    1.8199 H       1  UNL1        0.0675
@<TRIPOS>BOND
     1     1    39    1
     2     1    40    1
     3     1    41    1
     4     3     2    1
     5     4     3   ar
     6     5     4   ar
     7     5    43    1
     8     6     5   ar
     9     7     6   ar
    10     7     3   ar
    11     8     7    2
    12     9     6    1
    13    10     9   ar
    14    10    44    1
    15    11    10   ar
    16    11    45    1
    17    12    11   ar
    18    13    12    1
    19    14    13    1
    20    14    46    1
    21    14    47    1
    22    15    14    1
    23    16    15    1
    24    17    15    1
    25    18    15    1
    26    18    48    1
    27    19    18    1
    28    20    18    1
    29    21    12   ar
    30    21    49    1
    31    22    21   ar
    32    22     9   ar
    33    22    50    1
    34    24    51    1
    35    25    23    1
    36    25    52    1
    37    25    53    1
    38    26    25    1
    39    27    26   ar
    40    27    54    1
    41    28    27   ar
    42    29    28   ar
    43    29    55    1
    44    30    29   ar
    45    30    26   ar
    46    31    23    1
    47    32    31   ar
    48    32    56    1
    49    33    32   ar
    50    33    57    1
    51    34    33   ar
    52    35    34    1
    53    36    34   ar
    54    36    58    1
    55    37    36   ar
    56    37    31   ar
    57    38    37    1
    58     2    42    1
    59     2     1    1
    60    23    24    1
    61    23     2    1
