@<TRIPOS>MOLECULE
>9.sdf
 25 25 0 0 0
SMALL
GASTEIGER

@<TRIPOS>ATOM
      1 C           1.4112   -0.4043    0.5786 C.3     1  UNL1        0.0788
      2 O           2.5907    0.0004   -0.1081 O.3     1  UNL1       -0.4951
      3 C           3.1902    1.1490    0.3308 C.ar    1  UNL1        0.1201
      4 C           2.7387    1.9510    1.3791 C.ar    1  UNL1       -0.0194
      5 C           3.4424    3.1038    1.7327 C.ar    1  UNL1       -0.0496
      6 C           4.6003    3.4626    1.0368 C.ar    1  UNL1       -0.0052
      7 C           5.3316    4.6925    1.4007 C.2     1  UNL1        0.0528
      8 N           4.9100    5.4550    2.3590 N.2     1  UNL1       -0.1885
      9 N           5.6561    6.5723    2.5952 N.am    1  UNL1       -0.2186
     10 C           5.3015    7.4533    3.5810 C.2     1  UNL1        0.1473
     11 N           4.1974    7.1146    4.2906 N.am    1  UNL1       -0.3394
     12 S           6.1572    8.8381    3.8904 S.2     1  UNL1       -0.0174
     13 C           5.0614    2.6661   -0.0115 C.ar    1  UNL1       -0.0496
     14 C           4.3526    1.5114   -0.3598 C.ar    1  UNL1       -0.0194
     15 H           1.6126   -0.5841    1.6402 H       1  UNL1        0.0660
     16 H           0.6095    0.3305    0.4479 H       1  UNL1        0.0660
     17 H           1.0737   -1.3486    0.1414 H       1  UNL1        0.0660
     18 H           1.8427    1.7127    1.9426 H       1  UNL1        0.0654
     19 H           3.0780    3.7185    2.5520 H       1  UNL1        0.0625
     20 H           6.2409    4.9291    0.8194 H       1  UNL1        0.0851
     21 H           6.4729    6.7825    2.0310 H       1  UNL1        0.1762
     22 H           3.8397    7.6977    5.0319 H       1  UNL1        0.1440
     23 H           3.7268    6.2596    4.0214 H       1  UNL1        0.1440
     24 H           5.9599    2.9262   -0.5645 H       1  UNL1        0.0625
     25 H           4.7053    0.8873   -1.1777 H       1  UNL1        0.0654
@<TRIPOS>BOND
     1     1    15    1
     2     1    16    1
     3     1    17    1
     4     2     1    1
     5     3     2    1
     6     4     3   ar
     7     4    18    1
     8     5     4   ar
     9     5    19    1
    10     6     5   ar
    11     7     6    1
    12     7    20    1
    13     8     7    2
    14     9     8    1
    15     9    21    1
    16    10     9    1
    17    11    10    1
    18    11    22    1
    19    11    23    1
    20    12    10    2
    21    13     6   ar
    22    13    24    1
    23    14    13   ar
    24    14     3   ar
    25    14    25    1
