@<TRIPOS>MOLECULE
>42.sdf
 42 44 0 0 0
SMALL
GASTEIGER

@<TRIPOS>ATOM
      1 F           3.3435    1.1191    0.7395 F       1  UNL1       -0.1659
      2 C           3.5783   -0.1912    0.4464 C.3     1  UNL1        0.4174
      3 F           4.7698   -0.4919    1.0354 F       1  UNL1       -0.1659
      4 F           2.6361   -0.9000    1.1268 F       1  UNL1       -0.1659
      5 C           3.5789   -0.4853   -1.0366 C.ar    1  UNL1        0.0550
      6 C           3.3758    0.5336   -1.9804 C.ar    1  UNL1       -0.0467
      7 C           3.4631    0.2710   -3.3554 C.ar    1  UNL1       -0.0194
      8 C           3.8086   -1.0029   -3.8013 C.ar    1  UNL1        0.1214
      9 O           4.0729   -1.3514   -5.0983 O.3     1  UNL1       -0.4842
     10 C           4.6676   -0.3700   -5.9717 C.3     1  UNL1        0.1268
     11 C           6.0281    0.1514   -5.4488 C.3     1  UNL1        0.0065
     12 C           6.6836    1.1732   -6.3834 C.3     1  UNL1        0.0278
     13 N           7.9453    1.6513   -5.8480 N.ar    1  UNL1       -0.3367
     14 C           8.1427    2.7936   -5.1262 C.ar    1  UNL1        0.0240
     15 C           9.4727    2.7615   -4.7749 C.ar    1  UNL1        0.0454
     16 N          10.0905    1.6589   -5.3063 N.ar    1  UNL1       -0.2441
     17 C           9.1487    1.0147   -5.9576 C.ar    1  UNL1        0.0959
     18 C           4.8678   -1.0428   -7.3302 C.ar    1  UNL1       -0.0073
     19 C           4.2722   -0.5087   -8.4841 C.ar    1  UNL1       -0.0551
     20 C           4.5448   -1.0474   -9.7401 C.ar    1  UNL1       -0.0614
     21 C           5.4111   -2.1312   -9.8722 C.ar    1  UNL1       -0.0617
     22 C           5.9902   -2.6892   -8.7353 C.ar    1  UNL1       -0.0614
     23 C           5.7129   -2.1575   -7.4726 C.ar    1  UNL1       -0.0551
     24 C           3.9171   -2.0409   -2.8724 C.ar    1  UNL1       -0.0194
     25 C           3.8075   -1.7879   -1.5005 C.ar    1  UNL1       -0.0467
     26 H           3.1666    1.5493   -1.6455 H       1  UNL1        0.0624
     27 H           3.2731    1.0834   -4.0492 H       1  UNL1        0.0654
     28 H           3.9656    0.4635   -6.0966 H       1  UNL1        0.0785
     29 H           5.9024    0.6147   -4.4638 H       1  UNL1        0.0322
     30 H           6.7122   -0.6885   -5.2694 H       1  UNL1        0.0322
     31 H           6.9049    0.7524   -7.3698 H       1  UNL1        0.0493
     32 H           6.0330    2.0440   -6.5265 H       1  UNL1        0.0493
     33 H           7.3540    3.4995   -4.9093 H       1  UNL1        0.0825
     34 H          10.0186    3.4727   -4.1684 H       1  UNL1        0.0845
     35 H           9.2803    0.0888   -6.5030 H       1  UNL1        0.1029
     36 H           3.6044    0.3459   -8.4107 H       1  UNL1        0.0621
     37 H           4.0888   -0.6132  -10.6307 H       1  UNL1        0.0618
     38 H           5.6266   -2.5451  -10.8544 H       1  UNL1        0.0618
     39 H           6.6655   -3.5368   -8.8330 H       1  UNL1        0.0618
     40 H           6.1852   -2.6067   -6.6011 H       1  UNL1        0.0621
     41 H           4.1236   -3.0515   -3.2175 H       1  UNL1        0.0654
     42 H           3.9311   -2.6090   -0.7951 H       1  UNL1        0.0624
@<TRIPOS>BOND
     1     2     1    1
     2     3     2    1
     3     4     2    1
     4     5     2    1
     5     6     5   ar
     6     6    26    1
     7     7     6   ar
     8     7    27    1
     9     8     7   ar
    10     9     8    1
    11    10     9    1
    12    10    28    1
    13    11    10    1
    14    11    29    1
    15    11    30    1
    16    12    11    1
    17    12    31    1
    18    12    32    1
    19    13    12    1
    20    14    13   ar
    21    14    33    1
    22    15    14   ar
    23    15    34    1
    24    16    15   ar
    25    17    16   ar
    26    17    13   ar
    27    17    35    1
    28    18    10    1
    29    19    18   ar
    30    19    36    1
    31    20    19   ar
    32    20    37    1
    33    21    20   ar
    34    21    38    1
    35    22    21   ar
    36    22    39    1
    37    23    22   ar
    38    23    18   ar
    39    23    40    1
    40    24     8   ar
    41    24    41    1
    42    25    24   ar
    43    25     5   ar
    44    25    42    1
