@<TRIPOS>MOLECULE
>1.sdf
 43 47 0 0 0
SMALL
GASTEIGER

@<TRIPOS>ATOM
      1 C           1.3898    0.4380   -0.2903 C.3     1  UNL1        0.0788
      2 O           2.5912   -0.1939    0.1446 O.3     1  UNL1       -0.4950
      3 C           3.1833   -1.0602   -0.7345 C.ar    1  UNL1        0.1221
      4 C           4.3505   -1.6830   -0.2856 C.ar    1  UNL1        0.0060
      5 C           5.0613   -2.5977   -1.0609 C.ar    1  UNL1        0.0757
      6 N           6.1753   -3.1242   -0.5309 N.ar    1  UNL1       -0.2458
      7 C           6.8893   -4.0251   -1.2403 C.ar    1  UNL1        0.0839
      8 C           6.4784   -4.4484   -2.5077 C.ar    1  UNL1        0.0598
      9 C           7.3161   -5.5107   -3.0908 C.2     1  UNL1        0.2356
     10 O           6.8791   -6.4892   -3.6743 O.2     1  UNL1       -0.2831
     11 C           8.7995   -5.4109   -2.8056 C.2     1  UNL1        0.2336
     12 O           9.6346   -5.5177   -3.6852 O.2     1  UNL1       -0.2832
     13 C           9.1147   -5.1745   -1.3930 C.ar    1  UNL1        0.0347
     14 C           8.1346   -4.5330   -0.6113 C.ar    1  UNL1        0.0120
     15 C           8.4112   -4.3994    0.7573 C.ar    1  UNL1       -0.0519
     16 C           9.6042   -4.8933    1.3061 C.ar    1  UNL1       -0.0611
     17 C          10.5613   -5.5047    0.4949 C.ar    1  UNL1       -0.0610
     18 C          10.3248   -5.6376   -0.8678 C.ar    1  UNL1       -0.0502
     19 C           5.3148   -3.9174   -3.1147 C.ar    1  UNL1        0.0043
     20 C           4.8573   -4.3820   -4.4692 C.ar    1  UNL1       -0.0164
     21 C           3.5072   -4.6936   -4.7330 C.ar    1  UNL1       -0.0526
     22 C           3.0813   -5.1550   -5.9859 C.ar    1  UNL1       -0.0428
     23 C           4.0157   -5.4118   -6.9797 C.ar    1  UNL1        0.0410
     24 CL          3.5128   -6.0852   -8.4793 Cl      1  UNL1       -0.0835
     25 C           5.3576   -5.1407   -6.7527 C.ar    1  UNL1       -0.0428
     26 C           5.7616   -4.5833   -5.5318 C.ar    1  UNL1       -0.0526
     27 C           4.5978   -2.9248   -2.3605 C.ar    1  UNL1        0.0090
     28 C           3.4460   -2.2313   -2.8157 C.ar    1  UNL1       -0.0485
     29 C           2.7322   -1.3413   -2.0112 C.ar    1  UNL1       -0.0192
     30 H           1.5459    1.0031   -1.2172 H       1  UNL1        0.0660
     31 H           0.5865   -0.2973   -0.4135 H       1  UNL1        0.0660
     32 H           1.0798    1.1506    0.4783 H       1  UNL1        0.0660
     33 H           4.7184   -1.4461    0.7110 H       1  UNL1        0.0676
     34 H           7.6903   -3.9178    1.4171 H       1  UNL1        0.0624
     35 H           9.7858   -4.7994    2.3751 H       1  UNL1        0.0618
     36 H          11.4826   -5.8876    0.9279 H       1  UNL1        0.0618
     37 H          11.0575   -6.1245   -1.5091 H       1  UNL1        0.0625
     38 H           2.7494   -4.5893   -3.9587 H       1  UNL1        0.0624
     39 H           2.0251   -5.3388   -6.1633 H       1  UNL1        0.0632
     40 H           6.1044   -5.3765   -7.5066 H       1  UNL1        0.0632
     41 H           6.8232   -4.3745   -5.4145 H       1  UNL1        0.0624
     42 H           3.0737   -2.3658   -3.8274 H       1  UNL1        0.0625
     43 H           1.8331   -0.8935   -2.4221 H       1  UNL1        0.0654
@<TRIPOS>BOND
     1     1    30    1
     2     1    31    1
     3     1    32    1
     4     2     1    1
     5     3     2    1
     6     4     3   ar
     7     4    33    1
     8     5     4   ar
     9     6     5   ar
    10     7     6   ar
    11     8     7   ar
    12     9     8    1
    13    10     9    2
    14    11     9    1
    15    12    11    2
    16    13    11    1
    17    14    13   ar
    18    14     7    1
    19    15    14   ar
    20    15    34    1
    21    16    15   ar
    22    16    35    1
    23    17    16   ar
    24    17    36    1
    25    18    17   ar
    26    18    13   ar
    27    18    37    1
    28    19     8   ar
    29    20    19    1
    30    21    20   ar
    31    21    38    1
    32    22    21   ar
    33    22    39    1
    34    23    22   ar
    35    24    23    1
    36    25    23   ar
    37    25    40    1
    38    26    25   ar
    39    26    20   ar
    40    26    41    1
    41    27    19   ar
    42    27     5   ar
    43    28    27   ar
    44    28    42    1
    45    29    28   ar
    46    29     3   ar
    47    29    43    1
