@<TRIPOS>MOLECULE
>75.sdf
 40 43 0 0 0
SMALL
GASTEIGER

@<TRIPOS>ATOM
      1 C           2.4156    2.1253   -0.5746 C.3     1  UNL1        0.0788
      2 O           2.4714    0.9573    0.2331 O.3     1  UNL1       -0.4951
      3 C           3.1596    1.0509    1.4104 C.ar    1  UNL1        0.1201
      4 C           3.8546    2.1665    1.8770 C.ar    1  UNL1       -0.0192
      5 C           4.5026    2.1272    3.1225 C.ar    1  UNL1       -0.0460
      6 C           4.4644    0.9739    3.9182 C.ar    1  UNL1        0.0372
      7 C           3.7792   -0.1465    3.4252 C.ar    1  UNL1       -0.0460
      8 C           3.1336   -0.1061    2.1873 C.ar    1  UNL1       -0.0192
      9 C           5.1050    0.9483    5.2322 C.ar    1  UNL1        0.2284
     10 N           5.7613    1.8946    5.8857 N.ar    1  UNL1       -0.2089
     11 C           6.1068    1.2958    7.0772 C.ar    1  UNL1        0.1105
     12 C           5.6377   -0.0071    7.0932 C.ar    1  UNL1        0.1558
     13 O           4.9973   -0.2381    5.9182 O.2     1  UNL1       -0.4353
     14 C           5.7976   -0.9036    8.1387 C.ar    1  UNL1       -0.0165
     15 C           6.5209   -0.4251    9.2353 C.ar    1  UNL1       -0.0473
     16 C           7.0481    0.8795    9.2575 C.ar    1  UNL1        0.0245
     17 C           6.8132    1.7723    8.1913 C.ar    1  UNL1       -0.0218
     18 C           7.8379    1.2739   10.4556 C.2     1  UNL1        0.1932
     19 O           7.5335    0.7935   11.5455 O.2     1  UNL1       -0.2867
     20 C           8.9947    2.2054   10.3716 C.ar    1  UNL1        0.0223
     21 C           9.7683    2.3318    9.2110 C.ar    1  UNL1       -0.0509
     22 C          10.8306    3.2370    9.1723 C.ar    1  UNL1       -0.0611
     23 C          11.1455    3.9937   10.2999 C.ar    1  UNL1       -0.0617
     24 C          10.4091    3.8380   11.4735 C.ar    1  UNL1       -0.0611
     25 C           9.3384    2.9431   11.5120 C.ar    1  UNL1       -0.0509
     26 H           1.9450    2.9566   -0.0396 H       1  UNL1        0.0660
     27 H           3.4125    2.3985   -0.9347 H       1  UNL1        0.0660
     28 H           1.7953    1.8985   -1.4473 H       1  UNL1        0.0660
     29 H           3.9092    3.0848    1.3019 H       1  UNL1        0.0654
     30 H           5.0343    3.0119    3.4701 H       1  UNL1        0.0626
     31 H           3.7302   -1.0660    4.0044 H       1  UNL1        0.0626
     32 H           2.5998   -0.9843    1.8318 H       1  UNL1        0.0654
     33 H           5.3913   -1.9063    8.1012 H       1  UNL1        0.0655
     34 H           6.6810   -1.0870   10.0868 H       1  UNL1        0.0626
     35 H           7.1610    2.7990    8.2060 H       1  UNL1        0.0647
     36 H           9.5695    1.7294    8.3290 H       1  UNL1        0.0625
     37 H          11.4170    3.3469    8.2632 H       1  UNL1        0.0618
     38 H          11.9741    4.6969   10.2679 H       1  UNL1        0.0618
     39 H          10.6684    4.4117   12.3598 H       1  UNL1        0.0618
     40 H           8.7728    2.8216   12.4342 H       1  UNL1        0.0625
@<TRIPOS>BOND
     1     1    26    1
     2     1    27    1
     3     1    28    1
     4     2     1    1
     5     3     2    1
     6     4     3   ar
     7     4    29    1
     8     5     4   ar
     9     5    30    1
    10     6     5   ar
    11     7     6   ar
    12     7    31    1
    13     8     7   ar
    14     8     3   ar
    15     8    32    1
    16     9     6    1
    17    10     9   ar
    18    11    10   ar
    19    12    11   ar
    20    13    12   ar
    21    13     9   ar
    22    14    12   ar
    23    14    33    1
    24    15    14   ar
    25    15    34    1
    26    16    15   ar
    27    17    16   ar
    28    17    11   ar
    29    17    35    1
    30    18    16    1
    31    19    18    2
    32    20    18    1
    33    21    20   ar
    34    21    36    1
    35    22    21   ar
    36    22    37    1
    37    23    22   ar
    38    23    38    1
    39    24    23   ar
    40    24    39    1
    41    25    24   ar
    42    25    20   ar
    43    25    40    1
