@<TRIPOS>MOLECULE
>54.sdf
 22 23 0 0 0
SMALL
GASTEIGER

@<TRIPOS>ATOM
      1 C           3.2390   -1.5065   -0.7746 C.3     1  UNL1        0.0614
      2 S           2.8918    0.0144    0.0732 S.O2    1  UNL1        0.0140
      3 O           1.4527    0.0793    0.2550 O.2     1  UNL1       -0.1681
      4 O           3.8028    0.0967    1.1986 O.2     1  UNL1       -0.1681
      5 C           3.3382    1.2721   -1.0706 C.ar    1  UNL1        0.2137
      6 N           3.8308    0.8115   -2.2559 N.ar    1  UNL1       -0.2244
      7 C           4.1031    1.7477   -3.1795 C.ar    1  UNL1        0.0915
      8 C           3.9012    3.1275   -2.9127 C.ar    1  UNL1        0.0920
      9 C           4.1638    4.0555   -3.9100 C.ar    1  UNL1       -0.0202
     10 C           4.6005    3.6454   -5.1686 C.ar    1  UNL1        0.0200
     11 BR          4.8847    4.9264   -6.5274 Br      1  UNL1       -0.0502
     12 C           4.8088    2.2977   -5.4329 C.ar    1  UNL1       -0.0456
     13 C           4.5667    1.3590   -4.4312 C.ar    1  UNL1       -0.0331
     14 N           3.4371    3.5520   -1.7197 N.ar    1  UNL1       -0.2302
     15 C           3.1418    2.6035   -0.7969 C.ar    1  UNL1        0.1732
     16 CL          2.5030    3.2512    0.6530 Cl      1  UNL1       -0.0583
     17 H           2.9604   -2.3353   -0.1205 H       1  UNL1        0.0468
     18 H           2.6478   -1.5525   -1.6920 H       1  UNL1        0.0468
     19 H           4.3072   -1.5569   -0.9945 H       1  UNL1        0.0468
     20 H           4.0044    5.1103   -3.7001 H       1  UNL1        0.0650
     21 H           5.1475    1.9663   -6.4123 H       1  UNL1        0.0629
     22 H           4.7278    0.3028   -4.6350 H       1  UNL1        0.0640
@<TRIPOS>BOND
     1     1    17    1
     2     1    18    1
     3     1    19    1
     4     2     1    1
     5     3     2    2
     6     4     2    2
     7     5     2    1
     8     6     5   ar
     9     7     6   ar
    10     8     7   ar
    11     9     8   ar
    12     9    20    1
    13    10     9   ar
    14    11    10    1
    15    12    10   ar
    16    12    21    1
    17    13    12   ar
    18    13     7   ar
    19    13    22    1
    20    14     8   ar
    21    15    14   ar
    22    15     5   ar
    23    16    15    1
