@<TRIPOS>MOLECULE
>27.sdf
 32 33 0 0 0
SMALL
GASTEIGER

@<TRIPOS>ATOM
      1 C           5.3800    3.2210    0.4399 C.3     1  UNL1       -0.0648
      2 C           4.5441    2.2850   -0.4185 C.3     1  UNL1       -0.0476
      3 C           5.3936    1.1570   -0.9931 C.3     1  UNL1        0.0240
      4 C           4.5827    0.1738   -1.8250 C.2     1  UNL1        0.2174
      5 O           3.3766    0.2963   -2.0348 O.2     1  UNL1       -0.2755
      6 N           5.2603   -0.8615   -2.4262 N.am    1  UNL1       -0.2783
      7 C           6.6309   -0.9585   -2.5103 C.ar    1  UNL1        0.1411
      8 C           7.2934   -0.5163   -3.5936 C.ar    1  UNL1        0.1523
      9 O           6.6583    0.0531   -4.6832 O.3     1  UNL1       -0.5041
     10 C           8.7623   -0.5125   -3.6234 C.ar    1  UNL1        0.0418
     11 C           9.4612   -1.0008   -2.5095 C.ar    1  UNL1        0.0528
     12 N           8.7506   -1.4966   -1.4101 N.ar    1  UNL1       -0.3204
     13 C           7.3853   -1.5185   -1.3361 C.ar    1  UNL1        0.2741
     14 O           6.8092   -1.9746   -0.3534 O.2     1  UNL1       -0.2657
     15 C          10.8566   -0.9916   -2.4748 C.ar    1  UNL1       -0.0376
     16 C          11.5663   -0.4799   -3.5591 C.ar    1  UNL1       -0.0598
     17 C          10.8865    0.0142   -4.6698 C.ar    1  UNL1       -0.0610
     18 C           9.4901   -0.0001   -4.7037 C.ar    1  UNL1       -0.0491
     19 H           4.7552    4.0190    0.8526 H       1  UNL1        0.0230
     20 H           5.8373    2.6811    1.2755 H       1  UNL1        0.0230
     21 H           6.1794    3.6837   -0.1479 H       1  UNL1        0.0230
     22 H           3.7278    1.8712    0.1842 H       1  UNL1        0.0267
     23 H           4.0796    2.8569   -1.2331 H       1  UNL1        0.0267
     24 H           6.1765    1.5914   -1.6264 H       1  UNL1        0.0358
     25 H           5.8696    0.6093   -0.1733 H       1  UNL1        0.0358
     26 H           4.6968   -1.3969   -3.0766 H       1  UNL1        0.1551
     27 H           5.7077    0.1136   -4.4806 H       1  UNL1        0.2923
     28 H           9.2423   -1.8669   -0.6076 H       1  UNL1        0.1690
     29 H          11.3972   -1.3661   -1.6106 H       1  UNL1        0.0638
     30 H          12.6556   -0.4652   -3.5369 H       1  UNL1        0.0618
     31 H          11.4437    0.4194   -5.5125 H       1  UNL1        0.0618
     32 H           8.9764    0.3996   -5.5751 H       1  UNL1        0.0625
@<TRIPOS>BOND
     1     1    19    1
     2     1    20    1
     3     1    21    1
     4     2     1    1
     5     2    22    1
     6     2    23    1
     7     3     2    1
     8     3    24    1
     9     3    25    1
    10     4     3    1
    11     5     4    2
    12     6     4   am
    13     6    26    1
    14     7     6    1
    15     8     7   ar
    16     9     8    1
    17     9    27    1
    18    10     8   ar
    19    11    10   ar
    20    12    11   ar
    21    12    28    1
    22    13    12   ar
    23    13     7   ar
    24    14    13    2
    25    15    11   ar
    26    15    29    1
    27    16    15   ar
    28    16    30    1
    29    17    16   ar
    30    17    31    1
    31    18    17   ar
    32    18    10   ar
    33    18    32    1
