@<TRIPOS>MOLECULE
>62.sdf
 52 52 0 0 0
SMALL
GASTEIGER

@<TRIPOS>ATOM
      1 C           1.3615    1.8640    2.4230 C.3     1  UNL1        0.0817
      2 O           2.7669    1.7322    2.1934 O.3     1  UNL1       -0.4664
      3 C           3.0972    0.8668    1.1835 C.2     1  UNL1        0.3303
      4 O           2.2718    0.2415    0.5284 O.2     1  UNL1       -0.2484
      5 C           4.6363    0.8129    0.9557 C.3     1  UNL1        0.1290
      6 C           4.9186    1.3743   -0.4446 C.3     1  UNL1       -0.0332
      7 C           5.1532   -0.6278    1.2078 C.3     1  UNL1       -0.0191
      8 C           4.6130   -1.8131    0.3795 C.3     1  UNL1       -0.0443
      9 C           4.8255   -1.6800   -1.1255 C.3     1  UNL1       -0.0626
     10 C           5.3026   -3.0996    0.8579 C.3     1  UNL1       -0.0626
     11 N           5.2864    1.7056    1.9443 N.am    1  UNL1       -0.2994
     12 C           6.6219    2.0040    2.0026 C.2     1  UNL1        0.2237
     13 O           7.4604    1.5075    1.2582 O.2     1  UNL1       -0.2749
     14 C           7.0176    3.0534    3.0336 C.3     1  UNL1        0.0703
     15 S           5.5871    3.7192    3.9682 S.3     1  UNL1       -0.1497
     16 C           6.4387    4.9699    4.9720 C.3     1  UNL1        0.0122
     17 C           7.0521    6.0707    4.1118 C.3     1  UNL1        0.0354
     18 N           7.6553    7.1088    4.9264 N.ar    1  UNL1       -0.3085
     19 C           7.0044    8.2664    5.3176 C.ar    1  UNL1        0.1082
     20 C           5.6117    8.6106    4.9214 C.3     1  UNL1       -0.0062
     21 N           7.7833    9.0055    6.0821 N.ar    1  UNL1       -0.2385
     22 C           8.9744    8.3351    6.1746 C.ar    1  UNL1        0.0769
     23 C           8.9194    7.1656    5.4599 C.ar    1  UNL1        0.2157
     24 N           9.9476    6.1937    5.3036 N.pl3   1  UNL1        0.0750
     25 O           9.6801    5.1629    4.6764 O.2     1  UNL1       -0.1246
     26 O          11.0385    6.4539    5.8252 O.2     1  UNL1       -0.1246
     27 H           0.8259    2.0782    1.4924 H       1  UNL1        0.0661
     28 H           0.9741    0.9561    2.8944 H       1  UNL1        0.0661
     29 H           1.2068    2.7047    3.1054 H       1  UNL1        0.0661
     30 H           4.9706    2.4704   -0.4277 H       1  UNL1        0.0256
     31 H           5.8767    1.0163   -0.8352 H       1  UNL1        0.0256
     32 H           4.1347    1.1257   -1.1646 H       1  UNL1        0.0256
     33 H           6.2466   -0.6349    1.1131 H       1  UNL1        0.0294
     34 H           4.9593   -0.8615    2.2665 H       1  UNL1        0.0294
     35 H           3.5413   -1.9321    0.5717 H       1  UNL1        0.0296
     36 H           5.8591   -1.4053   -1.3608 H       1  UNL1        0.0232
     37 H           4.6043   -2.6223   -1.6376 H       1  UNL1        0.0232
     38 H           4.1542   -0.9361   -1.5575 H       1  UNL1        0.0232
     39 H           6.3852   -3.0526    0.6930 H       1  UNL1        0.0232
     40 H           5.1290   -3.2639    1.9264 H       1  UNL1        0.0232
     41 H           4.9175   -3.9718    0.3195 H       1  UNL1        0.0232
     42 H           4.6693    2.2011    2.5872 H       1  UNL1        0.1498
     43 H           7.7337    2.6082    3.7279 H       1  UNL1        0.0471
     44 H           7.4896    3.8605    2.4687 H       1  UNL1        0.0471
     45 H           5.6873    5.3998    5.6447 H       1  UNL1        0.0394
     46 H           7.1812    4.4783    5.6081 H       1  UNL1        0.0394
     47 H           7.8141    5.7112    3.4185 H       1  UNL1        0.0501
     48 H           6.2864    6.5355    3.4807 H       1  UNL1        0.0501
     49 H           5.5289    8.6937    3.8335 H       1  UNL1        0.0307
     50 H           4.9070    7.8508    5.2727 H       1  UNL1        0.0307
     51 H           5.3174    9.5719    5.3535 H       1  UNL1        0.0307
     52 H           9.8025    8.7322    6.7501 H       1  UNL1        0.0869
@<TRIPOS>BOND
     1     1    27    1
     2     1    28    1
     3     1    29    1
     4     2     1    1
     5     3     2    1
     6     4     3    2
     7     6    30    1
     8     6    31    1
     9     6    32    1
    10     7     5    1
    11     7    33    1
    12     7    34    1
    13     8     7    1
    14     8    35    1
    15     9     8    1
    16     9    36    1
    17     9    37    1
    18     9    38    1
    19    10     8    1
    20    10    39    1
    21    10    40    1
    22    10    41    1
    23    11     5    1
    24    11    42    1
    25    12    11   am
    26    13    12    2
    27    14    12    1
    28    14    43    1
    29    14    44    1
    30    15    14    1
    31    16    15    1
    32    16    45    1
    33    16    46    1
    34    17    16    1
    35    17    47    1
    36    17    48    1
    37    18    17    1
    38    19    18   ar
    39    20    19    1
    40    20    49    1
    41    20    50    1
    42    20    51    1
    43    21    19   ar
    44    22    21   ar
    45    22    52    1
    46    23    22   ar
    47    23    18   ar
    48    24    23    1
    49    25    24    2
    50    26    24    2
    51     5     6    1
    52     5     3    1
