@<TRIPOS>MOLECULE
>167.sdf
 34 35 0 0 0
SMALL
GASTEIGER

@<TRIPOS>ATOM
      1 C          -0.2765    1.3440   -2.3550 C.3     1  UNL1        0.0191
      2 N          -0.2277    0.5395   -1.1541 N.ar    1  UNL1       -0.2708
      3 C           0.1612    0.9708    0.1068 C.ar    1  UNL1        0.1522
      4 C           0.5856    2.3687    0.4582 C.3     1  UNL1        0.1472
      5 O           1.8110    2.6342   -0.2244 O.3     1  UNL1       -0.4843
      6 C           2.4224    3.8342    0.0278 C.ar    1  UNL1        0.1212
      7 C           1.9795    4.8245    0.9105 C.ar    1  UNL1       -0.0181
      8 C           2.6890    6.0277    1.0371 C.ar    1  UNL1       -0.0334
      9 C           3.8508    6.2347    0.2871 C.ar    1  UNL1        0.0881
     10 C           4.3068    5.2478   -0.5872 C.ar    1  UNL1       -0.0334
     11 C           3.5939    4.0522   -0.7056 C.ar    1  UNL1       -0.0181
     12 S           4.6648    7.8166    0.3298 S.O2    1  UNL1       -0.0059
     13 C           5.8377    7.6838    1.6514 C.3     1  UNL1        0.0596
     14 O           5.4057    7.9557   -0.9106 O.2     1  UNL1       -0.1696
     15 O           3.6705    8.8009    0.7105 O.2     1  UNL1       -0.1696
     16 N           0.0657   -0.0178    0.9829 N.ar    1  UNL1       -0.2299
     17 C          -0.3754   -1.1113    0.2880 C.ar    1  UNL1        0.1257
     18 C          -0.5654   -0.7882   -1.0295 C.ar    1  UNL1        0.3677
     19 N          -1.0283   -1.6400   -2.0729 N.pl3   1  UNL1        0.1004
     20 O          -1.1604   -1.1556   -3.2021 O.co2   1  UNL1       -0.5747
     21 O          -1.2691   -2.8143   -1.7630 O.2     1  UNL1        0.0431
     22 H           0.3775    0.8924   -3.1055 H       1  UNL1        0.0458
     23 H          -1.3122    1.3803   -2.7047 H       1  UNL1        0.0458
     24 H           0.0620    2.3605   -2.1549 H       1  UNL1        0.0458
     25 H          -0.1921    3.0812    0.1603 H       1  UNL1        0.0779
     26 H           0.7388    2.4179    1.5430 H       1  UNL1        0.0779
     27 H           1.0777    4.7053    1.5035 H       1  UNL1        0.0655
     28 H           2.3138    6.8041    1.7023 H       1  UNL1        0.0638
     29 H           5.1938    5.4057   -1.1983 H       1  UNL1        0.0638
     30 H           3.9448    3.2873   -1.3958 H       1  UNL1        0.0655
     31 H           6.5410    6.8797    1.4308 H       1  UNL1        0.0468
     32 H           6.3744    8.6335    1.7183 H       1  UNL1        0.0468
     33 H           5.3063    7.4963    2.5855 H       1  UNL1        0.0468
     34 H          -0.5360   -2.0644    0.7757 H       1  UNL1        0.0917
@<TRIPOS>UNITY_ATOM_ATTR
19 1
charge 1
20 1
charge -1
@<TRIPOS>BOND
     1     1    22    1
     2     1    23    1
     3     1    24    1
     4     2     1    1
     5     3     2   ar
     6     4     3    1
     7     4    25    1
     8     4    26    1
     9     5     4    1
    10     6     5    1
    11     7     6   ar
    12     7    27    1
    13     8     7   ar
    14     8    28    1
    15     9     8   ar
    16    10     9   ar
    17    10    29    1
    18    11    10   ar
    19    11     6   ar
    20    11    30    1
    21    12     9    1
    22    13    12    1
    23    13    31    1
    24    13    32    1
    25    13    33    1
    26    14    12    2
    27    15    12    2
    28    16     3   ar
    29    17    16   ar
    30    17    34    1
    31    18    17   ar
    32    18     2   ar
    33    19    18    1
    34    20    19    1
    35    21    19    2
