@<TRIPOS>MOLECULE
>141.sdf
 91 96 0 0 0
SMALL
GASTEIGER

@<TRIPOS>ATOM
      1 C           6.7155    3.2275   -1.8539 C.3     1  UNL1       -0.0356
      2 C           6.6941    3.7718   -0.4440 C.2     1  UNL1        0.0022
      3 C           7.2984    3.1771    0.6044 C.2     1  UNL1        0.1671
      4 O           8.0051    1.9958    0.5262 O.2     1  UNL1       -0.5030
      5 C           7.0892    3.7802    1.9790 C.2     1  UNL1        0.2206
      6 O           7.9379    3.7817    2.8574 O.2     1  UNL1       -0.2840
      7 C           5.7209    4.3309    2.2533 C.2     1  UNL1       -0.0067
      8 C           5.0553    4.8163    1.1910 C.2     1  UNL1       -0.0262
      9 C           5.7716    4.8630   -0.1265 C.2     1  UNL1       -0.0144
     10 C           5.3576    5.7156   -1.1076 C.2     1  UNL1       -0.0539
     11 C           3.9452    6.1206   -1.1183 C.2     1  UNL1       -0.0606
     12 C           3.2542    5.2945   -0.2950 C.2     1  UNL1       -0.0529
     13 C           3.7010    5.5615    1.1564 C.3     1  UNL1        0.0154
     14 C           4.1490    7.0502    1.4968 C.3     1  UNL1       -0.0517
     15 C           2.4704    5.4474    2.0768 C.3     1  UNL1       -0.0393
     16 C           1.1571    5.3830    1.2496 C.3     1  UNL1       -0.0455
     17 C           1.1203    4.1028    0.3625 C.3     1  UNL1       -0.0196
     18 C           1.4452    2.9770    1.4783 C.3     1  UNL1       -0.0585
     19 C          -0.3250    3.8845   -0.2280 C.3     1  UNL1       -0.0285
     20 C          -1.3091    3.4286    0.8593 C.3     1  UNL1       -0.0355
     21 C          -2.6666    2.7879    0.5298 C.3     1  UNL1        0.0445
     22 C          -3.8230    3.6082    1.1318 C.3     1  UNL1       -0.0512
     23 C          -2.8439    2.7325   -0.9941 C.3     1  UNL1       -0.0388
     24 C          -1.6074    2.1236   -1.6608 C.3     1  UNL1       -0.0464
     25 C          -0.3260    2.9969   -1.5011 C.3     1  UNL1       -0.0286
     26 C          -0.4529    4.0143   -2.6844 C.3     1  UNL1       -0.0593
     27 C           0.9541    2.0341   -1.5784 C.3     1  UNL1       -0.0465
     28 C           2.3697    2.5387   -0.9898 C.3     1  UNL1       -0.0429
     29 C           2.2841    4.1125   -0.7613 C.3     1  UNL1       -0.0043
     30 C           2.3589    4.3730   -2.3206 C.3     1  UNL1       -0.0553
     31 C          -2.7342    1.3337    1.1186 C.2     1  UNL1        0.2191
     32 O          -3.3357    0.4279    0.5374 O.2     1  UNL1       -0.2752
     33 N          -2.1849    1.0139    2.3241 N.am    1  UNL1       -0.3098
     34 C          -1.6876    1.8872    3.3499 C.3     1  UNL1        0.0517
     35 C          -1.9051    1.3637    4.7616 C.3     1  UNL1       -0.0160
     36 N          -1.7748    2.4928    5.7440 N.4     1  UNL1        0.2363
     37 C          -1.9338    2.0409    7.1674 C.3     1  UNL1       -0.0317
     38 C          -2.1303    3.3549    7.8854 C.3     1  UNL1       -0.0077
     39 C          -3.0341    4.1482    6.9628 C.3     1  UNL1       -0.0077
     40 C          -2.7583    3.6368    5.5613 C.3     1  UNL1       -0.0317
     41 H           6.7518    4.0099   -2.6188 H       1  UNL1        0.0279
     42 H           7.5843    2.5893   -2.0429 H       1  UNL1        0.0279
     43 H           5.8097    2.6353   -2.0351 H       1  UNL1        0.0279
     44 H           7.6540    1.5013   -0.2285 H       1  UNL1        0.2923
     45 H           5.3827    4.3647    3.2672 H       1  UNL1        0.0660
     46 H           5.8310    5.7961   -2.0810 H       1  UNL1        0.0624
     47 H           3.6527    6.3860   -2.1279 H       1  UNL1        0.0618
     48 H           5.0565    7.3898    0.9890 H       1  UNL1        0.0241
     49 H           3.3532    7.7638    1.2607 H       1  UNL1        0.0241
     50 H           4.3685    7.1336    2.5721 H       1  UNL1        0.0241
     51 H           2.5879    4.6430    2.8091 H       1  UNL1        0.0277
     52 H           2.3360    6.3287    2.7193 H       1  UNL1        0.0277
     53 H           1.0336    6.2767    0.6245 H       1  UNL1        0.0271
     54 H           0.3160    5.3992    1.9517 H       1  UNL1        0.0271
     55 H           2.5206    2.8842    1.6774 H       1  UNL1        0.0235
     56 H           1.0866    1.9736    1.2228 H       1  UNL1        0.0235
     57 H           0.9889    3.2272    2.4450 H       1  UNL1        0.0235
     58 H          -0.6878    4.8826   -0.5087 H       1  UNL1        0.0312
     59 H          -0.7667    2.6582    1.3666 H       1  UNL1        0.0278
     60 H          -1.4494    4.2480    1.5736 H       1  UNL1        0.0278
     61 H          -4.7827    3.3152    0.6938 H       1  UNL1        0.0240
     62 H          -3.9214    3.4700    2.2128 H       1  UNL1        0.0240
     63 H          -3.6859    4.6795    0.9447 H       1  UNL1        0.0240
     64 H          -3.7248    2.1355   -1.2605 H       1  UNL1        0.0275
     65 H          -3.0350    3.7395   -1.3845 H       1  UNL1        0.0275
     66 H          -1.8290    1.9814   -2.7285 H       1  UNL1        0.0271
     67 H          -1.4460    1.1168   -1.2660 H       1  UNL1        0.0271
     68 H          -1.4667    4.4226   -2.7611 H       1  UNL1        0.0235
     69 H          -0.1985    3.5708   -3.6504 H       1  UNL1        0.0235
     70 H           0.1357    4.9158   -2.5309 H       1  UNL1        0.0235
     71 H           1.0990    1.7520   -2.6314 H       1  UNL1        0.0271
     72 H           0.7231    1.0829   -1.0795 H       1  UNL1        0.0271
     73 H           3.1718    2.2320   -1.6765 H       1  UNL1        0.0274
     74 H           2.6288    1.9312   -0.1193 H       1  UNL1        0.0274
     75 H           3.4219    4.2557   -2.6320 H       1  UNL1        0.0238
     76 H           1.9316    3.6302   -3.0001 H       1  UNL1        0.0238
     77 H           2.0132    5.3470   -2.6395 H       1  UNL1        0.0238
     78 H          -2.1489    0.0061    2.4527 H       1  UNL1        0.1489
     79 H          -2.1715    2.8535    3.2337 H       1  UNL1        0.0515
     80 H          -0.6055    2.0362    3.2340 H       1  UNL1        0.0515
     81 H          -2.8970    0.9178    4.8777 H       1  UNL1        0.0830
     82 H          -1.1376    0.6221    5.0119 H       1  UNL1        0.0830
     83 H          -0.8267    2.8894    5.6596 H       1  UNL1        0.2034
     84 H          -2.8192    1.3982    7.2155 H       1  UNL1        0.0814
     85 H          -1.0323    1.4959    7.4585 H       1  UNL1        0.0814
     86 H          -2.5620    3.2183    8.8791 H       1  UNL1        0.0319
     87 H          -1.1660    3.8646    7.9949 H       1  UNL1        0.0319
     88 H          -2.8478    5.2270    7.0394 H       1  UNL1        0.0319
     89 H          -4.0885    3.9828    7.2096 H       1  UNL1        0.0319
     90 H          -2.2833    4.3845    4.9164 H       1  UNL1        0.0814
     91 H          -3.6654    3.2442    5.0868 H       1  UNL1        0.0814
@<TRIPOS>UNITY_ATOM_ATTR
36 1
charge 1
@<TRIPOS>BOND
     1     1    41    1
     2     1    42    1
     3     1    43    1
     4     2     1    1
     5     3     2    2
     6     4     3    1
     7     4    44    1
     8     5     3    1
     9     6     5    2
    10     7     5    1
    11     7    45    1
    12     8     7    2
    13     9     8    1
    14     9     2    1
    15    10     9    2
    16    10    46    1
    17    11    10    1
    18    11    47    1
    19    12    11    2
    20    13    12    1
    21    13     8    1
    22    13    14    1
    23    14    48    1
    24    14    49    1
    25    14    50    1
    26    15    13    1
    27    15    51    1
    28    15    52    1
    29    16    15    1
    30    16    53    1
    31    16    54    1
    32    17    16    1
    33    17    18    1
    34    18    55    1
    35    18    56    1
    36    18    57    1
    37    19    17    1
    38    19    58    1
    39    20    19    1
    40    20    59    1
    41    20    60    1
    42    21    20    1
    43    22    61    1
    44    22    62    1
    45    22    63    1
    46    23    21    1
    47    23    64    1
    48    23    65    1
    49    24    23    1
    50    24    66    1
    51    24    67    1
    52    25    24    1
    53    25    19    1
    54    25    26    1
    55    26    68    1
    56    26    69    1
    57    26    70    1
    58    27    25    1
    59    27    71    1
    60    27    72    1
    61    28    27    1
    62    28    73    1
    63    28    74    1
    64    29    28    1
    65    29    12    1
    66    29    17    1
    67    29    30    1
    68    30    75    1
    69    30    76    1
    70    30    77    1
    71    32    31    2
    72    33    31   am
    73    33    78    1
    74    34    33    1
    75    34    79    1
    76    34    80    1
    77    35    34    1
    78    35    81    1
    79    35    82    1
    80    36    35    1
    81    36    83    1
    82    37    36    1
    83    37    84    1
    84    37    85    1
    85    38    37    1
    86    38    86    1
    87    38    87    1
    88    39    38    1
    89    39    88    1
    90    39    89    1
    91    40    39    1
    92    40    36    1
    93    40    90    1
    94    40    91    1
    95    21    31    1
    96    21    22    1
