@<TRIPOS>MOLECULE
>8.sdf
 24 24 0 0 0
SMALL
GASTEIGER

@<TRIPOS>ATOM
      1 N           3.1311    1.9312    0.3770 N.am    1  UNL1       -0.3394
      2 C           2.4536    0.8464    0.8232 C.2     1  UNL1        0.1473
      3 S           0.8028    0.7349    0.7224 S.2     1  UNL1       -0.0174
      4 N           3.2286   -0.1445    1.3646 N.am    1  UNL1       -0.2186
      5 N           4.5834   -0.0046    1.4283 N.2     1  UNL1       -0.1885
      6 C           5.2293   -0.9898    1.9635 C.2     1  UNL1        0.0528
      7 C           6.7012   -0.9470    2.0813 C.ar    1  UNL1       -0.0054
      8 C           7.4053    0.1817    1.6504 C.ar    1  UNL1       -0.0526
      9 C           8.7974    0.2152    1.7395 C.ar    1  UNL1       -0.0495
     10 C           9.5016   -0.8799    2.2598 C.ar    1  UNL1        0.0548
     11 C           8.7820   -2.0050    2.7016 C.ar    1  UNL1       -0.0495
     12 C           7.3849   -2.0396    2.6137 C.ar    1  UNL1       -0.0526
     13 C          11.0101   -0.8616    2.3419 C.3     1  UNL1        0.4174
     14 F          11.5679    0.2845    1.8606 F       1  UNL1       -0.1659
     15 F          11.4628   -0.9902    3.6190 F       1  UNL1       -0.1659
     16 F          11.5795   -1.8778    1.6372 F       1  UNL1       -0.1659
     17 H           2.6655    2.6987   -0.0833 H       1  UNL1        0.1440
     18 H           4.1419    1.8767    0.4068 H       1  UNL1        0.1440
     19 H           2.7722   -0.9812    1.7136 H       1  UNL1        0.1762
     20 H           4.7170   -1.8915    2.3443 H       1  UNL1        0.0851
     21 H           6.8769    1.0399    1.2402 H       1  UNL1        0.0624
     22 H           9.3278    1.1012    1.3942 H       1  UNL1        0.0623
     23 H           9.3146   -2.8622    3.1125 H       1  UNL1        0.0623
     24 H           6.8520   -2.9231    2.9576 H       1  UNL1        0.0624
@<TRIPOS>BOND
     1     1    17    1
     2     1    18    1
     3     2     1    1
     4     3     2    2
     5     4     2    1
     6     4    19    1
     7     5     4    1
     8     6     5    2
     9     6    20    1
    10     7     6    1
    11     8     7   ar
    12     8    21    1
    13     9     8   ar
    14     9    22    1
    15    10     9   ar
    16    11    10   ar
    17    11    23    1
    18    12    11   ar
    19    12     7   ar
    20    12    24    1
    21    13    10    1
    22    14    13    1
    23    15    13    1
    24    16    13    1
