@<TRIPOS>MOLECULE
>60.sdf
 70 74 0 0 0
SMALL
GASTEIGER

@<TRIPOS>ATOM
      1 C           5.0208   -0.7878   -0.8377 C.3     1  UNL1        0.0788
      2 O           4.0936   -0.4531    0.1847 O.3     1  UNL1       -0.4951
      3 C           4.5709   -0.0664    1.4056 C.ar    1  UNL1        0.1201
      4 C           5.8911    0.2037    1.7653 C.ar    1  UNL1       -0.0193
      5 C           6.2206    0.6436    3.0807 C.ar    1  UNL1       -0.0490
      6 C           5.2434    0.8112    4.0767 C.ar    1  UNL1        0.0026
      7 C           3.9170    0.5447    3.6672 C.ar    1  UNL1       -0.0490
      8 C           3.5874    0.1157    2.3702 C.ar    1  UNL1       -0.0193
      9 C           5.4872    1.3461    5.4427 C.ar    1  UNL1        0.0957
     10 C           6.7081    1.5828    6.1363 C.ar    1  UNL1        0.0738
     11 N           7.3399    0.7426    7.0879 N.ar    1  UNL1       -0.3525
     12 C           7.8317    1.4975    8.1553 C.ar    1  UNL1        0.0475
     13 C           7.9498    2.7995    7.6834 C.ar    1  UNL1        0.0075
     14 C           8.4660    3.8098    8.5306 C.ar    1  UNL1       -0.0520
     15 C           8.6067    3.5374    9.8934 C.ar    1  UNL1       -0.0611
     16 C           8.3212    2.2636   10.3833 C.ar    1  UNL1       -0.0598
     17 C           7.9969    1.2008    9.5202 C.ar    1  UNL1       -0.0378
     18 C           6.8546    2.8599    6.7502 C.ar    1  UNL1        0.0117
     19 C           5.6405    3.5843    6.9572 C.ar    1  UNL1       -0.0214
     20 C           4.6192    2.6679    7.1412 C.ar    1  UNL1        0.1267
     21 N           4.3924    1.8702    6.0854 N.ar    1  UNL1       -0.2400
     22 C           4.4060    1.9214    8.4700 C.2     1  UNL1        0.2625
     23 O           4.0147    0.7489    8.4622 O.2     1  UNL1       -0.2685
     24 N           4.6399    2.4657    9.7121 N.am    1  UNL1       -0.3086
     25 C           5.3260    3.6732   10.1373 C.3     1  UNL1        0.0275
     26 C           4.4281    4.8615   10.4562 C.3     1  UNL1        0.0274
     27 N           3.5581    4.5987   11.5757 N.pl3   1  UNL1       -0.3118
     28 C           4.0148    4.6172   12.8710 C.ar    1  UNL1        0.2211
     29 N           5.3073    4.5876   13.1894 N.ar    1  UNL1       -0.1809
     30 C           5.5964    4.5523   14.4865 C.ar    1  UNL1        0.2232
     31 N           4.6615    4.5443   15.4281 N.ar    1  UNL1       -0.1807
     32 C           3.3920    4.5844   15.0340 C.ar    1  UNL1        0.2232
     33 N           3.0438    4.6554   13.7600 N.ar    1  UNL1       -0.1809
     34 N           2.3778    4.5766   15.9728 N.pl3   1  UNL1       -0.3056
     35 C           2.6692    4.3119   17.3647 C.3     1  UNL1        0.0031
     36 C           1.0447    4.2824   15.4764 C.3     1  UNL1        0.0031
     37 N           6.9193    4.4945   14.9021 N.pl3   1  UNL1       -0.3056
     38 C           8.0152    4.6701   13.9791 C.3     1  UNL1        0.0031
     39 C           7.1918    4.5955   16.3256 C.3     1  UNL1        0.0031
     40 H           5.7569    0.0028   -1.0045 H       1  UNL1        0.0660
     41 H           5.5061   -1.7459   -0.6237 H       1  UNL1        0.0660
     42 H           4.4574   -0.9025   -1.7714 H       1  UNL1        0.0660
     43 H           6.6947    0.1185    1.0394 H       1  UNL1        0.0654
     44 H           7.2590    0.8946    3.2877 H       1  UNL1        0.0625
     45 H           3.0959    0.7004    4.3672 H       1  UNL1        0.0625
     46 H           2.5442   -0.0550    2.1129 H       1  UNL1        0.0654
     47 H           7.0626   -0.2210    7.2018 H       1  UNL1        0.1660
     48 H           8.5118    4.8393    8.1819 H       1  UNL1        0.0624
     49 H           8.7839    4.3624   10.5814 H       1  UNL1        0.0618
     50 H           8.2550    2.1188   11.4622 H       1  UNL1        0.0618
     51 H           7.7039    0.2390    9.9319 H       1  UNL1        0.0638
     52 H           5.4597    4.2913    6.1402 H       1  UNL1        0.0647
     53 H           4.4446    1.7997   10.4518 H       1  UNL1        0.1491
     54 H           5.9088    3.3912   11.0186 H       1  UNL1        0.0477
     55 H           6.0089    3.9881    9.3633 H       1  UNL1        0.0477
     56 H           5.0360    5.7569   10.6301 H       1  UNL1        0.0477
     57 H           3.8062    5.0623    9.5762 H       1  UNL1        0.0477
     58 H           2.6624    5.0734   11.5718 H       1  UNL1        0.1490
     59 H           2.1678    5.0694   17.9769 H       1  UNL1        0.0428
     60 H           2.2859    3.3304   17.6647 H       1  UNL1        0.0428
     61 H           3.7324    4.3488   17.6219 H       1  UNL1        0.0428
     62 H           0.6821    5.0952   14.8369 H       1  UNL1        0.0428
     63 H           1.0196    3.3440   14.9078 H       1  UNL1        0.0428
     64 H           0.3320    4.1809   16.3016 H       1  UNL1        0.0428
     65 H           8.5464    5.6063   14.1859 H       1  UNL1        0.0428
     66 H           8.7304    3.8487   14.1043 H       1  UNL1        0.0428
     67 H           7.7183    4.6814   12.9273 H       1  UNL1        0.0428
     68 H           6.7689    5.5110   16.7558 H       1  UNL1        0.0428
     69 H           6.7913    3.7284   16.8624 H       1  UNL1        0.0428
     70 H           8.2710    4.6195   16.5198 H       1  UNL1        0.0428
@<TRIPOS>BOND
     1     1    40    1
     2     1    41    1
     3     1    42    1
     4     2     1    1
     5     3     2    1
     6     4     3   ar
     7     4    43    1
     8     5     4   ar
     9     5    44    1
    10     6     5   ar
    11     7     6   ar
    12     7    45    1
    13     8     7   ar
    14     8     3   ar
    15     8    46    1
    16     9     6    1
    17    10     9   ar
    18    11    10   ar
    19    11    47    1
    20    12    11   ar
    21    13    12   ar
    22    14    13   ar
    23    14    48    1
    24    15    14   ar
    25    15    49    1
    26    16    15   ar
    27    16    50    1
    28    17    16   ar
    29    17    12   ar
    30    17    51    1
    31    18    13   ar
    32    18    10   ar
    33    19    18   ar
    34    19    52    1
    35    20    19   ar
    36    21    20   ar
    37    21     9   ar
    38    22    20    1
    39    23    22    2
    40    24    22   am
    41    24    53    1
    42    25    24    1
    43    25    54    1
    44    25    55    1
    45    26    25    1
    46    26    56    1
    47    26    57    1
    48    27    26    1
    49    27    58    1
    50    28    27    1
    51    29    28   ar
    52    30    29   ar
    53    31    30   ar
    54    32    31   ar
    55    33    32   ar
    56    33    28   ar
    57    34    32    1
    58    35    34    1
    59    35    59    1
    60    35    60    1
    61    35    61    1
    62    36    34    1
    63    36    62    1
    64    36    63    1
    65    36    64    1
    66    37    30    1
    67    38    37    1
    68    38    65    1
    69    38    66    1
    70    38    67    1
    71    39    37    1
    72    39    68    1
    73    39    69    1
    74    39    70    1
