@<TRIPOS>MOLECULE
>100.sdf
 47 48 0 0 0
SMALL
GASTEIGER

@<TRIPOS>ATOM
      1 C           5.0576    0.8595   -1.1328 C.3     1  UNL1       -0.0306
      2 C           4.1368    1.3682   -0.0307 C.3     1  UNL1        0.0900
      3 O           4.5680    0.9580    1.2823 O.3     1  UNL1       -0.4616
      4 C           4.3874   -0.3557    1.5515 C.2     1  UNL1        0.3375
      5 O           3.8789   -1.1545    0.7790 O.2     1  UNL1       -0.2452
      6 C           4.9074   -0.7315    2.8931 C.2     1  UNL1        0.0652
      7 C           4.3176   -1.7341    3.5888 C.2     1  UNL1        0.0157
      8 C           3.0832   -2.5188    3.1984 C.3     1  UNL1       -0.0260
      9 N           4.8661   -2.1442    4.7918 N.pl3   1  UNL1       -0.3207
     10 C           6.1307   -1.8031    5.2402 C.2     1  UNL1        0.0157
     11 C           6.6000   -2.6558    6.3968 C.3     1  UNL1       -0.0260
     12 C           6.8117   -0.7999    4.6313 C.2     1  UNL1        0.0652
     13 C           6.1726   -0.0356    3.4499 C.3     1  UNL1        0.0506
     14 C           7.1881    0.2682    2.3445 C.ar    1  UNL1       -0.0337
     15 C           7.4610    1.6084    2.0049 C.ar    1  UNL1       -0.0393
     16 C           8.3779    1.9075    1.0020 C.ar    1  UNL1        0.0413
     17 CL          8.6867    3.5482    0.5882 Cl      1  UNL1       -0.0835
     18 C           9.0391    0.8834    0.3323 C.ar    1  UNL1       -0.0434
     19 C           8.7790   -0.4478    0.6595 C.ar    1  UNL1       -0.0601
     20 C           7.8531   -0.7568    1.6582 C.ar    1  UNL1       -0.0576
     21 C           8.2158   -0.4999    5.0301 C.2     1  UNL1        0.3375
     22 O           8.9969   -1.3479    5.4412 O.2     1  UNL1       -0.2452
     23 O           8.5324    0.8111    4.8599 O.3     1  UNL1       -0.4616
     24 C           9.9145    1.0894    5.1388 C.3     1  UNL1        0.0900
     25 C          10.2804    2.4751    4.6427 C.3     1  UNL1       -0.0306
     26 H           4.6664    1.1356   -2.1166 H       1  UNL1        0.0262
     27 H           6.0598    1.2807   -1.0258 H       1  UNL1        0.0262
     28 H           5.1714   -0.2289   -1.1098 H       1  UNL1        0.0262
     29 H           4.1438    2.4636   -0.0404 H       1  UNL1        0.0695
     30 H           3.1015    1.0520   -0.1998 H       1  UNL1        0.0695
     31 H           3.3463   -3.5772    3.0755 H       1  UNL1        0.0290
     32 H           2.3351   -2.4503    3.9956 H       1  UNL1        0.0290
     33 H           2.5871   -2.1949    2.2861 H       1  UNL1        0.0290
     34 H           4.4511   -2.9746    5.2114 H       1  UNL1        0.1516
     35 H           5.8374   -2.6659    7.1843 H       1  UNL1        0.0290
     36 H           6.7423   -3.6893    6.0565 H       1  UNL1        0.0290
     37 H           7.5216   -2.3261    6.8740 H       1  UNL1        0.0290
     38 H           5.8269    0.9217    3.8656 H       1  UNL1        0.0451
     39 H           6.9484    2.4194    2.5197 H       1  UNL1        0.0635
     40 H           9.7578    1.1147   -0.4512 H       1  UNL1        0.0632
     41 H           9.2937   -1.2481    0.1360 H       1  UNL1        0.0618
     42 H           7.6608   -1.8014    1.8953 H       1  UNL1        0.0621
     43 H          10.0696    1.0349    6.2216 H       1  UNL1        0.0695
     44 H          10.5647    0.3581    4.6412 H       1  UNL1        0.0695
     45 H          10.2583    2.5114    3.5489 H       1  UNL1        0.0262
     46 H           9.5730    3.2238    5.0091 H       1  UNL1        0.0262
     47 H          11.2899    2.7457    4.9706 H       1  UNL1        0.0262
@<TRIPOS>BOND
     1     1    26    1
     2     1    27    1
     3     1    28    1
     4     2     1    1
     5     2    29    1
     6     2    30    1
     7     3     2    1
     8     4     3    1
     9     5     4    2
    10     6     4    1
    11     7     6    2
    12     8     7    1
    13     8    31    1
    14     8    32    1
    15     8    33    1
    16     9     7    1
    17     9    34    1
    18    10     9    1
    19    11    10    1
    20    11    35    1
    21    11    36    1
    22    11    37    1
    23    12    10    2
    24    13    12    1
    25    13     6    1
    26    15    14   ar
    27    15    39    1
    28    16    15   ar
    29    17    16    1
    30    18    16   ar
    31    18    40    1
    32    19    18   ar
    33    19    41    1
    34    20    19   ar
    35    20    14   ar
    36    20    42    1
    37    21    12    1
    38    22    21    2
    39    23    21    1
    40    24    23    1
    41    24    43    1
    42    24    44    1
    43    25    24    1
    44    25    45    1
    45    25    46    1
    46    25    47    1
    47    13    14    1
    48    13    38    1
