@<TRIPOS>MOLECULE
>173.sdf
 35 37 0 0 0
SMALL
GASTEIGER

@<TRIPOS>ATOM
      1 C           1.0510    0.2120   -0.1241 C.3     1  UNL1       -0.0188
      2 C           2.5603    0.0834   -0.0194 C.2     1  UNL1        0.0814
      3 N           3.2550   -0.7977   -0.6787 N.2     1  UNL1       -0.1836
      4 N           2.6099   -1.6844   -1.4853 N.pl3   1  UNL1       -0.2150
      5 C           3.2658   -2.6674   -2.1545 C.ar    1  UNL1        0.1783
      6 N           4.5443   -2.6686   -2.4523 N.ar    1  UNL1       -0.2236
      7 C           4.8839   -3.7964   -3.1756 C.ar    1  UNL1        0.0803
      8 C           3.8592   -4.7036   -3.3452 C.ar    1  UNL1        0.0049
      9 S           2.4091   -4.0719   -2.6850 S.2     1  UNL1       -0.0586
     10 C           6.2457   -3.9887   -3.6530 C.ar    1  UNL1        0.0010
     11 C           7.3031   -3.4002   -2.9452 C.ar    1  UNL1       -0.0515
     12 C           8.6245   -3.5797   -3.3572 C.ar    1  UNL1       -0.0471
     13 C           8.8946   -4.3382   -4.4937 C.ar    1  UNL1        0.0179
     14 BR         10.6822   -4.5921   -5.0497 Br      1  UNL1       -0.0503
     15 C           7.8541   -4.9103   -5.2245 C.ar    1  UNL1       -0.0471
     16 C           6.5319   -4.7342   -4.8065 C.ar    1  UNL1       -0.0515
     17 C           3.2796    1.0178    0.9106 C.ar    1  UNL1        0.0862
     18 C           4.6585    0.9192    1.0742 C.ar    1  UNL1       -0.0345
     19 C           5.2871    1.8139    1.9403 C.ar    1  UNL1       -0.0583
     20 C           4.5282    2.7644    2.6082 C.ar    1  UNL1       -0.0436
     21 C           3.1615    2.7831    2.3896 C.ar    1  UNL1        0.0283
     22 N           2.5206    1.9335    1.5608 N.ar    1  UNL1       -0.2537
     23 H           0.7778    0.3862   -1.1786 H       1  UNL1        0.0294
     24 H           0.5853   -0.7156    0.2239 H       1  UNL1        0.0294
     25 H           0.6443    1.0369    0.4577 H       1  UNL1        0.0294
     26 H           1.6554   -1.5124   -1.7779 H       1  UNL1        0.1765
     27 H           3.8813   -5.6778   -3.8128 H       1  UNL1        0.0716
     28 H           7.0964   -2.7992   -2.0601 H       1  UNL1        0.0624
     29 H           9.4289   -3.1255   -2.7847 H       1  UNL1        0.0629
     30 H           8.0607   -5.4921   -6.1189 H       1  UNL1        0.0629
     31 H           5.7345   -5.1732   -5.4007 H       1  UNL1        0.0624
     32 H           5.2345    0.1680    0.5473 H       1  UNL1        0.0639
     33 H           6.3641    1.7629    2.0876 H       1  UNL1        0.0619
     34 H           4.9897    3.4773    3.2841 H       1  UNL1        0.0633
     35 H           2.5241    3.5070    2.8917 H       1  UNL1        0.0830
@<TRIPOS>BOND
     1     1    23    1
     2     1    24    1
     3     1    25    1
     4     2     1    1
     5     3     2    2
     6     4     3    1
     7     4    26    1
     8     5     4    1
     9     6     5   ar
    10     7     6   ar
    11     8     7   ar
    12     8    27    1
    13     9     8   ar
    14     9     5   ar
    15    10     7    1
    16    11    10   ar
    17    11    28    1
    18    12    11   ar
    19    12    29    1
    20    13    12   ar
    21    14    13    1
    22    15    13   ar
    23    15    30    1
    24    16    15   ar
    25    16    10   ar
    26    16    31    1
    27    17     2    1
    28    18    17   ar
    29    18    32    1
    30    19    18   ar
    31    19    33    1
    32    20    19   ar
    33    20    34    1
    34    21    20   ar
    35    21    35    1
    36    22    21   ar
    37    22    17   ar
