@<TRIPOS>MOLECULE
>7.sdf
 21 21 0 0 0
SMALL
GASTEIGER

@<TRIPOS>ATOM
      1 N           3.3444    2.0134   -0.8782 N.am    1  UNL1       -0.3394
      2 C           2.6205    1.4653    0.1269 C.2     1  UNL1        0.1473
      3 S           0.9664    1.3715    0.0527 S.2     1  UNL1       -0.0174
      4 N           3.3446    1.0093    1.1950 N.am    1  UNL1       -0.2186
      5 N           4.7030    1.1156    1.1995 N.2     1  UNL1       -0.1884
      6 C           5.3077    0.6912    2.2635 C.2     1  UNL1        0.0542
      7 C           6.7874    0.7370    2.3413 C.ar    1  UNL1        0.0129
      8 C           7.5023    1.2753    1.2581 C.ar    1  UNL1       -0.0503
      9 C           8.8973    1.3027    1.2673 C.ar    1  UNL1       -0.0427
     10 C           9.5847    0.7936    2.3673 C.ar    1  UNL1        0.0424
     11 CL         11.3042    0.8113    2.3772 Cl      1  UNL1       -0.0835
     12 C           8.8901    0.2645    3.4530 C.ar    1  UNL1       -0.0244
     13 C           7.4906    0.2377    3.4464 C.ar    1  UNL1        0.0510
     14 CL          6.7046   -0.4461    4.8240 Cl      1  UNL1       -0.0828
     15 H           2.8953    2.2906   -1.7389 H       1  UNL1        0.1440
     16 H           4.3468    1.8930   -0.8353 H       1  UNL1        0.1440
     17 H           2.8534    0.5598    1.9639 H       1  UNL1        0.1762
     18 H           4.7428    0.2853    3.1219 H       1  UNL1        0.0852
     19 H           6.9761    1.6692    0.3892 H       1  UNL1        0.0625
     20 H           9.4355    1.7124    0.4179 H       1  UNL1        0.0632
     21 H           9.4396   -0.1351    4.3017 H       1  UNL1        0.0647
@<TRIPOS>BOND
     1     1    15    1
     2     1    16    1
     3     2     1    1
     4     3     2    2
     5     4     2    1
     6     4    17    1
     7     5     4    1
     8     6     5    2
     9     6    18    1
    10     7     6    1
    11     8     7   ar
    12     8    19    1
    13     9     8   ar
    14     9    20    1
    15    10     9   ar
    16    11    10    1
    17    12    10   ar
    18    12    21    1
    19    13    12   ar
    20    13     7   ar
    21    14    13    1
