@<TRIPOS>MOLECULE
>56.sdf
 36 38 0 0 0
SMALL
GASTEIGER

@<TRIPOS>ATOM
      1 C           2.5373   -2.5178   -5.7796 C.3     1  UNL1        0.0788
      2 O           1.8475   -1.3188   -5.4476 O.3     1  UNL1       -0.4951
      3 C           2.6370   -0.2266   -5.2122 C.ar    1  UNL1        0.1202
      4 C           4.0308   -0.2382   -5.2203 C.ar    1  UNL1       -0.0182
      5 C           4.7340    0.9286   -4.9658 C.ar    1  UNL1       -0.0371
      6 C           4.0638    2.1279   -4.7364 C.ar    1  UNL1        0.0315
      7 N           4.8812    3.2138   -4.3508 N.pl3   1  UNL1       -0.3145
      8 C           4.5295    4.5726   -4.2977 C.ar    1  UNL1        0.0321
      9 C           4.8199    5.1943   -3.0887 C.ar    1  UNL1       -0.0385
     10 C           4.2529    6.3951   -2.8141 C.ar    1  UNL1       -0.0338
     11 C           3.5229    7.0315   -3.7492 C.ar    1  UNL1        0.0780
     12 N           2.9507    8.0590   -3.2069 N.ar    1  UNL1       -0.2146
     13 C           3.0518    9.1496   -3.9011 C.ar    1  UNL1        0.2148
     14 N           3.4879   10.1242   -3.0294 N.pl3   1  UNL1       -0.3274
     15 N           3.1813    9.1880   -5.2167 N.ar    1  UNL1       -0.1995
     16 C           3.3884    7.9911   -5.8479 C.ar    1  UNL1        0.1291
     17 N           3.5489    8.1847   -7.2092 N.pl3   1  UNL1       -0.3425
     18 C           3.6301    6.7586   -5.1339 C.ar    1  UNL1        0.0418
     19 C           3.9787    5.3598   -5.3514 C.ar    1  UNL1       -0.0281
     20 C           2.6701    2.1418   -4.6864 C.ar    1  UNL1       -0.0371
     21 C           1.9560    0.9599   -4.9324 C.ar    1  UNL1       -0.0182
     22 H           3.1719   -2.3775   -6.6662 H       1  UNL1        0.0660
     23 H           3.1427   -2.8624   -4.9255 H       1  UNL1        0.0660
     24 H           1.8087   -3.2890   -6.0080 H       1  UNL1        0.0660
     25 H           4.6087   -1.1342   -5.4100 H       1  UNL1        0.0655
     26 H           5.8206    0.9048   -4.9303 H       1  UNL1        0.0637
     27 H           5.2017    2.9346   -3.4040 H       1  UNL1        0.1522
     28 H           5.3994    4.7171   -2.2992 H       1  UNL1        0.0637
     29 H           4.4533    6.8886   -1.8772 H       1  UNL1        0.0639
     30 H           2.7831   10.8323   -2.8990 H       1  UNL1        0.1452
     31 H           3.5421    9.5536   -2.1783 H       1  UNL1        0.1452
     32 H           3.5971    9.2129   -7.2902 H       1  UNL1        0.1437
     33 H           2.7285    7.9167   -7.7446 H       1  UNL1        0.1437
     34 H           3.9257    4.9231   -6.3690 H       1  UNL1        0.0644
     35 H           2.1247    3.0460   -4.4274 H       1  UNL1        0.0637
     36 H           0.8713    0.9715   -4.8914 H       1  UNL1        0.0655
@<TRIPOS>BOND
     1     1    22    1
     2     1    23    1
     3     1    24    1
     4     2     1    1
     5     3     2    1
     6     4     3   ar
     7     4    25    1
     8     5     4   ar
     9     5    26    1
    10     6     5   ar
    11     7     6    1
    12     7    27    1
    13     8     7    1
    14     9     8   ar
    15     9    28    1
    16    10     9   ar
    17    10    29    1
    18    11    10   ar
    19    12    11   ar
    20    13    12   ar
    21    14    13    1
    22    14    30    1
    23    14    31    1
    24    15    13   ar
    25    16    15   ar
    26    17    16    1
    27    17    32    1
    28    17    33    1
    29    18    16   ar
    30    18    11   ar
    31    19    18   ar
    32    19     8   ar
    33    19    34    1
    34    20     6   ar
    35    20    35    1
    36    21    20   ar
    37    21     3   ar
    38    21    36    1
