@<TRIPOS>MOLECULE
>134.sdf
 34 36 0 0 0
SMALL
GASTEIGER

@<TRIPOS>ATOM
      1 O           3.2637   -0.2870    1.1356 O.3     1  UNL1       -0.4771
      2 C           2.4349   -0.0823    0.0867 C.2     1  UNL1        0.3375
      3 O           1.2244   -0.0343    0.2048 O.2     1  UNL1       -0.2451
      4 C           3.1514    0.0674   -1.2066 C.ar    1  UNL1        0.0700
      5 C           4.2153   -0.8016   -1.4608 C.ar    1  UNL1       -0.0217
      6 C           4.8943   -0.6778   -2.6570 C.ar    1  UNL1        0.0654
      7 C           6.0452   -1.5504   -2.9239 C.2     1  UNL1       -0.0357
      8 C           6.7690   -1.5446   -4.0562 C.2     1  UNL1       -0.0526
      9 C           7.9224   -2.4305   -4.2829 C.ar    1  UNL1       -0.0249
     10 C           7.9982   -3.7163   -3.7247 C.ar    1  UNL1       -0.0532
     11 C           9.1068   -4.5340   -3.9591 C.ar    1  UNL1       -0.0428
     12 C          10.1407   -4.0791   -4.7716 C.ar    1  UNL1        0.0410
     13 CL         11.5061   -5.0845   -5.0572 Cl      1  UNL1       -0.0835
     14 C          10.0711   -2.8168   -5.3561 C.ar    1  UNL1       -0.0428
     15 C           8.9632   -1.9972   -5.1152 C.ar    1  UNL1       -0.0532
     16 N           4.5504    0.2262   -3.5942 N.ar    1  UNL1       -0.2472
     17 C           3.5016    1.0365   -3.3730 C.ar    1  UNL1        0.0724
     18 C           3.1503    1.9327   -4.3743 C.ar    1  UNL1       -0.0357
     19 C           2.0839    2.8199   -4.2345 C.ar    1  UNL1       -0.0597
     20 C           1.3447    2.8221   -3.0604 C.ar    1  UNL1       -0.0611
     21 C           1.6763    1.9317   -2.0394 C.ar    1  UNL1       -0.0518
     22 C           2.7504    1.0176   -2.1783 C.ar    1  UNL1        0.0144
     23 H           4.4917   -1.5745   -0.7509 H       1  UNL1        0.0647
     24 H           6.3087   -2.2248   -2.1161 H       1  UNL1        0.0639
     25 H           6.5290   -0.8487   -4.8583 H       1  UNL1        0.0624
     26 H           7.1932   -4.1047   -3.1062 H       1  UNL1        0.0624
     27 H           9.1511   -5.5217   -3.5082 H       1  UNL1        0.0632
     28 H          10.8736   -2.4635   -5.9979 H       1  UNL1        0.0632
     29 H           8.9268   -1.0127   -5.5776 H       1  UNL1        0.0624
     30 H           3.7261    1.9376   -5.2981 H       1  UNL1        0.0639
     31 H           1.8323    3.5027   -5.0421 H       1  UNL1        0.0618
     32 H           0.5081    3.5062   -2.9394 H       1  UNL1        0.0618
     33 H           1.0724    1.9554   -1.1335 H       1  UNL1        0.0624
     34 H           4.2145   -0.1582    0.9621 H       1  UNL1        0.2954
@<TRIPOS>BOND
     1     2     1    1
     2     3     2    2
     3     4     2    1
     4     5     4   ar
     5     5    23    1
     6     6     5   ar
     7     7     6    1
     8     7    24    1
     9     8     7    2
    10     8    25    1
    11     9     8    1
    12    10     9   ar
    13    10    26    1
    14    11    10   ar
    15    11    27    1
    16    12    11   ar
    17    13    12    1
    18    14    12   ar
    19    14    28    1
    20    15    14   ar
    21    15     9   ar
    22    15    29    1
    23    16     6   ar
    24    17    16   ar
    25    18    17   ar
    26    18    30    1
    27    19    18   ar
    28    19    31    1
    29    20    19   ar
    30    20    32    1
    31    21    20   ar
    32    21    33    1
    33    22    21   ar
    34    22     4   ar
    35    22    17   ar
    36     1    34    1
