@<TRIPOS>MOLECULE
>171.sdf
 38 40 0 0 0
SMALL
GASTEIGER

@<TRIPOS>ATOM
      1 C           2.9972   -1.3036   -0.7374 C.3     1  UNL1       -0.0198
      2 C           2.5241    0.0327   -0.1544 C.3     1  UNL1        0.1623
      3 C           2.9446    0.1701    1.3171 C.3     1  UNL1        0.1306
      4 O           4.3706    0.1729    1.4249 O.3     1  UNL1       -0.4880
      5 C           4.8825    0.1980    2.6941 C.ar    1  UNL1        0.1209
      6 C           4.1431    0.3672    3.8642 C.ar    1  UNL1       -0.0165
      7 C           4.7744    0.3654    5.1151 C.ar    1  UNL1       -0.0162
      8 C           6.1466    0.1523    5.2092 C.ar    1  UNL1        0.1302
      9 O           6.8690    0.0865    6.3600 O.3     1  UNL1       -0.4057
     10 C           6.2504   -0.3879    7.5493 C.3     1  UNL1        0.5752
     11 F           5.0458   -0.9656    7.3574 F       1  UNL1       -0.1328
     12 F           7.0610   -1.3127    8.1120 F       1  UNL1       -0.1328
     13 F           6.1099    0.6342    8.4204 F       1  UNL1       -0.1328
     14 C           6.8944    0.0339    4.0352 C.ar    1  UNL1       -0.0162
     15 C           6.2669    0.0527    2.7853 C.ar    1  UNL1       -0.0165
     16 C           3.0405    1.2284   -1.0046 C.3     1  UNL1        0.0704
     17 N           1.7924    1.7706   -1.4753 N.ar    1  UNL1       -0.2963
     18 C           1.3632    2.7739   -2.2506 C.ar    1  UNL1        0.0420
     19 CA         -0.0243    2.6353   -2.2130 C.ar    1  UNL1        0.1688
     20 N          -0.4042    1.5510   -1.4046 N.ar    1  UNL1       -0.1883
     21 C           0.7413    1.0759   -0.9967 C.ar    1  UNL1        0.2997
     22 O           1.0554    0.0579   -0.2166 O.3     1  UNL1       -0.4520
     23 C          -1.0098    3.4628   -2.8952 C.2     1  UNL1        0.3569
     24 O          -2.2827    3.0439   -2.6522 O.3     1  UNL1       -0.4760
     25 OXT        -0.7481    4.4208   -3.6065 O.2     1  UNL1       -0.2433
     26 H           4.0891   -1.3640   -0.7797 H       1  UNL1        0.0270
     27 H           2.6266   -2.1413   -0.1352 H       1  UNL1        0.0270
     28 H           2.6013   -1.4500   -1.7484 H       1  UNL1        0.0270
     29 H           2.5361    1.1062    1.7192 H       1  UNL1        0.0737
     30 H           2.5167   -0.6638    1.8902 H       1  UNL1        0.0737
     31 H           3.0669    0.5071    3.8484 H       1  UNL1        0.0655
     32 H           4.1567    0.5333    5.9922 H       1  UNL1        0.0655
     33 H           7.9741   -0.0886    4.0897 H       1  UNL1        0.0655
     34 H           6.8662   -0.0579    1.8849 H       1  UNL1        0.0655
     35 H           3.5501    2.0009   -0.4218 H       1  UNL1        0.0534
     36 H           3.6419    0.9321   -1.8685 H       1  UNL1        0.0534
     37 H           2.0038    3.4828   -2.7577 H       1  UNL1        0.0834
     38 H          -2.2171    2.2601   -2.0575 H       1  UNL1        0.2955
@<TRIPOS>BOND
     1     1    26    1
     2     1    27    1
     3     1    28    1
     4     2     1    1
     5     3     2    1
     6     3    29    1
     7     3    30    1
     8     4     3    1
     9     5     4    1
    10     6     5   ar
    11     6    31    1
    12     7     6   ar
    13     7    32    1
    14     8     7   ar
    15     9     8    1
    16    10     9    1
    17    11    10    1
    18    12    10    1
    19    13    10    1
    20    14     8   ar
    21    14    33    1
    22    15    14   ar
    23    15     5   ar
    24    15    34    1
    25    16     2    1
    26    16    35    1
    27    16    36    1
    28    17    16    1
    29    18    17   ar
    30    18    37    1
    31    19    18   ar
    32    20    19   ar
    33    21    20   ar
    34    21    17   ar
    35    22    21    1
    36    22     2    1
    37    23    19    1
    38    24    23    1
    39    25    23    2
    40    24    38    1
