@<TRIPOS>MOLECULE
>178.sdf
 53 56 0 0 0
SMALL
GASTEIGER

@<TRIPOS>ATOM
      1 C           3.4619   -0.5168   -0.9374 C.3     1  UNL1        0.0037
      2 N           2.4948    0.1406   -0.0385 N.pl3   1  UNL1       -0.2992
      3 C           1.6395   -0.8097    0.7205 C.3     1  UNL1        0.0355
      4 C           1.2952   -2.1185   -0.0356 C.3     1  UNL1        0.0063
      5 C           0.3095   -3.0078    0.7145 C.3     1  UNL1       -0.0304
      6 N          -0.9584   -2.2686    1.0261 N.4     1  UNL1        0.2332
      7 C          -1.7921   -1.9032   -0.1626 C.3     1  UNL1       -0.0431
      8 C          -0.6578   -1.0862    1.8981 C.3     1  UNL1       -0.0304
      9 C           0.3114   -0.1318    1.1796 C.3     1  UNL1        0.0063
     10 C           3.1727    1.1868    0.6798 C.ar    1  UNL1        0.2201
     11 N           2.9251    1.5168    1.9711 N.ar    1  UNL1       -0.1982
     12 C           3.6398    2.4901    2.6652 C.ar    1  UNL1        0.1411
     13 N           3.2574    2.8185    3.9788 N.pl3   1  UNL1       -0.3101
     14 C           3.4470    4.1801    4.5105 C.3     1  UNL1        0.0139
     15 C           4.4046    4.0315    5.6915 C.3     1  UNL1       -0.0355
     16 C           4.0154    2.6869    6.2621 C.3     1  UNL1       -0.0320
     17 C           3.6416    1.8405    5.0231 C.3     1  UNL1        0.0376
     18 C           2.4637    0.9678    5.4179 C.3     1  UNL1        0.0533
     19 C           2.0305    0.0763    4.2656 C.1     1  UNL1        0.0644
     20 N           1.6710   -0.6633    3.3096 N.1     1  UNL1       -0.1965
     21 C           4.7123    3.0641    1.9552 C.ar    1  UNL1        0.0776
     22 S           5.9861    4.1289    2.4299 S.2     1  UNL1       -0.0917
     23 C           6.6104    4.2455    0.8522 C.ar    1  UNL1       -0.0216
     24 C           5.9150    3.4507   -0.0171 C.ar    1  UNL1       -0.0285
     25 C           4.8589    2.7334    0.6153 C.ar    1  UNL1        0.0850
     26 N           4.0801    1.8523   -0.0231 N.ar    1  UNL1       -0.2137
     27 H           4.0754   -1.2347   -0.3761 H       1  UNL1        0.0429
     28 H           2.9233   -1.0622   -1.7183 H       1  UNL1        0.0429
     29 H           4.1300    0.1554   -1.4819 H       1  UNL1        0.0429
     30 H           2.2952   -1.2008    1.4920 H       1  UNL1        0.0504
     31 H           2.2110   -2.7138   -0.1637 H       1  UNL1        0.0335
     32 H           0.9142   -1.8973   -1.0366 H       1  UNL1        0.0335
     33 H           0.7185   -3.3632    1.6708 H       1  UNL1        0.0815
     34 H           0.0350   -3.8899    0.1264 H       1  UNL1        0.0815
     35 H          -1.5321   -2.9078    1.5940 H       1  UNL1        0.2030
     36 H          -2.7394   -1.5052    0.2099 H       1  UNL1        0.0777
     37 H          -1.2711   -1.1505   -0.7560 H       1  UNL1        0.0777
     38 H          -1.9580   -2.8046   -0.7530 H       1  UNL1        0.0777
     39 H          -1.6079   -0.5981    2.1415 H       1  UNL1        0.0815
     40 H          -0.3043   -1.5223    2.8368 H       1  UNL1        0.0815
     41 H           0.4886    0.7328    1.8297 H       1  UNL1        0.0335
     42 H          -0.1860    0.3098    0.3120 H       1  UNL1        0.0335
     43 H           2.4753    4.5253    4.8847 H       1  UNL1        0.0464
     44 H           3.7785    4.9353    3.7941 H       1  UNL1        0.0464
     45 H           5.4514    4.0077    5.3751 H       1  UNL1        0.0281
     46 H           4.2943    4.8376    6.4254 H       1  UNL1        0.0281
     47 H           4.8171    2.2278    6.8514 H       1  UNL1        0.0284
     48 H           3.1593    2.8180    6.9386 H       1  UNL1        0.0284
     49 H           4.5111    1.2440    4.7143 H       1  UNL1        0.0510
     50 H           2.7182    0.3291    6.2718 H       1  UNL1        0.0436
     51 H           1.5975    1.5773    5.7053 H       1  UNL1        0.0436
     52 H           7.4589    4.8825    0.6375 H       1  UNL1        0.0694
     53 H           6.1550    3.3576   -1.0707 H       1  UNL1        0.0644
@<TRIPOS>UNITY_ATOM_ATTR
6 1
charge 1
@<TRIPOS>BOND
     1     1    27    1
     2     1    28    1
     3     1    29    1
     4     2     1    1
     5     3     2    1
     6     3    30    1
     7     4     3    1
     8     4    31    1
     9     4    32    1
    10     5     4    1
    11     5    33    1
    12     5    34    1
    13     6     5    1
    14     7    36    1
    15     7    37    1
    16     7    38    1
    17     8     6    1
    18     8    39    1
    19     8    40    1
    20     9     8    1
    21     9     3    1
    22     9    41    1
    23     9    42    1
    24    10     2    1
    25    11    10   ar
    26    12    11   ar
    27    13    12    1
    28    14    13    1
    29    14    43    1
    30    14    44    1
    31    15    14    1
    32    15    45    1
    33    15    46    1
    34    16    15    1
    35    16    47    1
    36    16    48    1
    37    17    16    1
    38    17    13    1
    39    17    49    1
    40    18    17    1
    41    18    50    1
    42    18    51    1
    43    19    18    1
    44    20    19    3
    45    21    12   ar
    46    22    21   ar
    47    23    22   ar
    48    23    52    1
    49    24    23   ar
    50    24    53    1
    51    25    24   ar
    52    25    21   ar
    53    26    25   ar
    54    26    10   ar
    55     6     7    1
    56     6    35    1
