@<TRIPOS>MOLECULE
>74.sdf
 44 48 0 0 0
SMALL
GASTEIGER

@<TRIPOS>ATOM
      1 C           1.0719    0.1303   -0.0544 C.3     1  UNL1       -0.0396
      2 C           2.5687    0.0403   -0.0626 C.ar    1  UNL1       -0.0484
      3 C           3.3544    1.1979   -0.0904 C.ar    1  UNL1       -0.0328
      4 C           4.7457    1.1646   -0.0963 C.ar    1  UNL1        0.0725
      5 N           5.3819    2.3458   -0.1376 N.ar    1  UNL1       -0.2459
      6 C           6.7315    2.3691   -0.1390 C.ar    1  UNL1        0.0839
      7 C           7.4881    1.1973   -0.0663 C.ar    1  UNL1        0.0598
      8 C           8.9449    1.4217    0.0213 C.2     1  UNL1        0.2356
      9 O           9.6901    0.7983    0.7557 O.2     1  UNL1       -0.2831
     10 C           9.4795    2.6013   -0.7656 C.2     1  UNL1        0.2336
     11 O          10.4659    2.5047   -1.4749 O.2     1  UNL1       -0.2832
     12 C           8.7126    3.8402   -0.5892 C.ar    1  UNL1        0.0347
     13 C           7.3584    3.7111   -0.2292 C.ar    1  UNL1        0.0120
     14 C           6.6556    4.9008    0.0142 C.ar    1  UNL1       -0.0519
     15 C           7.2831    6.1487   -0.0918 C.ar    1  UNL1       -0.0611
     16 C           8.6272    6.2368   -0.4675 C.ar    1  UNL1       -0.0610
     17 C           9.3471    5.0768   -0.7320 C.ar    1  UNL1       -0.0502
     18 C           6.8625   -0.0745   -0.0237 C.ar    1  UNL1        0.0043
     19 C           7.6640   -1.3423    0.0893 C.ar    1  UNL1       -0.0164
     20 C           7.3068   -2.3645    0.9950 C.ar    1  UNL1       -0.0518
     21 C           8.0693   -3.5308    1.1458 C.ar    1  UNL1       -0.0309
     22 C           9.2753   -3.6553    0.4560 C.ar    1  UNL1        0.1262
     23 C           9.6699   -2.6655   -0.4442 C.ar    1  UNL1       -0.0309
     24 C           8.8433   -1.5517   -0.6562 C.ar    1  UNL1       -0.0518
     25 N          10.1431   -4.8120    0.7058 N.pl3   1  UNL1        0.0564
     26 O           9.7117   -5.7043    1.4509 O.2     1  UNL1       -0.1261
     27 O          11.2552   -4.8299    0.1597 O.2     1  UNL1       -0.1261
     28 C           5.4212   -0.0820   -0.0738 C.ar    1  UNL1        0.0088
     29 C           4.6048   -1.2454   -0.1115 C.ar    1  UNL1       -0.0517
     30 C           3.2095   -1.1890   -0.0768 C.ar    1  UNL1       -0.0581
     31 H           0.7252    0.6825    0.8247 H       1  UNL1        0.0278
     32 H           0.7197    0.6329   -0.9607 H       1  UNL1        0.0278
     33 H           0.6116   -0.8639   -0.0252 H       1  UNL1        0.0278
     34 H           2.8645    2.1720   -0.1021 H       1  UNL1        0.0642
     35 H           5.6057    4.8672    0.3000 H       1  UNL1        0.0624
     36 H           6.7282    7.0557    0.1262 H       1  UNL1        0.0618
     37 H           9.1123    7.2078   -0.5458 H       1  UNL1        0.0618
     38 H          10.3966    5.1333   -1.0144 H       1  UNL1        0.0625
     39 H           6.4208   -2.2669    1.6208 H       1  UNL1        0.0624
     40 H           7.7245   -4.3056    1.8278 H       1  UNL1        0.0640
     41 H          10.6215   -2.7235   -0.9697 H       1  UNL1        0.0640
     42 H           9.1903   -0.8112   -1.3755 H       1  UNL1        0.0624
     43 H           5.0423   -2.2383   -0.1743 H       1  UNL1        0.0624
     44 H           2.6375   -2.1147   -0.0679 H       1  UNL1        0.0620
@<TRIPOS>BOND
     1     1    31    1
     2     1    32    1
     3     1    33    1
     4     2     1    1
     5     3     2   ar
     6     3    34    1
     7     4     3   ar
     8     5     4   ar
     9     6     5   ar
    10     7     6   ar
    11     8     7    1
    12     9     8    2
    13    10     8    1
    14    11    10    2
    15    12    10    1
    16    13    12   ar
    17    13     6    1
    18    14    13   ar
    19    14    35    1
    20    15    14   ar
    21    15    36    1
    22    16    15   ar
    23    16    37    1
    24    17    16   ar
    25    17    12   ar
    26    17    38    1
    27    18     7   ar
    28    19    18    1
    29    20    19   ar
    30    20    39    1
    31    21    20   ar
    32    21    40    1
    33    22    21   ar
    34    23    22   ar
    35    23    41    1
    36    24    23   ar
    37    24    19   ar
    38    24    42    1
    39    25    22    1
    40    26    25    2
    41    27    25    2
    42    28    18   ar
    43    28     4   ar
    44    29    28   ar
    45    29    43    1
    46    30    29   ar
    47    30     2   ar
    48    30    44    1
