@<TRIPOS>MOLECULE
>104.sdf
 56 60 0 0 0
SMALL
GASTEIGER

@<TRIPOS>ATOM
      1 C           4.1844    0.4696   -1.8681 C.3     1  UNL1        0.0140
      2 C           3.2599    0.7596   -0.7091 C.2     1  UNL1        0.2322
      3 O           2.2138    0.1237   -0.5704 O.2     1  UNL1       -0.2741
      4 N           3.6632    1.7476    0.1685 N.am    1  UNL1       -0.1852
      5 N           4.8194    2.4615   -0.0082 N.2     1  UNL1       -0.1809
      6 C           5.0163    3.1366    1.0833 C.2     1  UNL1        0.0688
      7 C           4.0131    2.8922    2.1779 C.3     1  UNL1        0.0165
      8 C           3.0016    2.0187    1.4448 C.3     1  UNL1        0.0828
      9 C           1.6861    2.7150    1.2659 C.ar    1  UNL1        0.0210
     10 C           1.3215    3.5611    0.2352 C.ar    1  UNL1        0.0369
     11 N          -0.0033    3.8699    0.4036 N.ar    1  UNL1       -0.2390
     12 N          -0.4614    3.4152    1.5925 N.ar    1  UNL1       -0.1660
     13 C           0.5229    2.6553    2.1003 C.ar    1  UNL1        0.0981
     14 C           0.2929    1.8947    3.3391 C.ar    1  UNL1        0.0024
     15 C          -0.9914    1.4029    3.6238 C.ar    1  UNL1       -0.0525
     16 C          -1.2326    0.6365    4.7677 C.ar    1  UNL1       -0.0611
     17 C          -0.1919    0.3487    5.6454 C.ar    1  UNL1       -0.0617
     18 C           1.0827    0.8485    5.3933 C.ar    1  UNL1       -0.0611
     19 C           1.3186    1.6288    4.2563 C.ar    1  UNL1       -0.0525
     20 C          -0.8593    4.5483   -0.5067 C.ar    1  UNL1        0.0654
     21 C          -0.4084    4.9215   -1.7798 C.ar    1  UNL1       -0.0360
     22 C          -1.2794    5.5377   -2.6820 C.ar    1  UNL1       -0.0568
     23 C          -2.6080    5.7923   -2.3264 C.ar    1  UNL1       -0.0503
     24 C          -3.5508    6.4379   -3.2964 C.3     1  UNL1       -0.0397
     25 C          -3.0537    5.4328   -1.0492 C.ar    1  UNL1       -0.0568
     26 C          -2.1876    4.8121   -0.1445 C.ar    1  UNL1       -0.0360
     27 C           6.1666    4.0497    1.2693 C.ar    1  UNL1       -0.0022
     28 C           7.0843    4.2044    0.2223 C.ar    1  UNL1       -0.0528
     29 C           8.1699    5.0694    0.3621 C.ar    1  UNL1       -0.0611
     30 C           8.3452    5.7831    1.5476 C.ar    1  UNL1       -0.0617
     31 C           7.4368    5.6263    2.5960 C.ar    1  UNL1       -0.0611
     32 C           6.3502    4.7593    2.4607 C.ar    1  UNL1       -0.0528
     33 H           4.2209   -0.6140   -2.0166 H       1  UNL1        0.0323
     34 H           3.8044    0.9508   -2.7720 H       1  UNL1        0.0323
     35 H           5.2100    0.7982   -1.6858 H       1  UNL1        0.0323
     36 H           3.5963    3.8282    2.5608 H       1  UNL1        0.0351
     37 H           4.5000    2.3394    2.9875 H       1  UNL1        0.0351
     38 H           2.8542    1.0576    1.9494 H       1  UNL1        0.0576
     39 H           1.8877    3.8939   -0.6206 H       1  UNL1        0.0834
     40 H          -1.8167    1.6108    2.9441 H       1  UNL1        0.0624
     41 H          -2.2336    0.2613    4.9656 H       1  UNL1        0.0618
     42 H          -0.3749   -0.2588    6.5279 H       1  UNL1        0.0618
     43 H           1.8953    0.6330    6.0824 H       1  UNL1        0.0618
     44 H           2.3147    2.0283    4.1186 H       1  UNL1        0.0624
     45 H           0.6069    4.7267   -2.1136 H       1  UNL1        0.0639
     46 H          -0.9141    5.8028   -3.6707 H       1  UNL1        0.0621
     47 H          -4.4208    5.7943   -3.4619 H       1  UNL1        0.0278
     48 H          -3.8839    7.4059   -2.9096 H       1  UNL1        0.0278
     49 H          -3.0727    6.6074   -4.2670 H       1  UNL1        0.0278
     50 H          -4.0814    5.6232   -0.7525 H       1  UNL1        0.0621
     51 H          -2.5662    4.5322    0.8370 H       1  UNL1        0.0639
     52 H           6.9600    3.6552   -0.7087 H       1  UNL1        0.0624
     53 H           8.8775    5.1887   -0.4546 H       1  UNL1        0.0618
     54 H           9.1856    6.4610    1.6535 H       1  UNL1        0.0618
     55 H           7.5763    6.1833    3.5185 H       1  UNL1        0.0618
     56 H           5.6635    4.6608    3.2955 H       1  UNL1        0.0624
@<TRIPOS>BOND
     1     1    33    1
     2     1    34    1
     3     1    35    1
     4     2     1    1
     5     3     2    2
     6     4     2   am
     7     5     4    1
     8     6     5    2
     9     7     6    1
    10     7    36    1
    11     7    37    1
    12     8     7    1
    13     8     4    1
    14    10     9   ar
    15    10    39    1
    16    11    10   ar
    17    12    11   ar
    18    13    12   ar
    19    13     9   ar
    20    14    13    1
    21    15    14   ar
    22    15    40    1
    23    16    15   ar
    24    16    41    1
    25    17    16   ar
    26    17    42    1
    27    18    17   ar
    28    18    43    1
    29    19    18   ar
    30    19    14   ar
    31    19    44    1
    32    20    11    1
    33    21    20   ar
    34    21    45    1
    35    22    21   ar
    36    22    46    1
    37    23    22   ar
    38    24    23    1
    39    24    47    1
    40    24    48    1
    41    24    49    1
    42    25    23   ar
    43    25    50    1
    44    26    25   ar
    45    26    20   ar
    46    26    51    1
    47    27     6    1
    48    28    27   ar
    49    28    52    1
    50    29    28   ar
    51    29    53    1
    52    30    29   ar
    53    30    54    1
    54    31    30   ar
    55    31    55    1
    56    32    31   ar
    57    32    27   ar
    58    32    56    1
    59     8     9    1
    60     8    38    1
