@<TRIPOS>MOLECULE
>21.sdf
 43 46 0 0 0
SMALL
GASTEIGER

@<TRIPOS>ATOM
      1 F           2.1294   -0.2366    0.1082 F       1  UNL1       -0.2055
      2 C           0.7939   -0.1376    0.1171 C.ar    1  UNL1        0.1234
      3 C           0.1888    0.9884   -0.4191 C.ar    1  UNL1       -0.0258
      4 C          -1.2051    1.0928   -0.4055 C.ar    1  UNL1       -0.0498
      5 C          -2.0084    0.0522    0.0889 C.ar    1  UNL1        0.0031
      6 C          -1.3684   -1.0625    0.6574 C.ar    1  UNL1       -0.0498
      7 C           0.0296   -1.1558    0.6721 C.ar    1  UNL1       -0.0258
      8 C          -3.4696    0.1079    0.0305 C.ar    1  UNL1        0.1033
      9 C          -4.2744    0.6232   -0.9802 C.ar    1  UNL1        0.1126
     10 I          -3.7497    1.3687   -2.8315 I       1  UNL1       -0.0212
     11 N          -5.5660    0.4107   -0.5710 N.ar    1  UNL1       -0.2900
     12 C          -6.7962    0.6943   -1.1377 C.ar    1  UNL1        0.0304
     13 C          -7.8986    0.2042   -0.5496 C.ar    1  UNL1        0.0464
     14 N          -7.8796   -0.6096    0.5678 N.ar    1  UNL1       -0.2353
     15 C          -6.7314   -0.8057    1.1828 C.ar    1  UNL1        0.1658
     16 N          -6.7413   -1.6100    2.2962 N.pl3   1  UNL1       -0.2883
     17 C          -7.8415   -2.4346    2.6542 C.3     1  UNL1        0.0370
     18 N          -7.9014   -3.5047    1.6183 N.4     1  UNL1        0.2518
     19 C          -6.6316   -4.3460    1.5676 C.3     1  UNL1       -0.0063
     20 C          -6.7590   -5.4382    0.5063 C.3     1  UNL1        0.0878
     21 O          -7.9128   -6.2473    0.7491 O.3     1  UNL1       -0.3693
     22 C          -9.1149   -5.4751    0.6681 C.3     1  UNL1        0.0878
     23 C          -9.1347   -4.3756    1.7392 C.3     1  UNL1       -0.0063
     24 C          -5.5038   -0.2762    0.6127 C.ar    1  UNL1        0.1795
     25 N          -4.2643   -0.4853    1.0119 N.ar    1  UNL1       -0.2234
     26 H           0.7996    1.7808   -0.8416 H       1  UNL1        0.0646
     27 H          -1.6440    2.0088   -0.7892 H       1  UNL1        0.0625
     28 H          -1.9519   -1.8739    1.0870 H       1  UNL1        0.0625
     29 H           0.5301   -2.0157    1.1078 H       1  UNL1        0.0646
     30 H          -6.8318    1.3029   -2.0325 H       1  UNL1        0.0829
     31 H          -8.8811    0.4321   -0.9597 H       1  UNL1        0.0845
     32 H          -6.0515   -1.3853    3.0090 H       1  UNL1        0.1525
     33 H          -7.6981   -2.9140    3.6280 H       1  UNL1        0.1040
     34 H          -8.7953   -1.8936    2.6531 H       1  UNL1        0.1040
     35 H          -7.9752   -2.9754    0.7382 H       1  UNL1        0.2052
     36 H          -6.5048   -4.7770    2.5654 H       1  UNL1        0.0838
     37 H          -5.7890   -3.6899    1.3261 H       1  UNL1        0.0838
     38 H          -5.8792   -6.0884    0.5436 H       1  UNL1        0.0613
     39 H          -6.8160   -5.0128   -0.5027 H       1  UNL1        0.0613
     40 H          -9.2081   -5.0562   -0.3406 H       1  UNL1        0.0613
     41 H          -9.9553   -6.1588    0.8235 H       1  UNL1        0.0613
     42 H         -10.0122   -3.7322    1.6219 H       1  UNL1        0.0838
     43 H          -9.1134   -4.8122    2.7427 H       1  UNL1        0.0838
@<TRIPOS>UNITY_ATOM_ATTR
18 1
charge 1
@<TRIPOS>BOND
     1     2     1    1
     2     3     2   ar
     3     3    26    1
     4     4     3   ar
     5     4    27    1
     6     5     4   ar
     7     6     5   ar
     8     6    28    1
     9     7     6   ar
    10     7     2   ar
    11     7    29    1
    12     8     5    1
    13     9     8   ar
    14    10     9    1
    15    11     9   ar
    16    12    11   ar
    17    12    30    1
    18    13    12   ar
    19    13    31    1
    20    14    13   ar
    21    15    14   ar
    22    16    15    1
    23    16    32    1
    24    17    16    1
    25    17    33    1
    26    17    34    1
    27    18    17    1
    28    18    35    1
    29    19    18    1
    30    19    36    1
    31    19    37    1
    32    20    19    1
    33    20    38    1
    34    20    39    1
    35    21    20    1
    36    22    21    1
    37    22    40    1
    38    22    41    1
    39    23    22    1
    40    23    18    1
    41    23    42    1
    42    23    43    1
    43    24    15   ar
    44    24    11   ar
    45    25    24   ar
    46    25     8   ar
