@<TRIPOS>MOLECULE
>161.sdf
 44 46 0 0 0
SMALL
GASTEIGER

@<TRIPOS>ATOM
      1 C           0.8565   -0.5359    2.6124 C.3     1  UNL1       -0.0650
      2 C           2.3767   -0.5414    2.6442 C.3     1  UNL1       -0.0519
      3 C           2.9729    0.1496    1.4119 C.3     1  UNL1       -0.0278
      4 C           4.4850    0.1467    1.4195 C.ar    1  UNL1       -0.0431
      5 C           5.1857   -1.0709    1.4318 C.ar    1  UNL1       -0.0131
      6 C           6.5829   -1.1161    1.4734 C.ar    1  UNL1        0.1631
      7 O           7.0829   -2.3873    1.5070 O.3     1  UNL1       -0.4914
      8 C           8.4920   -2.5695    1.5197 C.3     1  UNL1        0.0790
      9 C           7.2753    0.0961    1.4919 C.ar    1  UNL1        0.1805
     10 O           8.6743    0.0902    1.6237 O.2     1  UNL1       -0.4179
     11 C           9.3934    1.2433    1.8803 C.ar    1  UNL1        0.3483
     12 O          10.5278    1.1786    2.3379 O.2     1  UNL1       -0.2444
     13 C           8.7409    2.5163    1.5138 C.ar    1  UNL1        0.1072
     14 C           7.4052    2.5500    1.3582 C.ar    1  UNL1       -0.0332
     15 C           6.6114    1.3249    1.4296 C.ar    1  UNL1        0.0222
     16 C           5.2124    1.3465    1.3957 C.ar    1  UNL1       -0.0476
     17 C           9.4856    3.8046    1.3712 C.2     1  UNL1        0.2000
     18 O           8.9179    4.8839    1.5060 O.2     1  UNL1       -0.2864
     19 C          10.9449    3.8034    1.0528 C.ar    1  UNL1        0.0229
     20 C          11.5452    2.8246    0.2472 C.ar    1  UNL1       -0.0445
     21 C          12.9300    2.8218    0.0473 C.ar    1  UNL1        0.0163
     22 C          13.7126    3.8401    0.6048 C.ar    1  UNL1        0.2732
     23 C          13.1149    4.8652    1.3504 C.ar    1  UNL1        0.0163
     24 C          11.7333    4.8426    1.5715 C.ar    1  UNL1       -0.0445
     25 N          15.1662    3.8313    0.4027 N.pl3   1  UNL1        0.0796
     26 O          15.6525    2.8972   -0.2488 O.co2   1  UNL1       -0.5760
     27 O          15.8222    4.7625    0.8939 O.2     1  UNL1        0.0414
     28 H           0.4591   -1.0418    3.4983 H       1  UNL1        0.0230
     29 H           0.4666    0.4861    2.6005 H       1  UNL1        0.0230
     30 H           0.4817   -1.0603    1.7276 H       1  UNL1        0.0230
     31 H           2.7225   -0.0414    3.5570 H       1  UNL1        0.0266
     32 H           2.7161   -1.5819    2.7070 H       1  UNL1        0.0266
     33 H           2.6301   -0.3469    0.4955 H       1  UNL1        0.0313
     34 H           2.6021    1.1809    1.3640 H       1  UNL1        0.0313
     35 H           4.6373   -2.0120    1.4211 H       1  UNL1        0.0658
     36 H           8.9566   -2.1442    0.6240 H       1  UNL1        0.0660
     37 H           8.9330   -2.1713    2.4391 H       1  UNL1        0.0660
     38 H           8.6905   -3.6454    1.5077 H       1  UNL1        0.0660
     39 H           6.8829    3.4783    1.1427 H       1  UNL1        0.0634
     40 H           4.6825    2.2964    1.3588 H       1  UNL1        0.0627
     41 H          10.9624    2.0285   -0.2097 H       1  UNL1        0.0627
     42 H          13.3797    2.0157   -0.5296 H       1  UNL1        0.0685
     43 H          13.7062    5.6754    1.7740 H       1  UNL1        0.0685
     44 H          11.2747    5.6334    2.1642 H       1  UNL1        0.0627
@<TRIPOS>UNITY_ATOM_ATTR
25 1
charge 1
26 1
charge -1
@<TRIPOS>BOND
     1     1    28    1
     2     1    29    1
     3     1    30    1
     4     2     1    1
     5     2    31    1
     6     2    32    1
     7     3     2    1
     8     3    33    1
     9     3    34    1
    10     4     3    1
    11     5     4   ar
    12     5    35    1
    13     6     5   ar
    14     7     6    1
    15     8     7    1
    16     8    36    1
    17     8    37    1
    18     8    38    1
    19     9     6   ar
    20    10     9   ar
    21    11    10   ar
    22    12    11    2
    23    13    11   ar
    24    14    13   ar
    25    14    39    1
    26    15    14   ar
    27    15     9   ar
    28    16    15   ar
    29    16     4   ar
    30    16    40    1
    31    17    13    1
    32    18    17    2
    33    19    17    1
    34    20    19   ar
    35    20    41    1
    36    21    20   ar
    37    21    42    1
    38    22    21   ar
    39    23    22   ar
    40    23    43    1
    41    24    23   ar
    42    24    19   ar
    43    24    44    1
    44    25    22    1
    45    26    25    1
    46    27    25    2
