@<TRIPOS>MOLECULE
>102.sdf
 26 26 0 0 0
SMALL
GASTEIGER

@<TRIPOS>ATOM
      1 C           1.7495   -0.7856    1.0462 C.3     1  UNL1        0.0128
      2 C           2.6113   -0.0471    0.0472 C.2     1  UNL1        0.2186
      3 O           2.7808   -0.5755   -1.0514 O.2     1  UNL1       -0.2755
      4 N           3.1451    1.1864    0.4092 N.am    1  UNL1       -0.2414
      5 C           2.7609    1.9652    1.5973 C.3     1  UNL1        0.1094
      6 C           1.4684    2.7901    1.4468 C.3     1  UNL1       -0.0171
      7 C           0.1914    1.9773    1.2519 C.3     1  UNL1        0.0259
      8 C          -1.0479    2.8315    1.1408 C.2     1  UNL1        0.2106
      9 N          -2.1987    2.1170    0.9605 N.am    1  UNL1       -0.3293
     10 O          -1.0601    4.0492    1.2117 O.2     1  UNL1       -0.2760
     11 C           3.9222    2.9496    1.6881 C.2     1  UNL1        0.2394
     12 O           4.1232    3.7430    2.5935 O.2     1  UNL1       -0.2734
     13 N           4.6819    2.8323    0.5742 N.am    1  UNL1       -0.2658
     14 C           4.2805    1.7845   -0.1953 C.2     1  UNL1        0.1462
     15 S           5.1428    1.3746   -1.5537 S.2     1  UNL1       -0.0179
     16 H           0.8183   -1.0775    0.5488 H       1  UNL1        0.0323
     17 H           2.2780   -1.6821    1.3776 H       1  UNL1        0.0323
     18 H           1.4909   -0.2166    1.9329 H       1  UNL1        0.0323
     19 H           2.7700    1.3321    2.4891 H       1  UNL1        0.0601
     20 H           1.3512    3.4093    2.3475 H       1  UNL1        0.0293
     21 H           1.5733    3.4998    0.6157 H       1  UNL1        0.0293
     22 H           0.2534    1.3897    0.3320 H       1  UNL1        0.0359
     23 H           0.0363    1.3134    2.1075 H       1  UNL1        0.0359
     24 H          -3.0617    2.6369    0.8571 H       1  UNL1        0.1449
     25 H          -2.2202    1.1175    0.8245 H       1  UNL1        0.1449
     26 H           5.5118    3.3799    0.3977 H       1  UNL1        0.1566
@<TRIPOS>BOND
     1     1    16    1
     2     1    17    1
     3     1    18    1
     4     2     1    1
     5     3     2    2
     6     4     2   am
     7     5     4    1
     8     5    19    1
     9     6     5    1
    10     6    20    1
    11     6    21    1
    12     7     6    1
    13     7    22    1
    14     7    23    1
    15     8     7    1
    16     9     8   am
    17     9    24    1
    18     9    25    1
    19    10     8    2
    20    11     5    1
    21    12    11    2
    22    13    11   am
    23    13    26    1
    24    14    13    1
    25    14     4    1
    26    15    14    2
