@<TRIPOS>MOLECULE
>50.sdf
 57 61 0 0 0
SMALL
GASTEIGER

@<TRIPOS>ATOM
      1 C          -7.0930   -2.0067  -13.3684 C.3     1  UNL1       -0.0397
      2 C          -7.3133   -1.1000  -12.1942 C.ar    1  UNL1       -0.0503
      3 C          -7.1286   -1.5587  -10.8843 C.ar    1  UNL1       -0.0568
      4 C          -7.2930   -0.6959   -9.7943 C.ar    1  UNL1       -0.0360
      5 C          -7.6441    0.6446  -10.0063 C.ar    1  UNL1        0.0654
      6 C          -7.8499    1.0967  -11.3195 C.ar    1  UNL1       -0.0360
      7 C          -7.6777    0.2337  -12.3999 C.ar    1  UNL1       -0.0568
      8 N          -7.7788    1.5571   -8.9158 N.ar    1  UNL1       -0.2387
      9 C          -7.5284    1.3317   -7.5900 C.ar    1  UNL1        0.0405
     10 C          -7.8115    2.5023   -6.9101 C.ar    1  UNL1        0.0405
     11 C          -7.6950    2.6269   -5.4752 C.2     1  UNL1        0.0607
     12 N          -8.4720    3.4413   -4.8446 N.2     1  UNL1       -0.1547
     13 N          -8.2548    3.4538   -3.4794 N.2     1  UNL1       -0.1262
     14 C          -9.1483    4.0701   -2.7660 C.2     1  UNL1        0.1894
     15 S          -8.7609    4.2919   -1.0687 S.3     1  UNL1       -0.0786
     16 C         -10.2555    5.2267   -0.7438 C.3     1  UNL1        0.0784
     17 C         -10.9733    5.3781   -2.0563 C.2     1  UNL1        0.2359
     18 O         -12.0131    6.0295   -2.1321 O.2     1  UNL1       -0.2739
     19 N         -10.3564    4.6668   -3.0755 N.am    1  UNL1       -0.2169
     20 C         -11.0054    4.5640   -4.3347 C.ar    1  UNL1        0.0432
     21 C         -11.3851    5.7195   -5.0263 C.ar    1  UNL1       -0.0399
     22 C         -11.9417    5.6228   -6.3020 C.ar    1  UNL1       -0.0600
     23 C         -12.1396    4.3745   -6.8887 C.ar    1  UNL1       -0.0616
     24 C         -11.8218    3.2169   -6.1840 C.ar    1  UNL1       -0.0600
     25 C         -11.2698    3.3104   -4.9052 C.ar    1  UNL1       -0.0399
     26 C          -8.2091    3.4243   -7.9279 C.ar    1  UNL1        0.1017
     27 N          -8.1867    2.8273   -9.1327 N.ar    1  UNL1       -0.1657
     28 C          -8.5774    4.8506   -7.8442 C.ar    1  UNL1        0.0028
     29 C          -8.1231    5.6817   -6.8117 C.ar    1  UNL1       -0.0522
     30 C          -8.5034    7.0254   -6.7380 C.ar    1  UNL1       -0.0582
     31 C          -9.3048    7.5939   -7.7309 C.ar    1  UNL1       -0.0504
     32 C          -9.7123    9.0334   -7.6550 C.3     1  UNL1       -0.0397
     33 C          -9.7471    6.7835   -8.7803 C.ar    1  UNL1       -0.0582
     34 C          -9.3901    5.4302   -8.8341 C.ar    1  UNL1       -0.0522
     35 H          -7.9647   -1.9945  -14.0293 H       1  UNL1        0.0278
     36 H          -6.2106   -1.6835  -13.9320 H       1  UNL1        0.0278
     37 H          -6.9318   -3.0426  -13.0508 H       1  UNL1        0.0278
     38 H          -6.8479   -2.5937  -10.7020 H       1  UNL1        0.0621
     39 H          -7.1378   -1.1043   -8.8007 H       1  UNL1        0.0639
     40 H          -8.1217    2.1343  -11.5096 H       1  UNL1        0.0639
     41 H          -7.8213    0.6155  -13.4098 H       1  UNL1        0.0621
     42 H          -7.1916    0.3754   -7.2245 H       1  UNL1        0.0837
     43 H          -6.9586    1.9902   -4.9525 H       1  UNL1        0.0855
     44 H         -10.0235    6.2112   -0.3307 H       1  UNL1        0.0476
     45 H         -10.8896    4.6649   -0.0528 H       1  UNL1        0.0476
     46 H         -11.1885    6.7051   -4.6126 H       1  UNL1        0.0636
     47 H         -12.1673    6.5270   -6.8608 H       1  UNL1        0.0618
     48 H         -12.5142    4.3077   -7.9066 H       1  UNL1        0.0618
     49 H         -11.9746    2.2436   -6.6415 H       1  UNL1        0.0618
     50 H         -11.0177    2.3980   -4.3718 H       1  UNL1        0.0636
     51 H          -7.4672    5.3037   -6.0345 H       1  UNL1        0.0624
     52 H          -8.1703    7.6170   -5.8894 H       1  UNL1        0.0620
     53 H          -9.5193    9.5390   -8.6060 H       1  UNL1        0.0278
     54 H         -10.7774    9.1133   -7.4131 H       1  UNL1        0.0278
     55 H          -9.1501    9.5680   -6.8795 H       1  UNL1        0.0278
     56 H         -10.3906    7.1919   -9.5560 H       1  UNL1        0.0620
     57 H          -9.7626    4.8205   -9.6539 H       1  UNL1        0.0624
@<TRIPOS>BOND
     1     1    35    1
     2     1    36    1
     3     1    37    1
     4     2     1    1
     5     3     2   ar
     6     3    38    1
     7     4     3   ar
     8     4    39    1
     9     5     4   ar
    10     6     5   ar
    11     6    40    1
    12     7     6   ar
    13     7     2   ar
    14     7    41    1
    15     8     5    1
    16     9     8   ar
    17     9    42    1
    18    10     9   ar
    19    11    10    1
    20    11    43    1
    21    12    11    2
    22    13    12    1
    23    14    13    2
    24    15    14    1
    25    16    15    1
    26    16    44    1
    27    16    45    1
    28    17    16    1
    29    18    17    2
    30    19    17   am
    31    19    14    1
    32    20    19    1
    33    21    20   ar
    34    21    46    1
    35    22    21   ar
    36    22    47    1
    37    23    22   ar
    38    23    48    1
    39    24    23   ar
    40    24    49    1
    41    25    24   ar
    42    25    20   ar
    43    25    50    1
    44    26    10   ar
    45    27    26   ar
    46    27     8   ar
    47    28    26    1
    48    29    28   ar
    49    29    51    1
    50    30    29   ar
    51    30    52    1
    52    31    30   ar
    53    32    31    1
    54    32    53    1
    55    32    54    1
    56    32    55    1
    57    33    31   ar
    58    33    56    1
    59    34    33   ar
    60    34    28   ar
    61    34    57    1
