@<TRIPOS>MOLECULE
>43.sdf
 45 48 0 0 0
SMALL
GASTEIGER

@<TRIPOS>ATOM
      1 CL         -5.6482    0.9321   -6.2715 Cl      1  UNL1       -0.0835
      2 C          -5.3330    2.4678   -5.5648 C.ar    1  UNL1        0.0413
      3 C          -5.8166    3.6214   -6.1748 C.ar    1  UNL1       -0.0420
      4 C          -5.5608    4.8646   -5.5951 C.ar    1  UNL1       -0.0417
      5 C          -4.8218    4.9526   -4.4091 C.ar    1  UNL1        0.0442
      6 CL         -4.5567    6.5293   -3.7548 Cl      1  UNL1       -0.0833
      7 C          -4.3201    3.7939   -3.7874 C.ar    1  UNL1       -0.0277
      8 C          -3.5170    3.8224   -2.5035 C.3     1  UNL1       -0.0259
      9 C          -4.4073    3.6834   -1.2599 C.3     1  UNL1       -0.0440
     10 C          -3.6243    3.6805    0.0833 C.3     1  UNL1       -0.0154
     11 C          -2.7991    4.9578    0.3051 C.3     1  UNL1       -0.0440
     12 C          -3.6788    6.2034    0.3969 C.3     1  UNL1       -0.0270
     13 C          -4.9098    6.0194    1.2506 C.ar    1  UNL1       -0.0422
     14 C          -5.3758    4.7449    1.6268 C.ar    1  UNL1       -0.0213
     15 C          -6.5515    4.6404    2.3954 C.ar    1  UNL1       -0.0563
     16 C          -7.2488    5.7817    2.7867 C.ar    1  UNL1       -0.0614
     17 C          -6.7885    7.0390    2.4097 C.ar    1  UNL1       -0.0615
     18 C          -5.6322    7.1573    1.6394 C.ar    1  UNL1       -0.0582
     19 C          -4.5967    3.4832    1.2852 C.3     1  UNL1        0.0633
     20 N          -3.9079    2.9584    2.4761 N.ar    1  UNL1       -0.3292
     21 C          -3.4079    3.6554    3.5462 C.ar    1  UNL1        0.0247
     22 C          -2.9076    2.7031    4.4008 C.ar    1  UNL1        0.0454
     23 N          -3.0850    1.4477    3.8822 N.ar    1  UNL1       -0.2440
     24 C          -3.6958    1.6302    2.7345 C.ar    1  UNL1        0.0964
     25 C          -4.5942    2.5476   -4.3825 C.ar    1  UNL1       -0.0388
     26 H          -6.3912    3.5611   -7.0954 H       1  UNL1        0.0633
     27 H          -5.9404    5.7640   -6.0746 H       1  UNL1        0.0633
     28 H          -2.7828    3.0061   -2.5228 H       1  UNL1        0.0314
     29 H          -2.9212    4.7397   -2.4683 H       1  UNL1        0.0314
     30 H          -5.1635    4.4773   -1.2639 H       1  UNL1        0.0272
     31 H          -4.9675    2.7416   -1.3341 H       1  UNL1        0.0272
     32 H          -2.9289    2.8306    0.0473 H       1  UNL1        0.0324
     33 H          -2.2200    4.8582    1.2315 H       1  UNL1        0.0272
     34 H          -2.0521    5.0897   -0.4847 H       1  UNL1        0.0272
     35 H          -3.0732    7.0266    0.7947 H       1  UNL1        0.0313
     36 H          -4.0022    6.4965   -0.6082 H       1  UNL1        0.0313
     37 H          -6.9157    3.6657    2.7159 H       1  UNL1        0.0621
     38 H          -8.1454    5.6895    3.3941 H       1  UNL1        0.0618
     39 H          -7.3291    7.9305    2.7171 H       1  UNL1        0.0618
     40 H          -5.2899    8.1481    1.3475 H       1  UNL1        0.0620
     41 H          -5.3230    2.7039    1.0128 H       1  UNL1        0.0580
     42 H          -3.4615    4.7328    3.6261 H       1  UNL1        0.0825
     43 H          -2.4369    2.8576    5.3632 H       1  UNL1        0.0845
     44 H          -4.0066    0.8419    2.0607 H       1  UNL1        0.1029
     45 H          -4.2254    1.6338   -3.9226 H       1  UNL1        0.0635
@<TRIPOS>BOND
     1     2     1    1
     2     3     2   ar
     3     3    26    1
     4     4     3   ar
     5     4    27    1
     6     5     4   ar
     7     6     5    1
     8     7     5   ar
     9     8     7    1
    10     8    28    1
    11     8    29    1
    12     9     8    1
    13     9    30    1
    14     9    31    1
    15    11    10    1
    16    11    33    1
    17    11    34    1
    18    12    11    1
    19    12    35    1
    20    12    36    1
    21    13    12    1
    22    14    13   ar
    23    15    14   ar
    24    15    37    1
    25    16    15   ar
    26    16    38    1
    27    17    16   ar
    28    17    39    1
    29    18    17   ar
    30    18    13   ar
    31    18    40    1
    32    19    14    1
    33    19    10    1
    34    19    41    1
    35    20    19    1
    36    21    20   ar
    37    21    42    1
    38    22    21   ar
    39    22    43    1
    40    23    22   ar
    41    24    23   ar
    42    24    20   ar
    43    24    44    1
    44    25     7   ar
    45    25     2   ar
    46    25    45    1
    47    10    32    1
    48    10     9    1
