@<TRIPOS>MOLECULE
>104_2.sdf
 56 60 0 0 0
SMALL
GASTEIGER

@<TRIPOS>ATOM
      1 C           5.5986    0.5346    0.3534 C.3     1  UNL1        0.0140
      2 C           4.3555   -0.2666    0.0240 C.2     1  UNL1        0.2322
      3 O           3.4833    0.1989   -0.7089 O.2     1  UNL1       -0.2741
      4 N           4.2779   -1.5169    0.6125 N.am    1  UNL1       -0.1852
      5 N           5.1920   -1.8939    1.5561 N.2     1  UNL1       -0.1809
      6 C           4.7986   -3.0247    2.0476 C.2     1  UNL1        0.0688
      7 C           3.5426   -3.5797    1.4473 C.3     1  UNL1        0.0165
      8 C           3.1363   -2.4426    0.5096 C.3     1  UNL1        0.0828
      9 C           2.9191   -2.9164   -0.8978 C.ar    1  UNL1        0.0210
     10 C           3.8573   -2.9291   -1.9094 C.ar    1  UNL1        0.0369
     11 N           3.2395   -3.3450   -3.0572 N.ar    1  UNL1       -0.2390
     12 N           1.9467   -3.6793   -2.8230 N.ar    1  UNL1       -0.1660
     13 C           1.7359   -3.4452   -1.5156 C.ar    1  UNL1        0.0981
     14 C           0.4278   -3.7615   -0.9177 C.ar    1  UNL1        0.0024
     15 C           0.3305   -4.2979    0.3734 C.ar    1  UNL1       -0.0525
     16 C          -0.9047   -4.6188    0.9414 C.ar    1  UNL1       -0.0611
     17 C          -2.0705   -4.4340    0.2084 C.ar    1  UNL1       -0.0617
     18 C          -1.9990   -3.9292   -1.0891 C.ar    1  UNL1       -0.0611
     19 C          -0.7588   -3.5922   -1.6469 C.ar    1  UNL1       -0.0525
     20 C           3.8251   -3.4651   -4.3485 C.ar    1  UNL1        0.0654
     21 C           5.1848   -3.1848   -4.5469 C.ar    1  UNL1       -0.0360
     22 C           5.7558   -3.3155   -5.8144 C.ar    1  UNL1       -0.0568
     23 C           4.9801   -3.7223   -6.9031 C.ar    1  UNL1       -0.0503
     24 C           5.5893   -3.8593   -8.2654 C.3     1  UNL1       -0.0397
     25 C           3.6198   -3.9936   -6.7059 C.ar    1  UNL1       -0.0568
     26 C           3.0431   -3.8691   -5.4375 C.ar    1  UNL1       -0.0360
     27 C           5.5289   -3.7047    3.1353 C.ar    1  UNL1       -0.0022
     28 C           6.7078   -3.1137    3.6134 C.ar    1  UNL1       -0.0528
     29 C           7.4017   -3.6848    4.6727 C.ar    1  UNL1       -0.0611
     30 C           6.9267   -4.8552    5.2586 C.ar    1  UNL1       -0.0617
     31 C           5.7626   -5.4579    4.7797 C.ar    1  UNL1       -0.0611
     32 C           5.0616   -4.8869    3.7149 C.ar    1  UNL1       -0.0528
     33 H           5.9188    1.0854   -0.5350 H       1  UNL1        0.0323
     34 H           5.3674    1.2356    1.1596 H       1  UNL1        0.0323
     35 H           6.4415   -0.0925    0.6566 H       1  UNL1        0.0323
     36 H           2.7978   -3.7480    2.2306 H       1  UNL1        0.0351
     37 H           3.7661   -4.5189    0.9290 H       1  UNL1        0.0351
     38 H           2.2473   -1.9146    0.8749 H       1  UNL1        0.0576
     39 H           4.8918   -2.6222   -1.8912 H       1  UNL1        0.0834
     40 H           1.2152   -4.5231    0.9493 H       1  UNL1        0.0624
     41 H          -0.9510   -5.0319    1.9458 H       1  UNL1        0.0618
     42 H          -3.0320   -4.7017    0.6389 H       1  UNL1        0.0618
     43 H          -2.9079   -3.8051   -1.6722 H       1  UNL1        0.0618
     44 H          -0.7229   -3.2085   -2.6646 H       1  UNL1        0.0624
     45 H           5.8358   -2.8642   -3.7400 H       1  UNL1        0.0639
     46 H           6.8140   -3.0975   -5.9417 H       1  UNL1        0.0621
     47 H           5.4448   -4.8759   -8.6444 H       1  UNL1        0.0278
     48 H           5.1295   -3.1455   -8.9559 H       1  UNL1        0.0278
     49 H           6.6667   -3.6616   -8.2445 H       1  UNL1        0.0278
     50 H           2.9976   -4.3046   -7.5425 H       1  UNL1        0.0621
     51 H           1.9834   -4.0859   -5.3154 H       1  UNL1        0.0639
     52 H           7.0806   -2.1908    3.1684 H       1  UNL1        0.0624
     53 H           8.3090   -3.2146    5.0445 H       1  UNL1        0.0618
     54 H           7.4665   -5.2996    6.0915 H       1  UNL1        0.0618
     55 H           5.3981   -6.3706    5.2431 H       1  UNL1        0.0618
     56 H           4.1567   -5.3744    3.3671 H       1  UNL1        0.0624
@<TRIPOS>BOND
     1     1    33    1
     2     1    34    1
     3     1    35    1
     4     2     1    1
     5     3     2    2
     6     4     2   am
     7     5     4    1
     8     6     5    2
     9     7     6    1
    10     7    36    1
    11     7    37    1
    12     8     7    1
    13     8     4    1
    14     8    38    1
    15     9     8    1
    16    10     9   ar
    17    10    39    1
    18    11    10   ar
    19    12    11   ar
    20    13    12   ar
    21    13     9   ar
    22    14    13    1
    23    15    14   ar
    24    15    40    1
    25    16    15   ar
    26    16    41    1
    27    17    16   ar
    28    17    42    1
    29    18    17   ar
    30    18    43    1
    31    19    18   ar
    32    19    14   ar
    33    19    44    1
    34    20    11    1
    35    21    20   ar
    36    21    45    1
    37    22    21   ar
    38    22    46    1
    39    23    22   ar
    40    24    23    1
    41    24    47    1
    42    24    48    1
    43    24    49    1
    44    25    23   ar
    45    25    50    1
    46    26    25   ar
    47    26    20   ar
    48    26    51    1
    49    27     6    1
    50    28    27   ar
    51    28    52    1
    52    29    28   ar
    53    29    53    1
    54    30    29   ar
    55    30    54    1
    56    31    30   ar
    57    31    55    1
    58    32    31   ar
    59    32    27   ar
    60    32    56    1
