@<TRIPOS>MOLECULE
>24.sdf
 20 21 0 0 0
SMALL
GASTEIGER

@<TRIPOS>ATOM
      1 O           0.9279    0.0981    0.2031 O.3     1  UNL1       -0.4924
      2 C           2.2860   -0.0052    0.1660 C.ar    1  UNL1        0.2129
      3 N           2.9406    1.1683    0.1671 N.ar    1  UNL1       -0.2107
      4 C           4.2924    1.1632    0.0944 C.ar    1  UNL1        0.1049
      5 C           5.0081   -0.0524   -0.0002 C.ar    1  UNL1        0.0029
      6 C           6.4104   -0.0636   -0.1368 C.ar    1  UNL1       -0.0524
      7 C           7.1343    1.1255   -0.1947 C.ar    1  UNL1       -0.0589
      8 C           6.4640    2.3338   -0.0786 C.ar    1  UNL1       -0.0293
      9 C           5.0675    2.3251    0.0822 C.ar    1  UNL1        0.1521
     10 N           4.4154    3.6030    0.2624 N.pl3   1  UNL1        0.0585
     11 O           3.8821    3.8233    1.3591 O.2     1  UNL1       -0.1261
     12 O           4.5481    4.4283   -0.6510 O.2     1  UNL1       -0.1261
     13 C           4.2905   -1.2547    0.0325 C.ar    1  UNL1       -0.0475
     14 C           2.9044   -1.2359    0.1142 C.ar    1  UNL1        0.0004
     15 H           0.5511   -0.7905    0.1321 H       1  UNL1        0.2937
     16 H           6.9474   -1.0078   -0.2152 H       1  UNL1        0.0624
     17 H           8.2139    1.1041   -0.3232 H       1  UNL1        0.0618
     18 H           7.0160    3.2706   -0.1091 H       1  UNL1        0.0641
     19 H           4.8055   -2.2112   -0.0172 H       1  UNL1        0.0626
     20 H           2.3438   -2.1627    0.1276 H       1  UNL1        0.0671
@<TRIPOS>BOND
     1     1    15    1
     2     2     1    1
     3     3     2   ar
     4     4     3   ar
     5     5     4   ar
     6     6     5   ar
     7     6    16    1
     8     7     6   ar
     9     7    17    1
    10     8     7   ar
    11     8    18    1
    12     9     8   ar
    13     9     4   ar
    14    10     9    1
    15    11    10    2
    16    12    10    2
    17    13     5   ar
    18    13    19    1
    19    14    13   ar
    20    14     2   ar
    21    14    20    1
