@<TRIPOS>MOLECULE
>14.sdf
 53 57 0 0 0
SMALL
GASTEIGER

@<TRIPOS>ATOM
      1 C           4.0036   -0.6041    0.1628 C.3     1  UNL1        0.0004
      2 N           3.2050   -1.7838    0.4501 N.pl3   1  UNL1       -0.3360
      3 C           3.7253   -2.7015    1.4631 C.3     1  UNL1        0.0004
      4 C           2.3422   -2.3183   -0.5075 C.ar    1  UNL1        0.0298
      5 C           2.4918   -2.1166   -1.8960 C.ar    1  UNL1       -0.0320
      6 C           1.5700   -2.6414   -2.7923 C.ar    1  UNL1       -0.0037
      7 C           1.7241   -2.5077   -4.2694 C.2     1  UNL1        0.0531
      8 N           2.7538   -1.9823   -4.8718 N.2     1  UNL1       -0.1832
      9 N           2.7426   -2.1135   -6.2637 N.am    1  UNL1       -0.1694
     10 C           2.3108   -3.3126   -6.8953 C.2     1  UNL1        0.2773
     11 O           1.8568   -4.3380   -6.4226 O.2     1  UNL1       -0.2674
     12 C           2.4103   -3.0700   -8.3566 C.2     1  UNL1        0.1140
     13 C           2.9717   -1.8661   -8.4847 C.2     1  UNL1       -0.0274
     14 C           3.5862   -1.3464   -7.1810 C.3     1  UNL1        0.1333
     15 C           5.0974   -1.7444   -7.1347 C.ar    1  UNL1        0.0074
     16 C           5.9259   -1.7861   -6.0136 C.ar    1  UNL1       -0.0541
     17 C           7.3224   -1.8849   -6.1861 C.ar    1  UNL1       -0.0613
     18 C           7.8748   -2.0780   -7.4582 C.ar    1  UNL1       -0.0600
     19 C           7.0691   -1.9207   -8.5708 C.ar    1  UNL1       -0.0402
     20 C           5.7790   -1.4684   -8.3355 C.ar    1  UNL1        0.0373
     21 N           5.3820   -0.2031   -8.8961 N.pl3   1  UNL1       -0.3139
     22 C           4.5953    0.7023   -8.1242 C.ar    1  UNL1        0.0373
     23 C           3.5962    0.1613   -7.2519 C.ar    1  UNL1        0.0074
     24 C           2.7723    1.0135   -6.5207 C.ar    1  UNL1       -0.0541
     25 C           3.0513    2.3828   -6.5230 C.ar    1  UNL1       -0.0613
     26 C           4.1624    2.8824   -7.2168 C.ar    1  UNL1       -0.0600
     27 C           4.9305    2.0446   -8.0262 C.ar    1  UNL1       -0.0402
     28 C           2.8042   -4.0864   -9.4159 C.1     1  UNL1        0.1042
     29 N           3.1309   -4.9297  -10.2946 N.1     1  UNL1       -0.1907
     30 C           0.4635   -3.3711   -2.3414 C.ar    1  UNL1       -0.0530
     31 C           0.2976   -3.5930   -0.9819 C.ar    1  UNL1       -0.0594
     32 C           1.2348   -3.0819   -0.0839 C.ar    1  UNL1       -0.0406
     33 H           4.0536    0.0137    1.0668 H       1  UNL1        0.0428
     34 H           5.0238   -0.8730   -0.1262 H       1  UNL1        0.0428
     35 H           3.5625    0.0280   -0.6148 H       1  UNL1        0.0428
     36 H           2.9491   -2.9725    2.1866 H       1  UNL1        0.0428
     37 H           4.1258   -3.6136    1.0075 H       1  UNL1        0.0428
     38 H           4.5377   -2.2351    2.0322 H       1  UNL1        0.0428
     39 H           3.3528   -1.5623   -2.2747 H       1  UNL1        0.0642
     40 H           0.8670   -2.9029   -4.8449 H       1  UNL1        0.0851
     41 H           3.3086   -1.5001   -9.4471 H       1  UNL1        0.0615
     42 H           5.5247   -1.5884   -5.0215 H       1  UNL1        0.0622
     43 H           7.9904   -1.7641   -5.3358 H       1  UNL1        0.0618
     44 H           8.9441   -2.2245   -7.5880 H       1  UNL1        0.0618
     45 H           7.4846   -1.9496   -9.5722 H       1  UNL1        0.0636
     46 H           5.9102    0.1383   -9.6868 H       1  UNL1        0.1522
     47 H           1.9468    0.6292   -5.9233 H       1  UNL1        0.0622
     48 H           2.4333    3.0617   -5.9428 H       1  UNL1        0.0618
     49 H           4.4388    3.9266   -7.1127 H       1  UNL1        0.0618
     50 H           5.8209    2.4265   -8.5185 H       1  UNL1        0.0636
     51 H          -0.2684   -3.7827   -3.0344 H       1  UNL1        0.0624
     52 H          -0.5536   -4.1615   -0.6137 H       1  UNL1        0.0618
     53 H           1.0634   -3.2474    0.9770 H       1  UNL1        0.0636
@<TRIPOS>BOND
     1     1    33    1
     2     1    34    1
     3     1    35    1
     4     2     1    1
     5     3     2    1
     6     3    36    1
     7     3    37    1
     8     3    38    1
     9     4     2    1
    10     5     4   ar
    11     5    39    1
    12     6     5   ar
    13     7     6    1
    14     7    40    1
    15     8     7    2
    16     9     8    1
    17    10     9   am
    18    11    10    2
    19    12    10    1
    20    13    12    2
    21    13    41    1
    22    14    13    1
    23    14     9    1
    24    15    14    1
    25    16    15   ar
    26    16    42    1
    27    17    16   ar
    28    17    43    1
    29    18    17   ar
    30    18    44    1
    31    19    18   ar
    32    19    45    1
    33    20    19   ar
    34    20    15   ar
    35    21    20    1
    36    21    46    1
    37    22    21    1
    38    23    22   ar
    39    23    14    1
    40    24    23   ar
    41    24    47    1
    42    25    24   ar
    43    25    48    1
    44    26    25   ar
    45    26    49    1
    46    27    26   ar
    47    27    22   ar
    48    27    50    1
    49    28    12    1
    50    29    28    3
    51    30     6   ar
    52    30    51    1
    53    31    30   ar
    54    31    52    1
    55    32    31   ar
    56    32     4   ar
    57    32    53    1
