@<TRIPOS>MOLECULE
>176.sdf
 49 53 0 0 0
SMALL
GASTEIGER

@<TRIPOS>ATOM
      1 C           0.3386   -1.7489    2.9343 C.3     1  UNL1       -0.0430
      2 N          -0.0243   -0.8267    1.8038 N.4     1  UNL1        0.2353
      3 C          -0.0169   -1.5669    0.4673 C.3     1  UNL1       -0.0160
      4 C          -0.4512   -0.6477   -0.6891 C.3     1  UNL1        0.0538
      5 N          -1.7061    0.0455   -0.3835 N.pl3   1  UNL1       -0.3032
      6 C          -1.7526    0.7717    0.8863 C.3     1  UNL1        0.0538
      7 C          -1.3713   -0.1448    2.0606 C.3     1  UNL1       -0.0160
      8 C          -2.8138    0.0078   -1.2193 C.ar    1  UNL1        0.1505
      9 N          -3.9100   -0.5479   -0.7552 N.ar    1  UNL1       -0.1473
     10 N          -4.9887   -0.5721   -1.6248 N.ar    1  UNL1       -0.1902
     11 C          -6.2528   -1.1180   -1.4347 C.ar    1  UNL1        0.1854
     12 N          -6.9780   -0.8766   -2.5176 N.ar    1  UNL1       -0.1270
     13 N          -6.2028   -0.2056   -3.4306 N.ar    1  UNL1       -0.1270
     14 C          -5.0210   -0.0314   -2.8881 C.ar    1  UNL1        0.1860
     15 C          -3.8450    0.6177   -3.4092 C.ar    1  UNL1        0.0315
     16 C          -2.7118    0.6354   -2.5908 C.ar    1  UNL1        0.0274
     17 C          -1.5544    1.2813   -3.0342 C.ar    1  UNL1       -0.0506
     18 C          -1.5190    1.8718   -4.2984 C.ar    1  UNL1       -0.0611
     19 C          -2.6503    1.8528   -5.1087 C.ar    1  UNL1       -0.0610
     20 C          -3.8218    1.2333   -4.6680 C.ar    1  UNL1       -0.0503
     21 C          -6.7397   -1.8092   -0.2372 C.ar    1  UNL1        0.0231
     22 C          -8.1159   -1.8064    0.0528 C.ar    1  UNL1       -0.0509
     23 C          -8.6173   -2.4251    1.2031 C.ar    1  UNL1       -0.0589
     24 C          -7.7480   -3.0597    2.0887 C.ar    1  UNL1       -0.0314
     25 C          -6.3798   -3.0863    1.7976 C.ar    1  UNL1        0.1269
     26 C          -5.8795   -2.4857    0.6328 C.ar    1  UNL1       -0.0207
     27 N          -5.4382   -3.7049    2.7384 N.pl3   1  UNL1        0.0564
     28 O          -5.8993   -4.2405    3.7539 O.2     1  UNL1       -0.1261
     29 O          -4.2249   -3.6189    2.4806 O.2     1  UNL1       -0.1261
     30 H           1.3105   -2.1949    2.7089 H       1  UNL1        0.0778
     31 H           0.4018   -1.1539    3.8489 H       1  UNL1        0.0778
     32 H          -0.4338   -2.5177    3.0181 H       1  UNL1        0.0778
     33 H           0.6903   -0.0890    1.7569 H       1  UNL1        0.2032
     34 H           1.0093   -1.9151    0.3052 H       1  UNL1        0.0830
     35 H          -0.6900   -2.4240    0.5681 H       1  UNL1        0.0830
     36 H           0.3335    0.0990   -0.8614 H       1  UNL1        0.0517
     37 H          -0.5441   -1.2466   -1.6022 H       1  UNL1        0.0517
     38 H          -1.0456    1.6088    0.8276 H       1  UNL1        0.0517
     39 H          -2.7429    1.2050    1.0652 H       1  UNL1        0.0517
     40 H          -2.1125   -0.9368    2.2061 H       1  UNL1        0.0830
     41 H          -1.2591    0.4397    2.9803 H       1  UNL1        0.0830
     42 H          -0.6677    1.3587   -2.4178 H       1  UNL1        0.0625
     43 H          -0.6124    2.3615   -4.6471 H       1  UNL1        0.0618
     44 H          -2.6315    2.3308   -6.0848 H       1  UNL1        0.0618
     45 H          -4.7075    1.2363   -5.2921 H       1  UNL1        0.0625
     46 H          -8.8145   -1.3088   -0.6221 H       1  UNL1        0.0625
     47 H          -9.6864   -2.4006    1.4087 H       1  UNL1        0.0618
     48 H          -8.1496   -3.5199    2.9897 H       1  UNL1        0.0640
     49 H          -4.8191   -2.5504    0.4038 H       1  UNL1        0.0647
@<TRIPOS>UNITY_ATOM_ATTR
2 1
charge 1
@<TRIPOS>BOND
     1     1    30    1
     2     1    31    1
     3     1    32    1
     4     2     1    1
     5     2    33    1
     6     3     2    1
     7     3    34    1
     8     3    35    1
     9     4     3    1
    10     4    36    1
    11     4    37    1
    12     5     4    1
    13     6     5    1
    14     6    38    1
    15     6    39    1
    16     7     6    1
    17     7     2    1
    18     7    40    1
    19     7    41    1
    20     8     5    1
    21     9     8   ar
    22    10     9   ar
    23    11    10   ar
    24    12    11   ar
    25    13    12   ar
    26    14    13   ar
    27    14    10   ar
    28    15    14   ar
    29    16    15   ar
    30    16     8   ar
    31    17    16   ar
    32    17    42    1
    33    18    17   ar
    34    18    43    1
    35    19    18   ar
    36    19    44    1
    37    20    19   ar
    38    20    15   ar
    39    20    45    1
    40    21    11    1
    41    22    21   ar
    42    22    46    1
    43    23    22   ar
    44    23    47    1
    45    24    23   ar
    46    24    48    1
    47    25    24   ar
    48    26    25   ar
    49    26    21   ar
    50    26    49    1
    51    27    25    1
    52    28    27    2
    53    29    27    2
