@<TRIPOS>MOLECULE
>162.sdf
 40 42 0 0 0
SMALL
GASTEIGER

@<TRIPOS>ATOM
      1 C           2.6655    1.2050   -0.7527 C.3     1  UNL1        0.0788
      2 O           2.3945    0.0567    0.0414 O.3     1  UNL1       -0.4951
      3 C           3.1393   -1.0604   -0.2181 C.ar    1  UNL1        0.1201
      4 C           4.1290   -1.1797   -1.1926 C.ar    1  UNL1       -0.0193
      5 C           4.8141   -2.3907   -1.3541 C.ar    1  UNL1       -0.0491
      6 C           4.5276   -3.4954   -0.5414 C.ar    1  UNL1        0.0012
      7 C           3.5313   -3.3692    0.4340 C.ar    1  UNL1       -0.0491
      8 C           2.8446   -2.1602    0.5906 C.ar    1  UNL1       -0.0193
      9 C           5.2749   -4.7330   -0.7286 C.ar    1  UNL1        0.0803
     10 C           5.5970   -5.6009    0.2950 C.ar    1  UNL1        0.0049
     11 S           6.5664   -6.8767   -0.3049 S.2     1  UNL1       -0.0586
     12 C           6.4523   -6.2156   -1.8959 C.ar    1  UNL1        0.1783
     13 N           7.0704   -6.8681   -2.9236 N.pl3   1  UNL1       -0.2150
     14 N           6.6704   -6.7327   -4.2176 N.2     1  UNL1       -0.1851
     15 C           7.2532   -7.4173   -5.1615 C.2     1  UNL1        0.0634
     16 C           8.4293   -8.3538   -4.9631 C.3     1  UNL1       -0.0203
     17 C           6.7231   -7.2602   -6.5651 C.ar    1  UNL1       -0.0011
     18 C           5.6238   -6.4150   -6.7911 C.ar    1  UNL1       -0.0331
     19 C           5.1254   -6.2242   -8.0854 C.ar    1  UNL1        0.0599
     20 CL          3.7796   -5.1579   -8.2849 Cl      1  UNL1       -0.0820
     21 C           5.7192   -6.8828   -9.1663 C.ar    1  UNL1        0.0593
     22 CL          5.1782   -6.6797  -10.7932 Cl      1  UNL1       -0.0820
     23 C           6.7999   -7.7406   -8.9452 C.ar    1  UNL1       -0.0414
     24 C           7.2967   -7.9312   -7.6511 C.ar    1  UNL1       -0.0514
     25 N           5.7610   -5.0984   -1.9749 N.ar    1  UNL1       -0.2236
     26 H           3.6960    1.5475   -0.6115 H       1  UNL1        0.0660
     27 H           2.4527    1.0137   -1.8097 H       1  UNL1        0.0660
     28 H           2.0002    2.0071   -0.4190 H       1  UNL1        0.0660
     29 H           4.3944   -0.3564   -1.8469 H       1  UNL1        0.0654
     30 H           5.5840   -2.4675   -2.1207 H       1  UNL1        0.0625
     31 H           3.2618   -4.2054    1.0732 H       1  UNL1        0.0625
     32 H           2.0687   -2.0764    1.3479 H       1  UNL1        0.0654
     33 H           5.3507   -5.5386    1.3446 H       1  UNL1        0.0716
     34 H           7.5647   -7.7060   -2.6381 H       1  UNL1        0.1765
     35 H           8.1335   -9.3726   -5.2315 H       1  UNL1        0.0293
     36 H           9.2606   -8.0339   -5.5981 H       1  UNL1        0.0293
     37 H           8.8072   -8.3735   -3.9413 H       1  UNL1        0.0293
     38 H           5.1527   -5.8955   -5.9565 H       1  UNL1        0.0639
     39 H           7.2657   -8.2612   -9.7799 H       1  UNL1        0.0633
     40 H           8.1396   -8.6062   -7.5287 H       1  UNL1        0.0624
@<TRIPOS>BOND
     1     1    26    1
     2     1    27    1
     3     1    28    1
     4     2     1    1
     5     3     2    1
     6     4     3   ar
     7     4    29    1
     8     5     4   ar
     9     5    30    1
    10     6     5   ar
    11     7     6   ar
    12     7    31    1
    13     8     7   ar
    14     8     3   ar
    15     8    32    1
    16     9     6    1
    17    10     9   ar
    18    10    33    1
    19    11    10   ar
    20    12    11   ar
    21    13    12    1
    22    13    34    1
    23    14    13    1
    24    15    14    2
    25    16    15    1
    26    16    35    1
    27    16    36    1
    28    16    37    1
    29    17    15    1
    30    18    17   ar
    31    18    38    1
    32    19    18   ar
    33    20    19    1
    34    21    19   ar
    35    22    21    1
    36    23    21   ar
    37    23    39    1
    38    24    23   ar
    39    24    17   ar
    40    24    40    1
    41    25    12   ar
    42    25     9   ar
