@<TRIPOS>MOLECULE
>148.sdf
 48 50 0 0 0
SMALL
GASTEIGER

@<TRIPOS>ATOM
      1 C           0.6976    0.1777    0.4902 C.3     1  UNL1       -0.0610
      2 C           2.2097    0.3371    0.5422 C.3     1  UNL1       -0.0237
      3 C           2.6707    1.7045    0.1071 C.ar    1  UNL1        0.0377
      4 C           3.0571    2.0498   -1.1408 C.ar    1  UNL1        0.0503
      5 C           3.0240    1.0505   -2.2700 C.3     1  UNL1       -0.0218
      6 N           3.5013    3.3096   -1.4998 N.ar    1  UNL1       -0.2170
      7 C           3.6249    4.1652   -0.5353 C.ar    1  UNL1        0.2337
      8 N           3.3255    3.9207    0.7732 N.ar    1  UNL1       -0.2912
      9 C           2.7712    2.7446    1.1668 C.ar    1  UNL1        0.2562
     10 O           2.3824    2.5582    2.3152 O.2     1  UNL1       -0.2675
     11 N           4.0786    5.4779   -0.7356 N.ar    1  UNL1       -0.1849
     12 N           4.2356    6.3199    0.3326 N.ar    1  UNL1       -0.1674
     13 C           4.6530    7.4681   -0.2141 C.ar    1  UNL1        0.0623
     14 C           4.9364    8.6578    0.6282 C.3     1  UNL1       -0.0205
     15 C           4.7606    7.3754   -1.6173 C.ar    1  UNL1        0.0013
     16 C           4.3780    6.0944   -1.9421 C.ar    1  UNL1        0.1321
     17 N           4.2901    5.5129   -3.2119 N.am    1  UNL1       -0.2661
     18 C           4.5013    6.2261   -4.4299 C.2     1  UNL1        0.2504
     19 O           4.7234    7.4292   -4.4154 O.2     1  UNL1       -0.2698
     20 C           4.3931    5.5151   -5.7251 C.ar    1  UNL1        0.0504
     21 C           3.9665    6.3042   -6.8138 C.ar    1  UNL1       -0.0486
     22 C           3.8772    5.7699   -8.0963 C.ar    1  UNL1       -0.0610
     23 C           4.2245    4.4397   -8.3056 C.ar    1  UNL1       -0.0607
     24 C           4.6455    3.6457   -7.2331 C.ar    1  UNL1       -0.0476
     25 C           4.7425    4.1694   -5.9332 C.ar    1  UNL1        0.0197
     26 S           5.2433    3.0837   -4.6032 S.3     1  UNL1       -0.1278
     27 C           6.8236    2.4389   -5.2066 C.3     1  UNL1       -0.0134
     28 H           0.4223   -0.8558    0.7214 H       1  UNL1        0.0233
     29 H           0.2060    0.8277    1.2233 H       1  UNL1        0.0233
     30 H           0.3008    0.4171   -0.5000 H       1  UNL1        0.0233
     31 H           2.5680    0.1177    1.5547 H       1  UNL1        0.0313
     32 H           2.6681   -0.4392   -0.0926 H       1  UNL1        0.0313
     33 H           3.8017    0.2923   -2.1326 H       1  UNL1        0.0293
     34 H           2.0490    0.5613   -2.3412 H       1  UNL1        0.0293
     35 H           3.1984    1.5342   -3.2331 H       1  UNL1        0.0293
     36 H           3.4222    4.6652    1.4588 H       1  UNL1        0.1719
     37 H           4.0564    8.9289    1.2195 H       1  UNL1        0.0293
     38 H           5.7721    8.4619    1.3066 H       1  UNL1        0.0293
     39 H           5.2013    9.5198    0.0063 H       1  UNL1        0.0293
     40 H           5.0758    8.1696   -2.2788 H       1  UNL1        0.0670
     41 H           4.0665    4.5128   -3.2407 H       1  UNL1        0.1566
     42 H           3.6958    7.3511   -6.6679 H       1  UNL1        0.0625
     43 H           3.5452    6.3888   -8.9249 H       1  UNL1        0.0618
     44 H           4.1611    4.0170   -9.3063 H       1  UNL1        0.0618
     45 H           4.8839    2.6042   -7.4357 H       1  UNL1        0.0629
     46 H           6.6748    1.7585   -6.0477 H       1  UNL1        0.0344
     47 H           7.4868    3.2568   -5.4966 H       1  UNL1        0.0344
     48 H           7.2958    1.8801   -4.3931 H       1  UNL1        0.0344
@<TRIPOS>BOND
     1     1    28    1
     2     1    29    1
     3     1    30    1
     4     2     1    1
     5     2    31    1
     6     2    32    1
     7     3     2    1
     8     4     3   ar
     9     5     4    1
    10     5    33    1
    11     5    34    1
    12     5    35    1
    13     6     4   ar
    14     7     6   ar
    15     8     7   ar
    16     8    36    1
    17     9     8   ar
    18     9     3   ar
    19    10     9    2
    20    11     7    1
    21    12    11   ar
    22    13    12   ar
    23    14    13    1
    24    14    37    1
    25    14    38    1
    26    14    39    1
    27    15    13   ar
    28    15    40    1
    29    16    15   ar
    30    16    11   ar
    31    17    16    1
    32    17    41    1
    33    18    17   am
    34    19    18    2
    35    20    18    1
    36    21    20   ar
    37    21    42    1
    38    22    21   ar
    39    22    43    1
    40    23    22   ar
    41    23    44    1
    42    24    23   ar
    43    24    45    1
    44    25    24   ar
    45    25    20   ar
    46    26    25    1
    47    27    26    1
    48    27    46    1
    49    27    47    1
    50    27    48    1
