@<TRIPOS>MOLECULE
>18.sdf
 24 25 0 0 0
SMALL
GASTEIGER

@<TRIPOS>ATOM
      1 BR          5.8439    0.4560    2.3029 Br      1  UNL1        0.0000
      2 C           3.9961    0.0143    2.5318 C.ar    1  UNL1        0.0000
      3 C           2.8903    0.8258    2.2706 C.ar    1  UNL1        0.0000
      4 C           2.9835    2.2384    1.7751 C.3     1  UNL1        0.0000
      5 SE          2.2202    2.4244   -0.0123 Se      1  UNL1        0.0000
      6 SE          2.5128    4.8042   -0.0077 Se      1  UNL1        0.0000
      7 C           4.4429    4.6558   -0.2556 C.3     1  UNL1        0.0000
      8 C           5.0786    6.0040   -0.4251 C.ar    1  UNL1        0.0000
      9 C           5.9887    6.5584    0.4721 C.ar    1  UNL1        0.0000
     10 BR          6.6215    5.7994    2.1096 Br      1  UNL1        0.0000
     11 S           6.4769    8.0577   -0.1082 S.2     1  UNL1        0.0000
     12 C           5.5431    8.0245   -1.5050 C.ar    1  UNL1        0.0000
     13 C           4.8289    6.8326   -1.5323 C.ar    1  UNL1        0.0000
     14 C           1.6697    0.1882    2.5431 C.ar    1  UNL1        0.0000
     15 C           1.8162   -1.1085    3.0197 C.ar    1  UNL1        0.0000
     16 S           3.4551   -1.4708    3.0961 S.2     1  UNL1        0.0000
     17 H           2.4568    2.9045    2.4893 H       1  UNL1        0.0000
     18 H           4.0473    2.5196    1.7185 H       1  UNL1        0.0000
     19 H           4.8662    4.1857    0.6449 H       1  UNL1        0.0000
     20 H           4.6726    4.0367   -1.1474 H       1  UNL1        0.0000
     21 H           5.5095    8.7994   -2.2584 H       1  UNL1        0.0000
     22 H           4.1566    6.5704   -2.3394 H       1  UNL1        0.0000
     23 H           0.7055    0.6603    2.4089 H       1  UNL1        0.0000
     24 H           1.0105   -1.7723    3.3011 H       1  UNL1        0.0000
@<TRIPOS>BOND
     1     2     1    1
     2     3     2   ar
     3     4     3    1
     4     4    17    1
     5     4    18    1
     6     5     4    1
     7     6     5    1
     8     7     6    1
     9     7    19    1
    10     7    20    1
    11     8     7    1
    12     9     8   ar
    13    10     9    1
    14    11     9   ar
    15    12    11   ar
    16    12    21    1
    17    13    12   ar
    18    13     8   ar
    19    13    22    1
    20    14     3   ar
    21    14    23    1
    22    15    14   ar
    23    15    24    1
    24    16    15   ar
    25    16     2   ar
