@<TRIPOS>MOLECULE
>96.sdf
 65 68 0 0 0
SMALL
GASTEIGER

@<TRIPOS>ATOM
      1 C          -0.8914    1.8722   -1.3815 C.3     1  UNL1        0.0788
      2 O           0.3640    1.6325   -0.7629 O.3     1  UNL1       -0.4951
      3 C           1.4501    1.9959   -1.5018 C.ar    1  UNL1        0.1201
      4 C           1.4520    2.8871   -2.5659 C.ar    1  UNL1       -0.0194
      5 C           2.6594    3.3371   -3.1089 C.ar    1  UNL1       -0.0505
      6 C           3.8985    2.9684   -2.5566 C.ar    1  UNL1       -0.0162
      7 C           3.8433    1.8478   -1.7065 C.ar    1  UNL1       -0.0505
      8 C           2.6496    1.4295   -1.1151 C.ar    1  UNL1       -0.0194
      9 C           5.0547    3.9845   -2.4856 C.ar    1  UNL1        0.0053
     10 C           5.9599    3.8159   -1.4393 C.ar    1  UNL1        0.0680
     11 C           5.7879    4.6578   -0.3675 C.ar    1  UNL1        0.0719
     12 C           5.9183    3.8541    0.9131 C.3     1  UNL1        0.0589
     13 N           6.3564    2.5457    0.4396 N.am    1  UNL1       -0.2779
     14 C           6.5716    2.5851   -0.9233 C.2     1  UNL1        0.2501
     15 O           7.1366    1.7733   -1.6339 O.2     1  UNL1       -0.2699
     16 C           6.5680    1.3844    1.3572 C.3     1  UNL1        0.1084
     17 C           5.3438    1.1782    2.2728 C.3     1  UNL1       -0.0352
     18 C           6.8003    0.0527    0.6141 C.3     1  UNL1       -0.0352
     19 C           7.8093    1.6384    2.2430 C.2     1  UNL1        0.2366
     20 O           7.9371    1.1148    3.3489 O.2     1  UNL1       -0.2735
     21 N           8.7896    2.3994    1.6456 N.am    1  UNL1       -0.3088
     22 C          10.0554    2.7688    2.2835 C.3     1  UNL1        0.0262
     23 C          10.9282    1.5262    2.5030 C.3     1  UNL1       -0.0442
     24 C          10.7978    3.7428    1.3525 C.3     1  UNL1       -0.0442
     25 C           9.7997    3.4904    3.6186 C.3     1  UNL1       -0.0442
     26 N           5.2193    5.8688   -0.4349 N.ar    1  UNL1       -0.2492
     27 C           4.7816    6.2441   -1.6495 C.ar    1  UNL1        0.0722
     28 C           4.7289    5.3603   -2.7565 C.ar    1  UNL1        0.0123
     29 C           4.2536    5.8643   -4.0107 C.ar    1  UNL1       -0.0102
     30 C           3.7537    7.1634   -4.1237 C.ar    1  UNL1        0.1208
     31 O           3.2169    7.7507   -5.2323 O.3     1  UNL1       -0.4951
     32 C           3.0462    6.9645   -6.4031 C.3     1  UNL1        0.0788
     33 C           3.7690    7.9862   -3.0024 C.ar    1  UNL1       -0.0179
     34 C           4.2935    7.5301   -1.7927 C.ar    1  UNL1       -0.0323
     35 H          -1.0739    2.9418   -1.5306 H       1  UNL1        0.0660
     36 H          -0.9501    1.3244   -2.3272 H       1  UNL1        0.0660
     37 H          -1.6706    1.4949   -0.7157 H       1  UNL1        0.0660
     38 H           0.5402    3.3356   -2.9440 H       1  UNL1        0.0654
     39 H           2.5730    4.0960   -3.8766 H       1  UNL1        0.0625
     40 H           4.7248    1.3329   -1.3618 H       1  UNL1        0.0625
     41 H           2.6750    0.6941   -0.3138 H       1  UNL1        0.0654
     42 H           6.6377    4.2856    1.6059 H       1  UNL1        0.0530
     43 H           4.9241    3.7554    1.3701 H       1  UNL1        0.0530
     44 H           4.4398    0.9741    1.6890 H       1  UNL1        0.0255
     45 H           5.4923    0.3339    2.9572 H       1  UNL1        0.0255
     46 H           5.1511    2.0565    2.8980 H       1  UNL1        0.0255
     47 H           7.7139    0.0674    0.0116 H       1  UNL1        0.0255
     48 H           6.9145   -0.7790    1.3211 H       1  UNL1        0.0255
     49 H           5.9579   -0.1943   -0.0424 H       1  UNL1        0.0255
     50 H           8.6796    2.5728    0.6511 H       1  UNL1        0.1493
     51 H          11.1369    1.0209    1.5527 H       1  UNL1        0.0250
     52 H          11.8867    1.7931    2.9616 H       1  UNL1        0.0250
     53 H          10.4433    0.7946    3.1576 H       1  UNL1        0.0250
     54 H          10.2036    4.6469    1.1731 H       1  UNL1        0.0250
     55 H          11.7570    4.0506    1.7831 H       1  UNL1        0.0250
     56 H          10.9965    3.2865    0.3760 H       1  UNL1        0.0250
     57 H           9.1620    4.3699    3.4734 H       1  UNL1        0.0250
     58 H           9.3014    2.8480    4.3505 H       1  UNL1        0.0250
     59 H          10.7397    3.8254    4.0724 H       1  UNL1        0.0250
     60 H           4.2594    5.2007   -4.8681 H       1  UNL1        0.0661
     61 H           3.9878    6.5146   -6.7310 H       1  UNL1        0.0660
     62 H           2.2729    6.2048   -6.2546 H       1  UNL1        0.0660
     63 H           2.7071    7.6342   -7.2004 H       1  UNL1        0.0660
     64 H           3.3624    8.9932   -3.0641 H       1  UNL1        0.0655
     65 H           4.2884    8.1918   -0.9295 H       1  UNL1        0.0640
@<TRIPOS>BOND
     1     1    35    1
     2     1    36    1
     3     1    37    1
     4     2     1    1
     5     3     2    1
     6     4     3   ar
     7     4    38    1
     8     5     4   ar
     9     5    39    1
    10     6     5   ar
    11     7     6   ar
    12     7    40    1
    13     8     7   ar
    14     8     3   ar
    15     8    41    1
    16     9     6    1
    17    10     9   ar
    18    11    10   ar
    19    12    11    1
    20    12    42    1
    21    12    43    1
    22    13    12    1
    23    14    13   am
    24    14    10    1
    25    15    14    2
    26    16    13    1
    27    17    16    1
    28    17    44    1
    29    17    45    1
    30    17    46    1
    31    18    16    1
    32    18    47    1
    33    18    48    1
    34    18    49    1
    35    19    16    1
    36    20    19    2
    37    21    19   am
    38    21    50    1
    39    22    21    1
    40    23    22    1
    41    23    51    1
    42    23    52    1
    43    23    53    1
    44    24    22    1
    45    24    54    1
    46    24    55    1
    47    24    56    1
    48    25    22    1
    49    25    57    1
    50    25    58    1
    51    25    59    1
    52    26    11   ar
    53    27    26   ar
    54    28    27   ar
    55    28     9   ar
    56    29    28   ar
    57    29    60    1
    58    30    29   ar
    59    31    30    1
    60    32    31    1
    61    32    61    1
    62    32    62    1
    63    32    63    1
    64    33    30   ar
    65    33    64    1
    66    34    33   ar
    67    34    27   ar
    68    34    65    1
