@<TRIPOS>MOLECULE
>72.sdf
 57 61 0 0 0
SMALL
GASTEIGER

@<TRIPOS>ATOM
      1 F           0.0942   -0.6524    1.3794 F       1  UNL1       -0.2055
      2 C           1.4108   -0.4069    1.3664 C.ar    1  UNL1        0.1240
      3 C           2.2887   -1.4433    1.0524 C.ar    1  UNL1       -0.0176
      4 C           3.6938   -1.2330    1.0603 C.ar    1  UNL1       -0.0004
      5 C           4.1362    0.0640    1.3595 C.ar    1  UNL1        0.0201
      6 S           5.8491    0.1766    1.3181 S.2     1  UNL1       -0.0960
      7 C           6.0190   -1.4724    0.9401 C.ar    1  UNL1       -0.0155
      8 C           4.8113   -2.1332    0.8033 C.ar    1  UNL1       -0.0031
      9 C           4.7865   -3.5708    0.4891 C.ar    1  UNL1       -0.0168
     10 C           3.8280   -4.4169    1.0586 C.ar    1  UNL1       -0.0536
     11 C           3.8311   -5.7925    0.8034 C.ar    1  UNL1       -0.0530
     12 C           4.8314   -6.3661    0.0107 C.ar    1  UNL1       -0.0029
     13 C           4.8698   -7.8522   -0.1977 C.3     1  UNL1       -0.0077
     14 N           4.0572   -8.2413   -1.3841 N.4     1  UNL1        0.2303
     15 C           4.0534   -9.7070   -1.6821 C.3     1  UNL1       -0.0319
     16 C           3.2360  -10.0087   -2.9363 C.3     1  UNL1        0.0029
     17 C           3.8352   -9.3453   -4.1723 C.3     1  UNL1        0.0139
     18 N           3.0122   -9.5769   -5.3485 N.pl3   1  UNL1       -0.3431
     19 C           3.5290   -9.0363   -6.5650 C.ar    1  UNL1        0.0378
     20 C           4.2882   -7.8614   -6.5719 C.ar    1  UNL1       -0.0221
     21 C           4.8414   -7.4230   -7.7585 C.ar    1  UNL1        0.0300
     22 N           4.6691   -8.0499   -8.9313 N.ar    1  UNL1       -0.2548
     23 C           3.8441   -9.1047   -8.9692 C.ar    1  UNL1        0.0741
     24 C           3.1988   -9.6209   -7.8200 C.ar    1  UNL1        0.0213
     25 C           2.2720  -10.6799   -7.9875 C.ar    1  UNL1       -0.0494
     26 C           2.0301  -11.2311   -9.2441 C.ar    1  UNL1       -0.0426
     27 C           2.7216  -10.7450  -10.3442 C.ar    1  UNL1        0.0430
     28 CL          2.4529  -11.4395  -11.8934 Cl      1  UNL1       -0.0835
     29 C           3.6217   -9.6923  -10.2033 C.ar    1  UNL1       -0.0173
     30 C           5.7787   -5.5256   -0.5884 C.ar    1  UNL1       -0.0530
     31 C           5.7492   -4.1441   -0.3563 C.ar    1  UNL1       -0.0536
     32 C           3.2411    1.1163    1.6526 C.ar    1  UNL1       -0.0447
     33 C           1.8711    0.8603    1.6617 C.ar    1  UNL1       -0.0254
     34 H           1.8607   -2.4083    0.8065 H       1  UNL1        0.0653
     35 H           7.0192   -1.8709    0.8417 H       1  UNL1        0.0700
     36 H           3.0810   -4.0270    1.7464 H       1  UNL1        0.0624
     37 H           3.0616   -6.4037    1.2726 H       1  UNL1        0.0622
     38 H           5.8959   -8.1948   -0.3736 H       1  UNL1        0.0866
     39 H           4.4668   -8.3856    0.6698 H       1  UNL1        0.0866
     40 H           3.0946   -7.9040   -1.2445 H       1  UNL1        0.2017
     41 H           4.4263   -7.6905   -2.1673 H       1  UNL1        0.2017
     42 H           5.0952  -10.0217   -1.8016 H       1  UNL1        0.0814
     43 H           3.6194  -10.2082   -0.8111 H       1  UNL1        0.0814
     44 H           3.2037  -11.0952   -3.0852 H       1  UNL1        0.0332
     45 H           2.1981   -9.6827   -2.7948 H       1  UNL1        0.0332
     46 H           3.8795   -8.2706   -3.9837 H       1  UNL1        0.0463
     47 H           4.8548   -9.7178   -4.3320 H       1  UNL1        0.0463
     48 H           2.8186  -10.5696   -5.4869 H       1  UNL1        0.1461
     49 H           4.4731   -7.2691   -5.6891 H       1  UNL1        0.0651
     50 H           5.4560   -6.5291   -7.7966 H       1  UNL1        0.0830
     51 H           1.6950  -11.0564   -7.1492 H       1  UNL1        0.0625
     52 H           1.2987  -12.0280   -9.3577 H       1  UNL1        0.0632
     53 H           4.1525   -9.3100  -11.0706 H       1  UNL1        0.0653
     54 H           6.5738   -5.9229   -1.2183 H       1  UNL1        0.0622
     55 H           6.5079   -3.5221   -0.8309 H       1  UNL1        0.0624
     56 H           3.6139    2.1132    1.8750 H       1  UNL1        0.0630
     57 H           1.1641    1.6509    1.8946 H       1  UNL1        0.0646
@<TRIPOS>UNITY_ATOM_ATTR
14 1
charge 1
@<TRIPOS>BOND
     1     2     1    1
     2     3     2   ar
     3     3    34    1
     4     4     3   ar
     5     5     4   ar
     6     6     5   ar
     7     7     6   ar
     8     7    35    1
     9     8     7   ar
    10     8     4   ar
    11     9     8    1
    12    10     9   ar
    13    10    36    1
    14    11    10   ar
    15    11    37    1
    16    12    11   ar
    17    13    12    1
    18    13    38    1
    19    13    39    1
    20    14    13    1
    21    14    40    1
    22    14    41    1
    23    15    14    1
    24    15    42    1
    25    15    43    1
    26    16    15    1
    27    16    44    1
    28    16    45    1
    29    17    16    1
    30    17    46    1
    31    17    47    1
    32    18    17    1
    33    18    48    1
    34    19    18    1
    35    20    19   ar
    36    20    49    1
    37    21    20   ar
    38    21    50    1
    39    22    21   ar
    40    23    22   ar
    41    24    23   ar
    42    24    19   ar
    43    25    24   ar
    44    25    51    1
    45    26    25   ar
    46    26    52    1
    47    27    26   ar
    48    28    27    1
    49    29    27   ar
    50    29    23   ar
    51    29    53    1
    52    30    12   ar
    53    30    54    1
    54    31    30   ar
    55    31     9   ar
    56    31    55    1
    57    32     5   ar
    58    32    56    1
    59    33    32   ar
    60    33     2   ar
    61    33    57    1
