@<TRIPOS>MOLECULE
>32.sdf
 47 49 0 0 0
SMALL
GASTEIGER

@<TRIPOS>ATOM
      1 C           1.7519    3.5514   -0.1523 C.3     1  UNL1       -0.0494
      2 C           2.1283    2.2370    0.5166 C.3     1  UNL1        0.0097
      3 N           2.8770    1.3319   -0.4035 N.pl3   1  UNL1       -0.3222
      4 C           2.3537   -0.0633   -0.3809 C.3     1  UNL1        0.0522
      5 C           1.5198   -0.3312   -1.6486 C.3     1  UNL1       -0.0193
      6 N           2.2715    0.1215   -2.8425 N.4     1  UNL1        0.2196
      7 C           4.2885    1.5061   -0.4884 C.ar    1  UNL1        0.0736
      8 C           4.9247    2.6469    0.0698 C.ar    1  UNL1       -0.0159
      9 C           6.3149    2.8684    0.0307 C.ar    1  UNL1        0.0333
     10 N           6.8652    4.0540    0.5692 N.pl3   1  UNL1       -0.3139
     11 C           8.1772    4.2355    1.0832 C.ar    1  UNL1        0.0420
     12 C           8.7602    3.2390    1.8693 C.ar    1  UNL1       -0.0218
     13 C          10.0547    3.4235    2.3197 C.ar    1  UNL1        0.0300
     14 N          10.7862    4.5158    2.0478 N.ar    1  UNL1       -0.2548
     15 C          10.2271    5.4971    1.3254 C.ar    1  UNL1        0.0741
     16 C           8.9022    5.4285    0.8342 C.ar    1  UNL1        0.0216
     17 C           8.3914    6.5232    0.0967 C.ar    1  UNL1       -0.0494
     18 C           9.1820    7.6426   -0.1639 C.ar    1  UNL1       -0.0426
     19 C          10.4894    7.6760    0.3040 C.ar    1  UNL1        0.0430
     20 CL         11.4880    9.0320   -0.0456 Cl      1  UNL1       -0.0835
     21 C          10.9985    6.6135    1.0441 C.ar    1  UNL1       -0.0173
     22 C           7.1148    1.9197   -0.6008 C.ar    1  UNL1       -0.0370
     23 C           6.5456    0.8027   -1.1995 C.ar    1  UNL1       -0.0166
     24 C           5.1573    0.6157   -1.1707 C.ar    1  UNL1        0.1379
     25 O           4.6761   -0.4602   -1.8924 O.3     1  UNL1       -0.5049
     26 H           1.3371    4.2390    0.5927 H       1  UNL1        0.0245
     27 H           2.5977    4.0469   -0.6353 H       1  UNL1        0.0245
     28 H           0.9895    3.3853   -0.9198 H       1  UNL1        0.0245
     29 H           2.6745    2.3916    1.4545 H       1  UNL1        0.0461
     30 H           1.1823    1.7694    0.8189 H       1  UNL1        0.0461
     31 H           3.1369   -0.8177   -0.2582 H       1  UNL1        0.0516
     32 H           1.7070   -0.2265    0.4905 H       1  UNL1        0.0516
     33 H           1.2940   -1.3934   -1.7741 H       1  UNL1        0.0829
     34 H           0.5906    0.2476   -1.6388 H       1  UNL1        0.0829
     35 H           2.5133    1.1131   -2.6913 H       1  UNL1        0.1995
     36 H           3.1968   -0.3388   -2.8600 H       1  UNL1        0.1995
     37 H           1.7922    0.0044   -3.7381 H       1  UNL1        0.1995
     38 H           4.3474    3.4132    0.5770 H       1  UNL1        0.0656
     39 H           6.2023    4.6939    0.9960 H       1  UNL1        0.1522
     40 H           8.2239    2.3328    2.1268 H       1  UNL1        0.0651
     41 H          10.5465    2.6667    2.9205 H       1  UNL1        0.0830
     42 H           7.3761    6.5036   -0.2932 H       1  UNL1        0.0625
     43 H           8.7805    8.4746   -0.7364 H       1  UNL1        0.0632
     44 H          12.0232    6.6449    1.4062 H       1  UNL1        0.0653
     45 H           8.1907    2.0636   -0.6701 H       1  UNL1        0.0637
     46 H           7.2076    0.1083   -1.7102 H       1  UNL1        0.0655
     47 H           5.4382   -1.0644   -2.0136 H       1  UNL1        0.2922
@<TRIPOS>UNITY_ATOM_ATTR
6 1
charge 1
@<TRIPOS>BOND
     1     1    26    1
     2     1    27    1
     3     1    28    1
     4     2     1    1
     5     2    29    1
     6     2    30    1
     7     3     2    1
     8     4     3    1
     9     4    31    1
    10     4    32    1
    11     5     4    1
    12     5    33    1
    13     5    34    1
    14     6     5    1
    15     6    35    1
    16     6    36    1
    17     6    37    1
    18     7     3    1
    19     8     7   ar
    20     8    38    1
    21     9     8   ar
    22    10     9    1
    23    10    39    1
    24    11    10    1
    25    12    11   ar
    26    12    40    1
    27    13    12   ar
    28    13    41    1
    29    14    13   ar
    30    15    14   ar
    31    16    15   ar
    32    16    11   ar
    33    17    16   ar
    34    17    42    1
    35    18    17   ar
    36    18    43    1
    37    19    18   ar
    38    20    19    1
    39    21    19   ar
    40    21    15   ar
    41    21    44    1
    42    22     9   ar
    43    22    45    1
    44    23    22   ar
    45    23    46    1
    46    24    23   ar
    47    24     7   ar
    48    25    24    1
    49    25    47    1
