@<TRIPOS>MOLECULE
>13.sdf
 54 57 0 0 0
SMALL
GASTEIGER

@<TRIPOS>ATOM
      1 C           0.9988    0.0266    0.1864 C.3     1  UNL1        0.0004
      2 N           2.4194   -0.2053    0.4368 N.pl3   1  UNL1       -0.3360
      3 C           3.1900    0.9693    0.8433 C.3     1  UNL1        0.0004
      4 C           3.1142   -1.0715   -0.4161 C.ar    1  UNL1        0.0298
      5 C           4.2863   -1.7104    0.0185 C.ar    1  UNL1       -0.0329
      6 C           4.9703   -2.6734   -0.7610 C.ar    1  UNL1       -0.0138
      7 C           6.1183   -3.3101   -0.2543 C.ar    1  UNL1       -0.0461
      8 C           6.8222   -4.2786   -0.9831 C.ar    1  UNL1       -0.0138
      9 C           6.3554   -4.6655   -2.2522 C.ar    1  UNL1        0.0040
     10 C           7.0951   -5.6561   -2.9218 C.ar    1  UNL1       -0.0505
     11 C           8.2565   -6.2237   -2.3652 C.ar    1  UNL1       -0.0400
     12 C           8.7475   -5.8552   -1.1057 C.ar    1  UNL1        0.0298
     13 C           7.9907   -4.8786   -0.4385 C.ar    1  UNL1       -0.0329
     14 N           9.8973   -6.4226   -0.5767 N.pl3   1  UNL1       -0.3360
     15 C          10.4454   -6.1120    0.7392 C.3     1  UNL1        0.0004
     16 C          10.6161   -7.4682   -1.3073 C.3     1  UNL1        0.0004
     17 C           5.1704   -4.0558   -2.7789 C.ar    1  UNL1        0.0469
     18 N           4.7184   -4.5056   -4.0703 N.pl3   1  UNL1       -0.3135
     19 C           3.3969   -4.5540   -4.5697 C.ar    1  UNL1        0.0314
     20 C           3.1293   -4.1529   -5.8835 C.ar    1  UNL1       -0.0388
     21 C           1.8100   -3.9557   -6.3109 C.ar    1  UNL1       -0.0393
     22 C           0.7342   -4.2010   -5.4545 C.ar    1  UNL1        0.0247
     23 N          -0.5538   -3.7753   -5.7998 N.pl3   1  UNL1       -0.3580
     24 C           1.0014   -4.6372   -4.1570 C.ar    1  UNL1       -0.0393
     25 C           2.3148   -4.8703   -3.7376 C.ar    1  UNL1       -0.0388
     26 C           4.5033   -3.0109   -2.0459 C.ar    1  UNL1        0.0040
     27 C           3.3980   -2.2557   -2.5099 C.ar    1  UNL1       -0.0505
     28 C           2.6937   -1.3558   -1.7064 C.ar    1  UNL1       -0.0400
     29 H           0.5066    0.2879    1.1300 H       1  UNL1        0.0428
     30 H           0.8414    0.8478   -0.5217 H       1  UNL1        0.0428
     31 H           0.4899   -0.8702   -0.1859 H       1  UNL1        0.0428
     32 H           3.9194    0.7045    1.6156 H       1  UNL1        0.0428
     33 H           3.7158    1.4233   -0.0055 H       1  UNL1        0.0428
     34 H           2.5346    1.7369    1.2705 H       1  UNL1        0.0428
     35 H           4.6514   -1.4877    1.0198 H       1  UNL1        0.0642
     36 H           6.4744   -3.0327    0.7354 H       1  UNL1        0.0630
     37 H           6.7732   -6.0194   -3.8941 H       1  UNL1        0.0625
     38 H           8.7606   -6.9753   -2.9641 H       1  UNL1        0.0636
     39 H           8.2903   -4.5384    0.5462 H       1  UNL1        0.0642
     40 H          10.4305   -7.0096    1.3684 H       1  UNL1        0.0428
     41 H          11.4888   -5.7919    0.6354 H       1  UNL1        0.0428
     42 H           9.9310   -5.3244    1.2891 H       1  UNL1        0.0428
     43 H           9.9770   -8.3420   -1.4746 H       1  UNL1        0.0428
     44 H          10.9882   -7.0923   -2.2665 H       1  UNL1        0.0428
     45 H          11.4910   -7.8189   -0.7456 H       1  UNL1        0.0428
     46 H           5.4018   -4.2509   -4.7756 H       1  UNL1        0.1522
     47 H           3.9409   -3.9097   -6.5631 H       1  UNL1        0.0637
     48 H           1.6343   -3.5615   -7.3081 H       1  UNL1        0.0636
     49 H          -1.2905   -4.2241   -5.2651 H       1  UNL1        0.1423
     50 H          -0.7372   -3.7826   -6.7975 H       1  UNL1        0.1423
     51 H           0.1964   -4.7545   -3.4371 H       1  UNL1        0.0636
     52 H           2.4933   -5.1843   -2.7117 H       1  UNL1        0.0637
     53 H           3.0337   -2.3651   -3.5226 H       1  UNL1        0.0625
     54 H           1.8165   -0.8812   -2.1368 H       1  UNL1        0.0636
@<TRIPOS>BOND
     1     1    29    1
     2     1    30    1
     3     1    31    1
     4     2     1    1
     5     3     2    1
     6     3    32    1
     7     3    33    1
     8     3    34    1
     9     4     2    1
    10     5     4   ar
    11     5    35    1
    12     6     5   ar
    13     7     6   ar
    14     7    36    1
    15     8     7   ar
    16     9     8   ar
    17    10     9   ar
    18    10    37    1
    19    11    10   ar
    20    11    38    1
    21    12    11   ar
    22    13    12   ar
    23    13     8   ar
    24    13    39    1
    25    14    12    1
    26    15    14    1
    27    15    40    1
    28    15    41    1
    29    15    42    1
    30    16    14    1
    31    16    43    1
    32    16    44    1
    33    16    45    1
    34    17     9   ar
    35    18    17    1
    36    18    46    1
    37    19    18    1
    38    20    19   ar
    39    20    47    1
    40    21    20   ar
    41    21    48    1
    42    22    21   ar
    43    23    22    1
    44    23    49    1
    45    23    50    1
    46    24    22   ar
    47    24    51    1
    48    25    24   ar
    49    25    19   ar
    50    25    52    1
    51    26    17   ar
    52    26     6   ar
    53    27    26   ar
    54    27    53    1
    55    28    27   ar
    56    28     4   ar
    57    28    54    1
