@<TRIPOS>MOLECULE
>113.sdf
 36 37 0 0 0
SMALL
GASTEIGER

@<TRIPOS>ATOM
      1 C           2.4497    1.5348    3.6096 C.3     1  UNL1       -0.0437
      2 C           2.2322    0.8358    2.2898 C.2     1  UNL1       -0.0755
      3 C           1.1716    0.0172    2.1876 C.2     1  UNL1       -0.0994
      4 C           3.2277    0.9857    1.1114 C.3     1  UNL1       -0.0071
      5 C           4.6344    0.4444    1.5154 C.3     1  UNL1       -0.0169
      6 C           5.4506    1.5085    2.1609 C.ar    1  UNL1       -0.0030
      7 C           5.1380    2.8467    2.0607 C.ar    1  UNL1        0.1091
      8 C           3.9828    3.4733    1.3614 C.3     1  UNL1        0.0151
      9 C           3.3118    2.4206    0.4118 C.3     1  UNL1       -0.0007
     10 C           1.8895    2.9026    0.0501 C.3     1  UNL1       -0.0552
     11 C           4.1967    2.3324   -0.8559 C.2     1  UNL1       -0.0842
     12 C           3.8673    2.5547   -2.1366 C.2     1  UNL1       -0.1021
     13 O           5.9781    3.6014    2.8053 O.2     1  UNL1       -0.4672
     14 C           6.8583    2.7309    3.3740 C.ar    1  UNL1        0.0952
     15 C           6.5925    1.4258    2.9983 C.ar    1  UNL1       -0.0093
     16 C           7.3126    0.1943    3.4004 C.3     1  UNL1       -0.0365
     17 H           1.8418    2.4431    3.6662 H       1  UNL1        0.0274
     18 H           2.1698    0.8825    4.4459 H       1  UNL1        0.0274
     19 H           3.4845    1.8084    3.8026 H       1  UNL1        0.0274
     20 H           0.9552   -0.5411    1.2793 H       1  UNL1        0.0534
     21 H           0.4827   -0.1154    3.0170 H       1  UNL1        0.0534
     22 H           2.8725    0.2942    0.3293 H       1  UNL1        0.0357
     23 H           4.5375   -0.4241    2.1788 H       1  UNL1        0.0320
     24 H           5.1640    0.0906    0.6221 H       1  UNL1        0.0320
     25 H           4.3125    4.3559    0.7997 H       1  UNL1        0.0352
     26 H           3.2630    3.8254    2.1100 H       1  UNL1        0.0352
     27 H           1.9109    3.8467   -0.5045 H       1  UNL1        0.0238
     28 H           1.3669    2.1609   -0.5718 H       1  UNL1        0.0238
     29 H           1.2765    3.0704    0.9405 H       1  UNL1        0.0238
     30 H           5.2471    2.0953   -0.6771 H       1  UNL1        0.0572
     31 H           2.8679    2.8230   -2.4563 H       1  UNL1        0.0532
     32 H           4.6281    2.4867   -2.9109 H       1  UNL1        0.0532
     33 H           7.5972    3.1837    4.0206 H       1  UNL1        0.1032
     34 H           6.6225   -0.5203    3.8609 H       1  UNL1        0.0279
     35 H           7.7648   -0.2797    2.5229 H       1  UNL1        0.0279
     36 H           8.1073    0.4150    4.1193 H       1  UNL1        0.0279
@<TRIPOS>BOND
     1     1    17    1
     2     1    18    1
     3     1    19    1
     4     2     1    1
     5     3     2    2
     6     3    20    1
     7     3    21    1
     8     5     4    1
     9     5    23    1
    10     5    24    1
    11     6     5    1
    12     7     6   ar
    13     8     7    1
    14     8    25    1
    15     8    26    1
    16     9     8    1
    17     9     4    1
    18    10    27    1
    19    10    28    1
    20    10    29    1
    21    11    30    1
    22    12    11    2
    23    12    31    1
    24    12    32    1
    25    13     7   ar
    26    14    13   ar
    27    14    33    1
    28    15    14   ar
    29    15     6   ar
    30    16    15    1
    31    16    34    1
    32    16    35    1
    33    16    36    1
    34     4    22    1
    35     4     2    1
    36     9    11    1
    37     9    10    1
