@<TRIPOS>MOLECULE
>65.sdf
 47 50 0 0 0
SMALL
GASTEIGER

@<TRIPOS>ATOM
      1 C           1.6823   -1.0158   -2.0140 C.3     1  UNL1        0.1346
      2 O           1.9180   -2.3987   -2.2702 O.3     1  UNL1       -0.4858
      3 C           1.0619   -3.0312   -3.1270 C.ar    1  UNL1        0.1211
      4 C          -0.0385   -2.4622   -3.7702 C.ar    1  UNL1       -0.0199
      5 C          -0.8161   -3.2331   -4.6414 C.ar    1  UNL1       -0.0583
      6 C          -0.4998   -4.5718   -4.8680 C.ar    1  UNL1       -0.0615
      7 C           0.5903   -5.1462   -4.2194 C.ar    1  UNL1       -0.0583
      8 C           1.3657   -4.3759   -3.3520 C.ar    1  UNL1       -0.0199
      9 C           2.7335   -0.4666   -1.1168 C.ar    1  UNL1        0.1204
     10 C           3.9710    0.0543   -1.4245 C.ar    1  UNL1        0.0578
     11 N           4.4702    0.5213   -0.2265 N.ar    1  UNL1       -0.2191
     12 N           3.6083    0.2003    0.7613 N.ar    1  UNL1       -0.0604
     13 N           2.5439   -0.3836    0.2321 N.ar    1  UNL1       -0.1307
     14 C           5.6738    1.2390   -0.0104 C.ar    1  UNL1        0.0756
     15 C           5.8629    2.1207    1.0725 C.ar    1  UNL1        0.0200
     16 C           4.8358    2.4600    2.0945 C.2     1  UNL1        0.0547
     17 N           5.1116    3.2696    3.0714 N.2     1  UNL1       -0.1899
     18 N           4.0861    3.5065    3.9303 N.pl3   1  UNL1       -0.2378
     19 C           4.3274    4.4065    4.9929 C.ar    1  UNL1        0.0483
     20 C           5.4206    5.2862    4.9848 C.ar    1  UNL1       -0.0391
     21 C           5.5940    6.2331    5.9985 C.ar    1  UNL1       -0.0600
     22 C           4.6621    6.3265    7.0251 C.ar    1  UNL1       -0.0616
     23 C           3.5563    5.4779    7.0407 C.ar    1  UNL1       -0.0600
     24 C           3.3868    4.5308    6.0241 C.ar    1  UNL1       -0.0391
     25 C           7.0814    2.8243    1.1672 C.ar    1  UNL1       -0.0511
     26 C           8.0995    2.6489    0.2310 C.ar    1  UNL1       -0.0610
     27 C           7.9209    1.7620   -0.8204 C.ar    1  UNL1       -0.0597
     28 C           6.7162    1.0679   -0.9481 C.ar    1  UNL1       -0.0356
     29 H           0.7027   -0.8827   -1.5379 H       1  UNL1        0.0764
     30 H           1.7019   -0.4515   -2.9554 H       1  UNL1        0.0764
     31 H          -0.3243   -1.4270   -3.6196 H       1  UNL1        0.0654
     32 H          -1.6704   -2.7881   -5.1444 H       1  UNL1        0.0619
     33 H          -1.1044   -5.1683   -5.5471 H       1  UNL1        0.0618
     34 H           0.8390   -6.1903   -4.3869 H       1  UNL1        0.0619
     35 H           2.2156   -4.8272   -2.8458 H       1  UNL1        0.0654
     36 H           4.4730    0.1980   -2.3688 H       1  UNL1        0.0851
     37 H           3.8210    2.0491    2.0138 H       1  UNL1        0.0852
     38 H           3.4778    2.7304    4.1857 H       1  UNL1        0.1744
     39 H           6.1470    5.2370    4.1786 H       1  UNL1        0.0636
     40 H           6.4524    6.8973    5.9716 H       1  UNL1        0.0618
     41 H           4.7899    7.0698    7.8098 H       1  UNL1        0.0618
     42 H           2.8200    5.5573    7.8347 H       1  UNL1        0.0618
     43 H           2.5082    3.8938    6.0423 H       1  UNL1        0.0636
     44 H           7.2425    3.5409    1.9725 H       1  UNL1        0.0625
     45 H           9.0269    3.2085    0.3288 H       1  UNL1        0.0618
     46 H           8.7208    1.6080   -1.5416 H       1  UNL1        0.0618
     47 H           6.6329    0.3631   -1.7730 H       1  UNL1        0.0639
@<TRIPOS>BOND
     1     1    29    1
     2     1    30    1
     3     2     1    1
     4     3     2    1
     5     4     3   ar
     6     4    31    1
     7     5     4   ar
     8     5    32    1
     9     6     5   ar
    10     6    33    1
    11     7     6   ar
    12     7    34    1
    13     8     7   ar
    14     8     3   ar
    15     8    35    1
    16     9     1    1
    17    10     9   ar
    18    10    36    1
    19    11    10   ar
    20    12    11   ar
    21    13    12   ar
    22    13     9   ar
    23    14    11    1
    24    15    14   ar
    25    16    15    1
    26    16    37    1
    27    17    16    2
    28    18    17    1
    29    18    38    1
    30    19    18    1
    31    20    19   ar
    32    20    39    1
    33    21    20   ar
    34    21    40    1
    35    22    21   ar
    36    22    41    1
    37    23    22   ar
    38    23    42    1
    39    24    23   ar
    40    24    19   ar
    41    24    43    1
    42    25    15   ar
    43    25    44    1
    44    26    25   ar
    45    26    45    1
    46    27    26   ar
    47    27    46    1
    48    28    27   ar
    49    28    14   ar
    50    28    47    1
