@<TRIPOS>MOLECULE
>168.sdf
 22 23 0 0 0
SMALL
GASTEIGER

@<TRIPOS>ATOM
      1 C           1.1771    0.3429    0.1331 C.3     1  UNL1       -0.0619
      2 C           2.6110   -0.0897   -0.1264 C.3     1  UNL1       -0.0168
      3 C           3.1067   -1.1580    0.8503 C.3     1  UNL1        0.1209
      4 C           2.3015   -2.4816    0.8000 C.3     1  UNL1        0.0646
      5 N           3.3437   -3.4131    0.4694 N.ar    1  UNL1       -0.2952
      6 C           3.4748   -4.7203    0.1944 C.ar    1  UNL1        0.0586
      7 C           4.8310   -4.8297   -0.1121 C.ar    1  UNL1        0.2357
      8 N           5.4873   -3.5987   -0.0300 N.ar    1  UNL1       -0.1709
      9 C           4.5278   -2.7891    0.3190 C.ar    1  UNL1        0.3007
     10 O           4.4963   -1.4821    0.5135 O.3     1  UNL1       -0.4584
     11 N           5.5373   -6.0322   -0.4987 N.pl3   1  UNL1        0.0767
     12 O           4.8595   -7.0686   -0.5798 O.2     1  UNL1       -0.1246
     13 O           6.7528   -5.9465   -0.7191 O.2     1  UNL1       -0.1246
     14 H           0.9058    1.1667   -0.5348 H       1  UNL1        0.0231
     15 H           0.4716   -0.4735   -0.0481 H       1  UNL1        0.0231
     16 H           1.0491    0.6850    1.1647 H       1  UNL1        0.0231
     17 H           2.7092   -0.4499   -1.1579 H       1  UNL1        0.0299
     18 H           3.2699    0.7849   -0.0568 H       1  UNL1        0.0299
     19 H           3.1061   -0.7572    1.8716 H       1  UNL1        0.0752
     20 H           1.8807   -2.7474    1.7730 H       1  UNL1        0.0530
     21 H           1.5390   -2.5183    0.0184 H       1  UNL1        0.0530
     22 H           2.6719   -5.4434    0.2191 H       1  UNL1        0.0850
@<TRIPOS>BOND
     1     1    14    1
     2     1    15    1
     3     1    16    1
     4     2     1    1
     5     2    17    1
     6     2    18    1
     7     3     2    1
     8     3    19    1
     9     4     3    1
    10     4    20    1
    11     4    21    1
    12     5     4    1
    13     6     5   ar
    14     6    22    1
    15     7     6   ar
    16     8     7   ar
    17     9     8   ar
    18     9     5   ar
    19    10     9    1
    20    10     3    1
    21    11     7    1
    22    12    11    2
    23    13    11    2
