@<TRIPOS>MOLECULE
>71.sdf
 58 61 0 0 0
SMALL
GASTEIGER

@<TRIPOS>ATOM
      1 C          18.1043    8.8288   -0.6641 C.3     1  UNL1        0.0820
      2 O          17.1006    7.9124   -0.2013 O.3     1  UNL1       -0.4645
      3 C          17.4252    6.5875   -0.1845 C.2     1  UNL1        0.3390
      4 O          18.5020    6.1301   -0.5299 O.2     1  UNL1       -0.2450
      5 C          16.2917    5.7936    0.3470 C.ar    1  UNL1        0.0605
      6 C          15.0621    6.3855    0.6990 C.ar    1  UNL1       -0.0276
      7 C          14.0242    5.6038    1.2374 C.ar    1  UNL1        0.0629
      8 CL         12.6301    6.4550    1.8052 Cl      1  UNL1       -0.0816
      9 C          14.1964    4.2290    1.4347 C.ar    1  UNL1        0.0519
     10 N          13.2467    3.3868    2.0599 N.am    1  UNL1       -0.2836
     11 C          11.9853    3.1461    1.5506 C.2     1  UNL1        0.2275
     12 O          11.4770    3.7406    0.5958 O.2     1  UNL1       -0.2746
     13 C          11.2726    1.9815    2.2238 C.3     1  UNL1        0.0779
     14 S          12.0768    0.3843    1.7636 S.3     1  UNL1       -0.0768
     15 C          13.4699    0.2330    2.8453 C.ar    1  UNL1        0.1908
     16 N          13.6137    1.0053    3.9091 N.ar    1  UNL1       -0.2205
     17 C          13.3706    0.1058    4.9311 C.ar    1  UNL1        0.0920
     18 C          13.3038   -1.1967    4.4077 C.ar    1  UNL1        0.0946
     19 C          12.5169   -2.1934    4.9916 C.ar    1  UNL1       -0.0159
     20 C          11.9215   -1.8408    6.2124 C.ar    1  UNL1        0.0431
     21 CL         10.6836   -2.8526    6.8582 Cl      1  UNL1       -0.0835
     22 C          12.2339   -0.6475    6.8760 C.ar    1  UNL1       -0.0413
     23 C          13.0063    0.3427    6.2571 C.ar    1  UNL1       -0.0328
     24 N          13.9543   -1.0381    3.1810 N.ar    1  UNL1       -0.1858
     25 S          15.7490   -1.1445    3.2075 S.O2    1  UNL1        0.0864
     26 O          16.1639   -0.2851    2.0986 O.2     1  UNL1       -0.1476
     27 O          16.1585   -0.8714    4.5709 O.2     1  UNL1       -0.1476
     28 C          16.2722   -2.8039    2.8074 C.ar    1  UNL1        0.1116
     29 C          16.5885   -3.1149    1.4770 C.ar    1  UNL1       -0.0319
     30 C          17.1375   -4.3636    1.1420 C.ar    1  UNL1       -0.0483
     31 C          17.4473   -4.7273   -0.2826 C.3     1  UNL1       -0.0396
     32 C          17.3955   -5.2947    2.1567 C.ar    1  UNL1       -0.0558
     33 C          17.1438   -4.9842    3.4996 C.ar    1  UNL1       -0.0483
     34 C          17.4602   -6.0032    4.5616 C.3     1  UNL1       -0.0396
     35 C          16.6047   -3.7205    3.8244 C.ar    1  UNL1       -0.0319
     36 C          15.4269    3.6473    1.0880 C.ar    1  UNL1       -0.0383
     37 C          16.4583    4.4171    0.5365 C.ar    1  UNL1       -0.0459
     38 H          19.0699    8.6227   -0.1792 H       1  UNL1        0.0661
     39 H          18.2049    8.7376   -1.7591 H       1  UNL1        0.0661
     40 H          17.7977    9.8246   -0.4227 H       1  UNL1        0.0661
     41 H          14.9236    7.4484    0.5906 H       1  UNL1        0.0641
     42 H          13.6313    2.6098    2.5967 H       1  UNL1        0.1549
     43 H          11.1777    2.1570    3.3029 H       1  UNL1        0.0475
     44 H          10.2426    1.9569    1.8337 H       1  UNL1        0.0475
     45 H          12.2665   -3.1129    4.4739 H       1  UNL1        0.0654
     46 H          11.7946   -0.4310    7.8489 H       1  UNL1        0.0633
     47 H          13.1590    1.3131    6.7158 H       1  UNL1        0.0640
     48 H          16.4516   -2.3703    0.6949 H       1  UNL1        0.0640
     49 H          18.4964   -5.0213   -0.3857 H       1  UNL1        0.0278
     50 H          16.8100   -5.5587   -0.5950 H       1  UNL1        0.0278
     51 H          17.2663   -3.8857   -0.9591 H       1  UNL1        0.0278
     52 H          17.8109   -6.2661    1.8920 H       1  UNL1        0.0623
     53 H          18.2335   -5.6361    5.2432 H       1  UNL1        0.0278
     54 H          16.5561   -6.2462    5.1273 H       1  UNL1        0.0278
     55 H          17.8278   -6.9399    4.1222 H       1  UNL1        0.0278
     56 H          16.4872   -3.4541    4.8748 H       1  UNL1        0.0640
     57 H          15.5864    2.5743    1.2245 H       1  UNL1        0.0637
     58 H          17.3971    3.9345    0.2695 H       1  UNL1        0.0626
@<TRIPOS>BOND
     1     1    38    1
     2     1    39    1
     3     1    40    1
     4     2     1    1
     5     3     2    1
     6     4     3    2
     7     5     3    1
     8     6     5   ar
     9     6    41    1
    10     7     6   ar
    11     8     7    1
    12     9     7   ar
    13    10     9    1
    14    10    42    1
    15    11    10   am
    16    12    11    2
    17    13    11    1
    18    13    43    1
    19    13    44    1
    20    14    13    1
    21    15    14    1
    22    16    15   ar
    23    17    16   ar
    24    18    17   ar
    25    19    18   ar
    26    19    45    1
    27    20    19   ar
    28    21    20    1
    29    22    20   ar
    30    22    46    1
    31    23    22   ar
    32    23    17   ar
    33    23    47    1
    34    24    18   ar
    35    24    15   ar
    36    25    24    1
    37    26    25    2
    38    27    25    2
    39    28    25    1
    40    29    28   ar
    41    29    48    1
    42    30    29   ar
    43    31    30    1
    44    31    49    1
    45    31    50    1
    46    31    51    1
    47    32    30   ar
    48    32    52    1
    49    33    32   ar
    50    34    33    1
    51    34    53    1
    52    34    54    1
    53    34    55    1
    54    35    33   ar
    55    35    28   ar
    56    35    56    1
    57    36     9   ar
    58    36    57    1
    59    37    36   ar
    60    37     5   ar
    61    37    58    1
