@<TRIPOS>MOLECULE
>33.sdf
 52 56 0 0 0
SMALL
GASTEIGER

@<TRIPOS>ATOM
      1 CL         -3.1343   -0.0822    0.1391 Cl      1  UNL1       -0.0835
      2 C          -1.4530   -0.4412    0.1231 C.ar    1  UNL1        0.0417
      3 C          -0.5217    0.5894    0.1533 C.ar    1  UNL1       -0.0336
      4 C           0.8806    0.3576    0.0241 C.ar    1  UNL1        0.0102
      5 C           1.3123   -0.9867    0.0057 C.ar    1  UNL1        0.0717
      6 C           0.3589   -2.0037    0.0245 C.ar    1  UNL1       -0.0343
      7 C          -1.0169   -1.7474    0.0486 C.ar    1  UNL1       -0.0413
      8 N           2.6103   -1.3256   -0.0344 N.ar    1  UNL1       -0.2541
      9 C           3.5404   -0.3408   -0.1075 C.ar    1  UNL1        0.0428
     10 C           3.2412    1.0103   -0.1642 C.ar    1  UNL1        0.0853
     11 C           4.3406    1.9872   -0.3827 C.2     1  UNL1        0.3416
     12 O           4.1918    2.9910   -1.0530 O.2     1  UNL1       -0.2449
     13 O           5.4646    1.6535    0.3031 O.3     1  UNL1       -0.4547
     14 C           6.5068    2.6705    0.3490 C.3     1  UNL1        0.1378
     15 C           7.1031    3.0294   -0.9691 C.ar    1  UNL1        0.1200
     16 C           6.7941    4.0677   -1.8267 C.ar    1  UNL1        0.0524
     17 N           7.4848    3.7678   -2.9644 N.ar    1  UNL1       -0.2470
     18 C           7.3883    4.3791   -4.2833 C.3     1  UNL1        0.0682
     19 C           5.9902    4.4287   -4.8707 C.ar    1  UNL1       -0.0261
     20 C           5.6982    5.4092   -5.8356 C.ar    1  UNL1       -0.0568
     21 C           4.4170    5.5207   -6.3830 C.ar    1  UNL1       -0.0614
     22 C           3.4103    4.6454   -5.9858 C.ar    1  UNL1       -0.0617
     23 C           3.6958    3.6334   -5.0736 C.ar    1  UNL1       -0.0614
     24 C           4.9803    3.5127   -4.5356 C.ar    1  UNL1       -0.0568
     25 N           8.3426    2.7516   -2.7469 N.ar    1  UNL1       -0.0650
     26 N           8.0975    2.2733   -1.5334 N.ar    1  UNL1       -0.1310
     27 C           1.8785    1.3935   -0.0983 C.ar    1  UNL1        0.0068
     28 C           1.4522    2.8223   -0.1399 C.ar    1  UNL1       -0.0164
     29 C           0.4327    3.2525   -1.0126 C.ar    1  UNL1       -0.0540
     30 C          -0.1156    4.5320   -0.9152 C.ar    1  UNL1       -0.0612
     31 C           0.4332    5.4526   -0.0308 C.ar    1  UNL1       -0.0617
     32 C           1.5190    5.0895    0.7600 C.ar    1  UNL1       -0.0612
     33 C           1.9986    3.7780    0.7328 C.ar    1  UNL1       -0.0540
     34 H          -0.9147    1.5963    0.2553 H       1  UNL1        0.0639
     35 H           0.6970   -3.0387   -0.0044 H       1  UNL1        0.0639
     36 H          -1.7273   -2.5691    0.0285 H       1  UNL1        0.0633
     37 H           4.5651   -0.7032   -0.1488 H       1  UNL1        0.0838
     38 H           6.1084    3.5562    0.8601 H       1  UNL1        0.0765
     39 H           7.2986    2.2740    0.9959 H       1  UNL1        0.0765
     40 H           6.0662    4.8660   -1.7742 H       1  UNL1        0.0846
     41 H           7.7859    5.3945   -4.1676 H       1  UNL1        0.0559
     42 H           8.0430    3.8211   -4.9622 H       1  UNL1        0.0559
     43 H           6.4679    6.1039   -6.1662 H       1  UNL1        0.0621
     44 H           4.2024    6.2957   -7.1145 H       1  UNL1        0.0618
     45 H           2.4062    4.7472   -6.3890 H       1  UNL1        0.0618
     46 H           2.9156    2.9407   -4.7671 H       1  UNL1        0.0618
     47 H           5.1651    2.7038   -3.8305 H       1  UNL1        0.0621
     48 H           0.0030    2.5645   -1.7398 H       1  UNL1        0.0624
     49 H          -0.9762    4.8001   -1.5223 H       1  UNL1        0.0618
     50 H           0.0189    6.4542    0.0382 H       1  UNL1        0.0618
     51 H           1.9844    5.8206    1.4149 H       1  UNL1        0.0618
     52 H           2.8167    3.5164    1.3992 H       1  UNL1        0.0624
@<TRIPOS>BOND
     1     2     1    1
     2     3     2   ar
     3     3    34    1
     4     4     3   ar
     5     5     4   ar
     6     6     5   ar
     7     6    35    1
     8     7     6   ar
     9     7     2   ar
    10     7    36    1
    11     8     5   ar
    12     9     8   ar
    13     9    37    1
    14    10     9   ar
    15    11    10    1
    16    12    11    2
    17    13    11    1
    18    14    13    1
    19    14    38    1
    20    14    39    1
    21    15    14    1
    22    16    15   ar
    23    16    40    1
    24    17    16   ar
    25    18    17    1
    26    18    41    1
    27    18    42    1
    28    19    18    1
    29    20    19   ar
    30    20    43    1
    31    21    20   ar
    32    21    44    1
    33    22    21   ar
    34    22    45    1
    35    23    22   ar
    36    23    46    1
    37    24    23   ar
    38    24    19   ar
    39    24    47    1
    40    25    17   ar
    41    26    25   ar
    42    26    15   ar
    43    27    10   ar
    44    27     4   ar
    45    28    27    1
    46    29    28   ar
    47    29    48    1
    48    30    29   ar
    49    30    49    1
    50    31    30   ar
    51    31    50    1
    52    32    31   ar
    53    32    51    1
    54    33    32   ar
    55    33    28   ar
    56    33    52    1
