@<TRIPOS>MOLECULE
>63.sdf
 55 56 0 0 0
SMALL
GASTEIGER

@<TRIPOS>ATOM
      1 C           5.2962   -1.4174    0.3260 C.3     1  UNL1       -0.0306
      2 C           4.2637   -1.2040   -0.7739 C.3     1  UNL1        0.0900
      3 O           4.6126   -0.1235   -1.6599 O.3     1  UNL1       -0.4616
      4 C           4.4890    1.1131   -1.1168 C.2     1  UNL1        0.3375
      5 O           4.0913    1.3240    0.0229 O.2     1  UNL1       -0.2452
      6 C           4.8877    2.1836   -2.0705 C.2     1  UNL1        0.0652
      7 C           4.2856    3.3949   -2.0138 C.2     1  UNL1        0.0157
      8 C           3.1943    3.8451   -1.0676 C.3     1  UNL1       -0.0260
      9 N           4.6926    4.3984   -2.8807 N.pl3   1  UNL1       -0.3207
     10 C           5.8420    4.3653   -3.6491 C.2     1  UNL1        0.0157
     11 C           6.1621    5.7073   -4.2712 C.3     1  UNL1       -0.0260
     12 C           6.5511    3.2132   -3.7594 C.2     1  UNL1        0.0652
     13 C           6.0572    1.9285   -3.0528 C.3     1  UNL1        0.0507
     14 C           7.1919    1.1881   -2.3428 C.ar    1  UNL1       -0.0314
     15 C           7.9202    1.7994   -1.3212 C.ar    1  UNL1       -0.0540
     16 C           8.9071    1.0885   -0.6410 C.ar    1  UNL1       -0.0160
     17 C           9.1831   -0.2520   -0.9489 C.ar    1  UNL1        0.1615
     18 O          10.1552   -0.9819   -0.3200 O.3     1  UNL1       -0.4915
     19 C          10.9343   -0.3241    0.6693 C.3     1  UNL1        0.0790
     20 C           8.4419   -0.8815   -1.9623 C.ar    1  UNL1        0.1618
     21 O           8.5566   -2.1806   -2.3922 O.3     1  UNL1       -0.4914
     22 C           8.9198   -3.1470   -1.4129 C.3     1  UNL1        0.0790
     23 C           7.4793   -0.1489   -2.6680 C.ar    1  UNL1       -0.0122
     24 C           7.8598    3.2115   -4.4737 C.2     1  UNL1        0.3375
     25 O           8.5841    4.1969   -4.5648 O.2     1  UNL1       -0.2452
     26 O           8.1773    1.9938   -4.9895 O.3     1  UNL1       -0.4616
     27 C           9.4836    1.9765   -5.5966 C.3     1  UNL1        0.0900
     28 C           9.8833    0.5599   -5.9543 C.3     1  UNL1       -0.0306
     29 H           4.9588   -2.1880    1.0257 H       1  UNL1        0.0262
     30 H           6.2520   -1.7321   -0.0988 H       1  UNL1        0.0262
     31 H           5.4925   -0.5045    0.8957 H       1  UNL1        0.0262
     32 H           4.1962   -2.1128   -1.3817 H       1  UNL1        0.0695
     33 H           3.2674   -1.0299   -0.3508 H       1  UNL1        0.0695
     34 H           3.5241    4.7494   -0.5406 H       1  UNL1        0.0290
     35 H           2.2906    4.0950   -1.6324 H       1  UNL1        0.0290
     36 H           2.9019    3.1333   -0.3004 H       1  UNL1        0.0290
     37 H           4.2673    5.3139   -2.7480 H       1  UNL1        0.1516
     38 H           5.2874    6.0721   -4.8234 H       1  UNL1        0.0290
     39 H           6.3829    6.4338   -3.4801 H       1  UNL1        0.0290
     40 H           6.9886    5.7160   -4.9793 H       1  UNL1        0.0290
     41 H           5.6614    1.2795   -3.8492 H       1  UNL1        0.0451
     42 H           7.7194    2.8321   -1.0412 H       1  UNL1        0.0622
     43 H           9.4427    1.6193    0.1377 H       1  UNL1        0.0655
     44 H          11.4865    0.5188    0.2399 H       1  UNL1        0.0660
     45 H          10.3130   -0.0061    1.5135 H       1  UNL1        0.0660
     46 H          11.6664   -1.0422    1.0482 H       1  UNL1        0.0660
     47 H          10.0054   -3.1788   -1.2854 H       1  UNL1        0.0660
     48 H           8.4065   -2.9860   -0.4586 H       1  UNL1        0.0660
     49 H           8.6127   -4.1297   -1.7859 H       1  UNL1        0.0660
     50 H           6.9183   -0.6508   -3.4558 H       1  UNL1        0.0658
     51 H           9.4539    2.5871   -6.5062 H       1  UNL1        0.0695
     52 H          10.2296    2.3902   -4.9057 H       1  UNL1        0.0695
     53 H          10.0159   -0.0443   -5.0516 H       1  UNL1        0.0262
     54 H           9.1143    0.0759   -6.5629 H       1  UNL1        0.0262
     55 H          10.8271    0.5595   -6.5094 H       1  UNL1        0.0262
@<TRIPOS>BOND
     1     1    29    1
     2     1    30    1
     3     1    31    1
     4     2     1    1
     5     2    32    1
     6     2    33    1
     7     3     2    1
     8     4     3    1
     9     5     4    2
    10     6     4    1
    11     7     6    2
    12     8     7    1
    13     8    34    1
    14     8    35    1
    15     8    36    1
    16     9     7    1
    17     9    37    1
    18    10     9    1
    19    11    10    1
    20    11    38    1
    21    11    39    1
    22    11    40    1
    23    12    10    2
    24    13    12    1
    25    13     6    1
    26    15    14   ar
    27    15    42    1
    28    16    15   ar
    29    16    43    1
    30    17    16   ar
    31    18    17    1
    32    19    18    1
    33    19    44    1
    34    19    45    1
    35    19    46    1
    36    20    17   ar
    37    21    20    1
    38    22    21    1
    39    22    47    1
    40    22    48    1
    41    22    49    1
    42    23    20   ar
    43    23    14   ar
    44    23    50    1
    45    24    12    1
    46    25    24    2
    47    26    24    1
    48    27    26    1
    49    27    51    1
    50    27    52    1
    51    28    27    1
    52    28    53    1
    53    28    54    1
    54    28    55    1
    55    13    14    1
    56    13    41    1
