@<TRIPOS>MOLECULE
>116.sdf
 32 34 0 0 0
SMALL
GASTEIGER

@<TRIPOS>ATOM
      1 O           0.9791    0.0209   -0.0842 O.3     1  UNL1       -0.3809
      2 C           2.3972    0.0348    0.0530 C.3     1  UNL1        0.1252
      3 C           2.9159   -1.1616    0.7823 C.ar    1  UNL1        0.1160
      4 C           3.6458   -1.2295    1.9541 C.ar    1  UNL1        0.0573
      5 N           3.7643   -2.5736    2.2288 N.ar    1  UNL1       -0.2197
      6 N           3.1549   -3.2846    1.2482 N.ar    1  UNL1       -0.0604
      7 N           2.6049   -2.4377    0.3906 N.ar    1  UNL1       -0.1312
      8 C           4.3709   -3.2077    3.3460 C.ar    1  UNL1        0.0671
      9 C           4.9033   -2.4589    4.4054 C.ar    1  UNL1       -0.0352
     10 C           5.4641   -3.1090    5.5107 C.ar    1  UNL1       -0.0458
     11 C           5.5006   -4.5017    5.5567 C.ar    1  UNL1        0.0180
     12 BR          6.2446   -5.3724    7.0603 Br      1  UNL1       -0.0503
     13 C           4.9862   -5.2556    4.5051 C.ar    1  UNL1       -0.0458
     14 C           4.4184   -4.6115    3.4014 C.ar    1  UNL1       -0.0352
     15 C           3.0556    0.0795   -1.3136 C.ar    1  UNL1       -0.0131
     16 C           3.9336    1.1324   -1.6277 C.ar    1  UNL1       -0.0547
     17 C           4.5103    1.2328   -2.8980 C.ar    1  UNL1       -0.0474
     18 C           4.2183    0.2788   -3.8689 C.ar    1  UNL1        0.0179
     19 BR          4.9884    0.4216   -5.5891 Br      1  UNL1       -0.0503
     20 C           3.3560   -0.7749   -3.5825 C.ar    1  UNL1       -0.0474
     21 C           2.7758   -0.8703   -2.3145 C.ar    1  UNL1       -0.0547
     22 H           0.7470   -0.8775   -0.3767 H       1  UNL1        0.2108
     23 H           2.6470    0.9405    0.6180 H       1  UNL1        0.0711
     24 H           4.0443   -0.4586    2.5923 H       1  UNL1        0.0851
     25 H           4.8857   -1.3734    4.4132 H       1  UNL1        0.0639
     26 H           5.8633   -2.5209    6.3339 H       1  UNL1        0.0629
     27 H           5.0153   -6.3421    4.5340 H       1  UNL1        0.0629
     28 H           4.0180   -5.2227    2.5936 H       1  UNL1        0.0639
     29 H           4.1625    1.8984   -0.8898 H       1  UNL1        0.0622
     30 H           5.1762    2.0624   -3.1209 H       1  UNL1        0.0629
     31 H           3.1223   -1.5229   -4.3355 H       1  UNL1        0.0629
     32 H           2.0988   -1.7000   -2.1173 H       1  UNL1        0.0622
@<TRIPOS>BOND
     1     1    22    1
     2     2     1    1
     3     2    23    1
     4     3     2    1
     5     4     3   ar
     6     4    24    1
     7     5     4   ar
     8     6     5   ar
     9     7     6   ar
    10     7     3   ar
    11     8     5    1
    12     9     8   ar
    13     9    25    1
    14    10     9   ar
    15    10    26    1
    16    11    10   ar
    17    12    11    1
    18    13    11   ar
    19    13    27    1
    20    14    13   ar
    21    14     8   ar
    22    14    28    1
    23    15     2    1
    24    16    15   ar
    25    16    29    1
    26    17    16   ar
    27    17    30    1
    28    18    17   ar
    29    19    18    1
    30    20    18   ar
    31    20    31    1
    32    21    20   ar
    33    21    15   ar
    34    21    32    1
