@<TRIPOS>MOLECULE
>25.sdf
 37 39 0 0 0
SMALL
GASTEIGER

@<TRIPOS>ATOM
      1 C           2.5540   -0.0335   -0.1786 C.3     1  UNL1       -0.0397
      2 C           1.1484    0.4670   -0.2702 C.ar    1  UNL1       -0.0503
      3 C           0.8584    1.8117   -0.0017 C.ar    1  UNL1       -0.0569
      4 C          -0.4453    2.2625   -0.1061 C.ar    1  UNL1       -0.0332
      5 C          -1.4667    1.3753   -0.4692 C.ar    1  UNL1        0.1281
      6 C          -1.1942    0.0374   -0.7516 C.ar    1  UNL1       -0.0332
      7 C           0.1162   -0.4118   -0.6402 C.ar    1  UNL1       -0.0569
      8 S          -3.0086    2.0624   -0.9605 S.O2    1  UNL1        0.1510
      9 O          -2.9135    3.4802   -0.6598 O.2     1  UNL1       -0.1314
     10 O          -3.1954    1.5865   -2.3228 O.2     1  UNL1       -0.1314
     11 O          -4.2131    1.4521   -0.0610 O.3     1  UNL1       -0.3391
     12 C          -5.5688    1.8507   -0.0990 C.ar    1  UNL1        0.2013
     13 C          -6.4410    1.3173    0.7921 C.ar    1  UNL1        0.2348
     14 C          -7.8848    1.6276    0.8327 C.ar    1  UNL1        0.2833
     15 O          -8.6823    1.1728    1.6460 O.2     1  UNL1       -0.2653
     16 N          -8.3270    2.5150   -0.1069 N.ar    1  UNL1       -0.3200
     17 C          -7.4975    3.1640   -1.0218 C.ar    1  UNL1        0.0529
     18 C          -6.1245    2.8602   -1.0864 C.ar    1  UNL1        0.0454
     19 C          -5.4356    3.5800   -2.0793 C.ar    1  UNL1       -0.0490
     20 C          -6.0081    4.5737   -2.8781 C.ar    1  UNL1       -0.0610
     21 C          -7.3492    4.8551   -2.7576 C.ar    1  UNL1       -0.0598
     22 C          -8.1005    4.1311   -1.8469 C.ar    1  UNL1       -0.0376
     23 N          -5.9546    0.4225    1.8200 N.pl3   1  UNL1        0.0656
     24 O          -4.9208    0.7456    2.4252 O.2     1  UNL1       -0.1258
     25 O          -6.5883   -0.6202    2.0279 O.2     1  UNL1       -0.1258
     26 H           2.6152   -0.8341    0.5660 H       1  UNL1        0.0278
     27 H           2.8841   -0.4125   -1.1518 H       1  UNL1        0.0278
     28 H           3.2419    0.7622    0.1246 H       1  UNL1        0.0278
     29 H           1.6509    2.5107    0.2383 H       1  UNL1        0.0621
     30 H          -0.6396    3.3262    0.0244 H       1  UNL1        0.0638
     31 H          -1.9702   -0.6263   -1.1249 H       1  UNL1        0.0638
     32 H           0.3461   -1.4502   -0.8916 H       1  UNL1        0.0621
     33 H          -9.3165    2.7284   -0.0747 H       1  UNL1        0.1690
     34 H          -4.4000    3.4619   -2.3348 H       1  UNL1        0.0625
     35 H          -5.3782    5.1130   -3.5814 H       1  UNL1        0.0618
     36 H          -7.7956    5.6256   -3.3786 H       1  UNL1        0.0618
     37 H          -9.1637    4.3407   -1.7714 H       1  UNL1        0.0638
@<TRIPOS>BOND
     1     1    26    1
     2     1    27    1
     3     1    28    1
     4     2     1    1
     5     3     2   ar
     6     3    29    1
     7     4     3   ar
     8     4    30    1
     9     5     4   ar
    10     6     5   ar
    11     6    31    1
    12     7     6   ar
    13     7     2   ar
    14     7    32    1
    15     8     5    1
    16     9     8    2
    17    10     8    2
    18    11     8    1
    19    12    11    1
    20    13    12   ar
    21    14    13   ar
    22    15    14    2
    23    16    14   ar
    24    16    33    1
    25    17    16   ar
    26    18    17   ar
    27    18    12   ar
    28    19    18   ar
    29    19    34    1
    30    20    19   ar
    31    20    35    1
    32    21    20   ar
    33    21    36    1
    34    22    21   ar
    35    22    17   ar
    36    22    37    1
    37    23    13    1
    38    24    23    2
    39    25    23    2
