@<TRIPOS>MOLECULE
>106.sdf
 43 46 0 0 0
SMALL
GASTEIGER

@<TRIPOS>ATOM
      1 N           8.0823    7.2896   -3.0106 N.3     1  UNL1       -0.2553
      2 N           8.0693    7.2117   -1.5966 N.pl3   1  UNL1       -0.2657
      3 C           7.5159    6.0266   -1.0086 C.ar    1  UNL1        0.1617
      4 N           7.2385    4.9788   -1.8251 N.ar    1  UNL1       -0.2175
      5 C           6.8046    3.8689   -1.2298 C.ar    1  UNL1        0.1190
      6 N           6.6664    3.6963    0.0877 N.ar    1  UNL1       -0.2303
      7 C           6.9633    4.7630    0.8756 C.ar    1  UNL1        0.1342
      8 C           6.8761    4.7127    2.2710 C.ar    1  UNL1        0.1525
      9 N           6.4239    3.4987    2.8605 N.pl3   1  UNL1       -0.2975
     10 C           6.0485    3.2399    4.1886 C.ar    1  UNL1        0.0359
     11 C           6.2351    1.9701    4.7474 C.ar    1  UNL1       -0.0403
     12 C           5.8569    1.7075    6.0696 C.ar    1  UNL1       -0.0566
     13 C           5.3126    2.7218    6.8574 C.ar    1  UNL1       -0.0198
     14 C           5.1691    4.0027    6.3348 C.ar    1  UNL1        0.1227
     15 O           4.6935    4.9608    7.1910 O.3     1  UNL1       -0.4873
     16 C           5.0813    6.2952    6.8515 C.3     1  UNL1        0.1147
     17 C           4.9115    7.1757    8.0611 C.ar    1  UNL1       -0.0075
     18 C           6.0128    7.8036    8.6479 C.ar    1  UNL1       -0.0372
     19 C           5.8049    8.6075    9.7566 C.ar    1  UNL1        0.0279
     20 N           4.5965    8.8327   10.3109 N.ar    1  UNL1       -0.2632
     21 C           3.5431    8.2110    9.7252 C.ar    1  UNL1        0.0279
     22 C           3.6462    7.3930    8.6175 C.ar    1  UNL1       -0.0372
     23 C           5.5037    4.2405    5.0008 C.ar    1  UNL1        0.0013
     24 N           7.1607    5.7696    3.0701 N.ar    1  UNL1       -0.2184
     25 C           7.5455    6.8964    2.4761 C.ar    1  UNL1        0.1190
     26 N           7.6730    7.0668    1.1621 N.ar    1  UNL1       -0.2302
     27 C           7.3918    5.9916    0.3831 C.ar    1  UNL1        0.1350
     28 H           9.0392    7.4796   -3.3198 H       1  UNL1        0.1404
     29 H           7.8759    6.3535   -3.3851 H       1  UNL1        0.1404
     30 H           7.6875    8.0301   -1.1084 H       1  UNL1        0.1675
     31 H           6.5466    3.0329   -1.8713 H       1  UNL1        0.1048
     32 H           6.6504    2.6920    2.2881 H       1  UNL1        0.1536
     33 H           6.6852    1.1713    4.1639 H       1  UNL1        0.0636
     34 H           5.9982    0.7150    6.4901 H       1  UNL1        0.0619
     35 H           5.0214    2.5194    7.8848 H       1  UNL1        0.0654
     36 H           6.1325    6.3294    6.5344 H       1  UNL1        0.0748
     37 H           4.4497    6.6825    6.0450 H       1  UNL1        0.0748
     38 H           7.0158    7.6697    8.2605 H       1  UNL1        0.0636
     39 H           6.6353    9.1106   10.2474 H       1  UNL1        0.0829
     40 H           2.5791    8.4016   10.1929 H       1  UNL1        0.0829
     41 H           2.7638    6.9209    8.1979 H       1  UNL1        0.0636
     42 H           5.3263    5.2164    4.5646 H       1  UNL1        0.0673
     43 H           7.7703    7.7431    3.1153 H       1  UNL1        0.1048
@<TRIPOS>BOND
     1     1    28    1
     2     1    29    1
     3     2     1    1
     4     2    30    1
     5     3     2    1
     6     4     3   ar
     7     5     4   ar
     8     5    31    1
     9     6     5   ar
    10     7     6   ar
    11     8     7   ar
    12     9     8    1
    13     9    32    1
    14    10     9    1
    15    11    10   ar
    16    11    33    1
    17    12    11   ar
    18    12    34    1
    19    13    12   ar
    20    13    35    1
    21    14    13   ar
    22    15    14    1
    23    16    15    1
    24    16    36    1
    25    16    37    1
    26    17    16    1
    27    18    17   ar
    28    18    38    1
    29    19    18   ar
    30    19    39    1
    31    20    19   ar
    32    21    20   ar
    33    21    40    1
    34    22    21   ar
    35    22    17   ar
    36    22    41    1
    37    23    14   ar
    38    23    10   ar
    39    23    42    1
    40    24     8   ar
    41    25    24   ar
    42    25    43    1
    43    26    25   ar
    44    27    26   ar
    45    27     3   ar
    46    27     7   ar
