@<TRIPOS>MOLECULE
>111.sdf
 44 47 0 0 0
SMALL
GASTEIGER

@<TRIPOS>ATOM
      1 C           4.8190   -2.0696    3.5691 C.3     1  UNL1       -0.0364
      2 C           5.2062   -0.9179    2.6641 C.3     1  UNL1        0.0829
      3 C           5.0290    0.4262    3.3208 C.3     1  UNL1        0.0773
      4 O           4.7679    1.3297    2.2507 O.3     1  UNL1       -0.3407
      5 C           4.3869    0.5303    1.1009 C.3     1  UNL1        0.2185
      6 C           2.9663    0.9576    0.6882 C.3     1  UNL1        0.1018
      7 N           2.8862    2.3228    0.2220 N.ar    1  UNL1       -0.2465
      8 C           2.9423    3.4594    0.9674 C.ar    1  UNL1        0.1145
      9 N           2.7863    4.5028    0.1871 N.ar    1  UNL1       -0.2228
     10 C           2.6201    3.9419   -1.0470 C.ar    1  UNL1        0.1379
     11 N           2.6671    2.6063   -1.0769 N.ar    1  UNL1       -0.1582
     12 O           4.3373   -0.8455    1.5352 O.3     1  UNL1       -0.3379
     13 C           5.4350    0.7006   -0.0056 C.ar    1  UNL1        0.0315
     14 C           6.4670    1.6544    0.1545 C.ar    1  UNL1       -0.0486
     15 C           7.3845    1.9243   -0.8630 C.ar    1  UNL1       -0.0188
     16 C           7.2901    1.2538   -2.0750 C.ar    1  UNL1        0.1298
     17 O           8.1900    1.6195   -3.0503 O.3     1  UNL1       -0.4560
     18 C           7.7767    1.6261   -4.3645 C.ar    1  UNL1        0.1285
     19 C           6.4916    1.9958   -4.7770 C.ar    1  UNL1       -0.0180
     20 C           6.1386    1.9056   -6.1251 C.ar    1  UNL1       -0.0399
     21 C           7.0879    1.5016   -7.0619 C.ar    1  UNL1        0.0412
     22 CL          6.6463    1.3637   -8.7185 Cl      1  UNL1       -0.0835
     23 C           8.3919    1.2068   -6.6656 C.ar    1  UNL1       -0.0399
     24 C           8.7372    1.2729   -5.3140 C.ar    1  UNL1       -0.0180
     25 C           6.3437    0.2401   -2.2267 C.ar    1  UNL1       -0.0006
     26 C           5.4129   -0.0234   -1.2123 C.ar    1  UNL1        0.0527
     27 CL          4.2583   -1.2662   -1.5451 Cl      1  UNL1       -0.0830
     28 H           4.8244   -3.0147    3.0172 H       1  UNL1        0.0255
     29 H           5.5054   -2.1484    4.4175 H       1  UNL1        0.0255
     30 H           3.8022   -1.9397    3.9571 H       1  UNL1        0.0255
     31 H           6.2299   -1.0499    2.2947 H       1  UNL1        0.0617
     32 H           4.1675    0.4573    3.9955 H       1  UNL1        0.0587
     33 H           5.9179    0.7464    3.8719 H       1  UNL1        0.0587
     34 H           2.5371    0.3091   -0.0856 H       1  UNL1        0.0567
     35 H           2.2878    0.8814    1.5466 H       1  UNL1        0.0567
     36 H           3.1025    3.4680    2.0370 H       1  UNL1        0.1044
     37 H           2.4598    4.5236   -1.9459 H       1  UNL1        0.1065
     38 H           6.5573    2.2291    1.0753 H       1  UNL1        0.0624
     39 H           8.1532    2.6786   -0.7128 H       1  UNL1        0.0654
     40 H           5.7457    2.3288   -4.0594 H       1  UNL1        0.0655
     41 H           5.1232    2.1425   -6.4322 H       1  UNL1        0.0633
     42 H           9.1386    0.9161   -7.3989 H       1  UNL1        0.0633
     43 H           9.7505    1.0360   -5.0001 H       1  UNL1        0.0655
     44 H           6.3040   -0.3327   -3.1498 H       1  UNL1        0.0669
@<TRIPOS>BOND
     1     1    28    1
     2     1    29    1
     3     1    30    1
     4     2     1    1
     5     2    31    1
     6     3     2    1
     7     3    32    1
     8     3    33    1
     9     4     3    1
    10     5     4    1
    11     5     6    1
    12     6    34    1
    13     6    35    1
    14     7     6    1
    15     8     7   ar
    16     8    36    1
    17     9     8   ar
    18    10     9   ar
    19    10    37    1
    20    11    10   ar
    21    11     7   ar
    22    12     5    1
    23    12     2    1
    24    13     5    1
    25    14    13   ar
    26    14    38    1
    27    15    14   ar
    28    15    39    1
    29    16    15   ar
    30    17    16    1
    31    18    17    1
    32    19    18   ar
    33    19    40    1
    34    20    19   ar
    35    20    41    1
    36    21    20   ar
    37    22    21    1
    38    23    21   ar
    39    23    42    1
    40    24    23   ar
    41    24    18   ar
    42    24    43    1
    43    25    16   ar
    44    25    44    1
    45    26    25   ar
    46    26    13   ar
    47    27    26    1
