@<TRIPOS>MOLECULE
>159.sdf
 69 70 0 0 0
SMALL
GASTEIGER

@<TRIPOS>ATOM
      1 C           6.4628   -0.8721    1.8259 C.3     1  UNL1       -0.0653
      2 C           5.2752   -0.5282    0.9315 C.3     1  UNL1       -0.0559
      3 C           5.7249    0.4697   -0.1318 C.3     1  UNL1       -0.0527
      4 C           4.6182    0.9475   -1.0829 C.3     1  UNL1       -0.0453
      5 C           5.1518    1.9104   -2.2025 C.3     1  UNL1       -0.0051
      6 C           6.2737    1.2305   -3.0556 C.3     1  UNL1       -0.0453
      7 C           5.8436   -0.0752   -3.7494 C.3     1  UNL1       -0.0527
      8 C           6.9809   -0.7168   -4.5423 C.3     1  UNL1       -0.0559
      9 C           6.5116   -1.9981   -5.2180 C.3     1  UNL1       -0.0653
     10 C           5.6832    3.2221   -1.5921 C.3     1  UNL1        0.0566
     11 O           4.6388    3.9428   -0.9372 O.3     1  UNL1       -0.3479
     12 C           3.6221    4.4476   -1.8065 C.3     1  UNL1        0.1744
     13 C           2.5994    5.1550   -0.9013 C.3     1  UNL1       -0.0101
     14 O           4.1362    5.3494   -2.7922 O.3     1  UNL1       -0.3516
     15 C           4.7590    6.5198   -2.2614 C.3     1  UNL1        0.0397
     16 C           2.9519    3.2644   -2.5609 C.3     1  UNL1        0.0533
     17 C           1.9982    3.7318   -3.6797 C.3     1  UNL1       -0.0258
     18 N           1.3809    2.5184   -4.3311 N.4     1  UNL1        0.2274
     19 C           0.4493    2.7287   -5.4780 C.3     1  UNL1       -0.0320
     20 C           0.0442    1.3444   -5.9733 C.3     1  UNL1        0.0054
     21 C          -0.9244    1.4081   -7.1490 C.3     1  UNL1        0.0290
     22 N          -1.2947    0.0763   -7.5822 N.ar    1  UNL1       -0.3366
     23 C          -0.6576   -0.6721   -8.5292 C.ar    1  UNL1        0.0240
     24 C          -1.3360   -1.8701   -8.5452 C.ar    1  UNL1        0.0454
     25 N          -2.3533   -1.8599   -7.6263 N.ar    1  UNL1       -0.2441
     26 C          -2.3178   -0.6724   -7.0738 C.ar    1  UNL1        0.0959
     27 C           4.0128    2.3136   -3.1563 C.3     1  UNL1       -0.0327
     28 H           6.1897   -1.6254    2.5694 H       1  UNL1        0.0230
     29 H           7.2980   -1.2635    1.2339 H       1  UNL1        0.0230
     30 H           6.8186    0.0186    2.3559 H       1  UNL1        0.0230
     31 H           4.8971   -1.4421    0.4597 H       1  UNL1        0.0263
     32 H           4.4677   -0.1071    1.5399 H       1  UNL1        0.0263
     33 H           6.1586    1.3338    0.3802 H       1  UNL1        0.0265
     34 H           6.5265   -0.0061   -0.7045 H       1  UNL1        0.0265
     35 H           4.1306    0.0762   -1.5389 H       1  UNL1        0.0271
     36 H           3.8354    1.4412   -0.4944 H       1  UNL1        0.0271
     37 H           6.6113    1.9348   -3.8283 H       1  UNL1        0.0271
     38 H           7.1567    1.0416   -2.4353 H       1  UNL1        0.0271
     39 H           5.4868   -0.8000   -3.0109 H       1  UNL1        0.0265
     40 H           5.0138    0.1207   -4.4377 H       1  UNL1        0.0265
     41 H           7.3470   -0.0192   -5.3038 H       1  UNL1        0.0263
     42 H           7.8180   -0.9464   -3.8744 H       1  UNL1        0.0263
     43 H           6.1582   -2.7254   -4.4793 H       1  UNL1        0.0230
     44 H           5.6931   -1.7974   -5.9171 H       1  UNL1        0.0230
     45 H           7.3328   -2.4553   -5.7787 H       1  UNL1        0.0230
     46 H           6.4628    3.0312   -0.8499 H       1  UNL1        0.0566
     47 H           6.1455    3.8588   -2.3552 H       1  UNL1        0.0566
     48 H           3.1101    5.7845   -0.1608 H       1  UNL1        0.0281
     49 H           1.9205    5.7996   -1.4673 H       1  UNL1        0.0281
     50 H           2.0129    4.4345   -0.3207 H       1  UNL1        0.0281
     51 H           4.0122    7.1986   -1.8394 H       1  UNL1        0.0525
     52 H           5.5131    6.2701   -1.5097 H       1  UNL1        0.0525
     53 H           5.2537    7.0412   -3.0856 H       1  UNL1        0.0525
     54 H           2.3732    2.6773   -1.8349 H       1  UNL1        0.0405
     55 H           1.1749    4.3439   -3.3017 H       1  UNL1        0.0818
     56 H           2.5241    4.2736   -4.4767 H       1  UNL1        0.0818
     57 H           2.1369    1.9252   -4.6919 H       1  UNL1        0.2013
     58 H           0.9080    1.9646   -3.5992 H       1  UNL1        0.2013
     59 H          -0.4031    3.3068   -5.1129 H       1  UNL1        0.0814
     60 H           0.9949    3.2870   -6.2461 H       1  UNL1        0.0814
     61 H           0.9396    0.7793   -6.2683 H       1  UNL1        0.0334
     62 H          -0.4113    0.7775   -5.1495 H       1  UNL1        0.0334
     63 H          -1.8425    1.9381   -6.8737 H       1  UNL1        0.0494
     64 H          -0.4728    1.9244   -8.0030 H       1  UNL1        0.0494
     65 H           0.1881   -0.3183   -9.1018 H       1  UNL1        0.0825
     66 H          -1.1470   -2.7375   -9.1658 H       1  UNL1        0.0845
     67 H          -2.9952   -0.3183   -6.3072 H       1  UNL1        0.1029
     68 H           4.4455    2.8003   -4.0428 H       1  UNL1        0.0277
     69 H           3.5267    1.3974   -3.5015 H       1  UNL1        0.0277
@<TRIPOS>UNITY_ATOM_ATTR
18 1
charge 1
@<TRIPOS>BOND
     1     1    28    1
     2     1    29    1
     3     1    30    1
     4     2     1    1
     5     2    31    1
     6     2    32    1
     7     3     2    1
     8     3    33    1
     9     3    34    1
    10     4     3    1
    11     4    35    1
    12     4    36    1
    13     5     4    1
    14     6     5    1
    15     6    37    1
    16     6    38    1
    17     7     6    1
    18     7    39    1
    19     7    40    1
    20     8     7    1
    21     8    41    1
    22     8    42    1
    23     9     8    1
    24     9    43    1
    25     9    44    1
    26     9    45    1
    27    10     5    1
    28    10    46    1
    29    10    47    1
    30    11    10    1
    31    12    11    1
    32    12    13    1
    33    13    48    1
    34    13    49    1
    35    13    50    1
    36    14    12    1
    37    15    14    1
    38    15    51    1
    39    15    52    1
    40    15    53    1
    41    16    12    1
    42    16    54    1
    43    17    16    1
    44    17    55    1
    45    17    56    1
    46    18    17    1
    47    18    57    1
    48    18    58    1
    49    19    18    1
    50    19    59    1
    51    19    60    1
    52    20    19    1
    53    20    61    1
    54    20    62    1
    55    21    20    1
    56    21    63    1
    57    21    64    1
    58    22    21    1
    59    23    22   ar
    60    23    65    1
    61    24    23   ar
    62    24    66    1
    63    25    24   ar
    64    26    25   ar
    65    26    22   ar
    66    26    67    1
    67    27    16    1
    68    27     5    1
    69    27    68    1
    70    27    69    1
