@<TRIPOS>MOLECULE
>132_2.sdf
 56 60 0 0 0
SMALL
GASTEIGER

@<TRIPOS>ATOM
      1 O           0.7165    1.4061   -1.8162 O.3     1  UNL1       -0.3869
      2 C           2.1055    1.6332   -2.0910 C.3     1  UNL1        0.1052
      3 C           2.4145    1.2315   -3.5352 C.3     1  UNL1        0.1169
      4 O           1.7097    1.9716   -4.5422 O.3     1  UNL1       -0.4884
      5 C           2.0579    1.6090   -5.8413 C.ar    1  UNL1        0.1380
      6 C           2.9626    0.6690   -6.1729 C.ar    1  UNL1        0.0652
      7 C           3.3492    0.3576   -7.5529 C.ar    1  UNL1        0.3408
      8 O           4.2094   -0.4824   -7.7732 O.2     1  UNL1       -0.2451
      9 O           2.7128    1.0570   -8.5548 O.2     1  UNL1       -0.4219
     10 C           1.7197    2.0051   -8.2532 C.ar    1  UNL1        0.1426
     11 C           1.1007    2.6080   -9.3437 C.ar    1  UNL1       -0.0185
     12 C           0.0884    3.5367   -9.1218 C.ar    1  UNL1       -0.0582
     13 C          -0.2863    3.8568   -7.8155 C.ar    1  UNL1       -0.0609
     14 C           0.3515    3.2488   -6.7260 C.ar    1  UNL1       -0.0476
     15 C           1.3702    2.3067   -6.9316 C.ar    1  UNL1        0.0592
     16 C           2.9428    0.7267   -1.1566 C.3     1  UNL1        0.0494
     17 N           4.3877    0.8364   -1.3023 N.am    1  UNL1       -0.2629
     18 C           5.1073    1.9962   -1.0360 C.2     1  UNL1        0.2714
     19 O           4.7184    3.1283   -0.8275 O.2     1  UNL1       -0.2679
     20 C           6.5747    1.5786   -1.0148 C.2     1  UNL1        0.1527
     21 N           7.6419    2.3003   -0.9188 N.2     1  UNL1       -0.1743
     22 N           7.5187    3.6548   -0.8436 N.am    1  UNL1       -0.2023
     23 C           8.6806    4.4142   -0.7866 C.2     1  UNL1        0.2634
     24 O           9.8201    3.9530   -0.8001 O.2     1  UNL1       -0.2684
     25 C           8.5174    5.8899   -0.7287 C.ar    1  UNL1        0.0412
     26 C           7.3977    6.4996   -0.1652 C.ar    1  UNL1       -0.0314
     27 C           7.3727    7.8836   -0.1214 C.ar    1  UNL1        0.0283
     28 N           8.3615    8.6721   -0.5952 N.ar    1  UNL1       -0.2632
     29 C           9.4382    8.0550   -1.1252 C.ar    1  UNL1        0.0283
     30 C           9.5636    6.6821   -1.2104 C.ar    1  UNL1       -0.0314
     31 C           6.5866    0.1334   -1.1646 C.ar    1  UNL1        0.0284
     32 C           7.6546   -0.7431   -1.0975 C.ar    1  UNL1       -0.0506
     33 C           7.3761   -2.0939   -1.2865 C.ar    1  UNL1       -0.0610
     34 C           6.0670   -2.5134   -1.5887 C.ar    1  UNL1       -0.0600
     35 C           5.0029   -1.5975   -1.6542 C.ar    1  UNL1       -0.0396
     36 C           5.2702   -0.2661   -1.3926 C.ar    1  UNL1        0.0461
     37 H           0.4725    1.9564   -1.0503 H       1  UNL1        0.2100
     38 H           2.3080    2.6975   -1.9336 H       1  UNL1        0.0643
     39 H           3.4867    1.3904   -3.6936 H       1  UNL1        0.0723
     40 H           2.1523    0.1734   -3.6522 H       1  UNL1        0.0723
     41 H           3.5009    0.0723   -5.4501 H       1  UNL1        0.0726
     42 H           1.3986    2.3487  -10.3563 H       1  UNL1        0.0654
     43 H          -0.4105    4.0068   -9.9651 H       1  UNL1        0.0619
     44 H          -1.0817    4.5778   -7.6436 H       1  UNL1        0.0618
     45 H           0.0371    3.5107   -5.7173 H       1  UNL1        0.0626
     46 H           2.6961    0.9613   -0.1142 H       1  UNL1        0.0495
     47 H           2.6290   -0.3137   -1.3053 H       1  UNL1        0.0495
     48 H           6.5937    4.0713   -0.9317 H       1  UNL1        0.1776
     49 H           6.5792    5.9354    0.2644 H       1  UNL1        0.0640
     50 H           6.5348    8.4150    0.3214 H       1  UNL1        0.0830
     51 H          10.2245    8.7135   -1.4843 H       1  UNL1        0.0830
     52 H          10.4585    6.2372   -1.6354 H       1  UNL1        0.0640
     53 H           8.6610   -0.3899   -0.8929 H       1  UNL1        0.0625
     54 H           8.1773   -2.8278   -1.2108 H       1  UNL1        0.0618
     55 H           5.8808   -3.5713   -1.7725 H       1  UNL1        0.0618
     56 H           4.0139   -1.9521   -1.9227 H       1  UNL1        0.0636
@<TRIPOS>BOND
     1     1    37    1
     2     3     2    1
     3     3    39    1
     4     3    40    1
     5     4     3    1
     6     5     4    1
     7     6     5   ar
     8     6    41    1
     9     7     6   ar
    10     8     7    2
    11     9     7   ar
    12    10     9   ar
    13    11    10   ar
    14    11    42    1
    15    12    11   ar
    16    12    43    1
    17    13    12   ar
    18    13    44    1
    19    14    13   ar
    20    14    45    1
    21    15    14   ar
    22    15     5   ar
    23    15    10   ar
    24    16     2    1
    25    16    46    1
    26    16    47    1
    27    17    16    1
    28    18    17   am
    29    19    18    2
    30    20    18    1
    31    21    20    2
    32    22    21    1
    33    22    48    1
    34    23    22   am
    35    24    23    2
    36    25    23    1
    37    26    25   ar
    38    26    49    1
    39    27    26   ar
    40    27    50    1
    41    28    27   ar
    42    29    28   ar
    43    29    51    1
    44    30    29   ar
    45    30    25   ar
    46    30    52    1
    47    31    20    1
    48    32    31   ar
    49    32    53    1
    50    33    32   ar
    51    33    54    1
    52    34    33   ar
    53    34    55    1
    54    35    34   ar
    55    35    56    1
    56    36    35   ar
    57    36    17    1
    58    36    31   ar
    59     2    38    1
    60     2     1    1
