@<TRIPOS>MOLECULE
>87.sdf
 37 39 0 0 0
SMALL
GASTEIGER

@<TRIPOS>ATOM
      1 C           1.0401    2.4908    0.0664 C.3     1  UNL1        0.0820
      2 O           2.4535    2.3993    0.2700 O.3     1  UNL1       -0.4643
      3 C           2.9801    1.1804   -0.0458 C.2     1  UNL1        0.3445
      4 O           2.3074    0.2365   -0.4280 O.2     1  UNL1       -0.2448
      5 C           4.4214    1.1486    0.0620 C.ar    1  UNL1        0.1289
      6 C           5.2511    0.3724   -0.7247 C.ar    1  UNL1        0.1815
      7 O           6.5385    0.5477   -0.3226 O.2     1  UNL1       -0.3535
      8 N           6.5826    1.4708    0.7087 N.ar    1  UNL1       -0.0815
      9 C           5.3102    1.8292    0.9425 C.ar    1  UNL1        0.1025
     10 C           5.0066    2.8289    2.0160 C.3     1  UNL1        0.0189
     11 C           4.7154    2.0347    3.2700 C.ar    1  UNL1       -0.0414
     12 C           5.7568    1.6874    4.1465 C.ar    1  UNL1       -0.0568
     13 C           5.5125    0.8705    5.2536 C.ar    1  UNL1       -0.0431
     14 C           4.2249    0.3992    5.4945 C.ar    1  UNL1        0.0410
     15 CL          3.9373   -0.6754    6.8070 Cl      1  UNL1       -0.0835
     16 C           3.1708    0.7770    4.6666 C.ar    1  UNL1       -0.0431
     17 C           3.4135    1.5992    3.5636 C.ar    1  UNL1       -0.0568
     18 C           5.0215   -0.5258   -1.8509 C.ar    1  UNL1        0.0208
     19 C           4.0200   -0.2210   -2.7885 C.ar    1  UNL1       -0.0510
     20 C           3.6309   -1.1474   -3.7545 C.ar    1  UNL1       -0.0611
     21 C           4.2790   -2.3734   -3.8315 C.ar    1  UNL1       -0.0617
     22 C           5.3309   -2.6618   -2.9606 C.ar    1  UNL1       -0.0611
     23 C           5.7027   -1.7408   -1.9726 C.ar    1  UNL1       -0.0510
     24 H           0.8381    2.7429   -0.9795 H       1  UNL1        0.0661
     25 H           0.5187    1.5678    0.3416 H       1  UNL1        0.0661
     26 H           0.6604    3.2930    0.7018 H       1  UNL1        0.0661
     27 H           5.8576    3.5009    2.1782 H       1  UNL1        0.0378
     28 H           4.1572    3.4679    1.7546 H       1  UNL1        0.0378
     29 H           6.7726    2.0308    3.9567 H       1  UNL1        0.0621
     30 H           6.3338    0.5890    5.9075 H       1  UNL1        0.0632
     31 H           2.1630    0.4210    4.8632 H       1  UNL1        0.0632
     32 H           2.5778    1.8798    2.9276 H       1  UNL1        0.0621
     33 H           3.4904    0.7282   -2.7482 H       1  UNL1        0.0625
     34 H           2.8031   -0.9160   -4.4201 H       1  UNL1        0.0618
     35 H           3.9575   -3.1092   -4.5643 H       1  UNL1        0.0618
     36 H           5.8395   -3.6184   -3.0283 H       1  UNL1        0.0618
     37 H           6.4966   -2.0042   -1.2776 H       1  UNL1        0.0625
@<TRIPOS>BOND
     1     1    24    1
     2     1    25    1
     3     1    26    1
     4     2     1    1
     5     3     2    1
     6     4     3    2
     7     5     3    1
     8     6     5   ar
     9     7     6   ar
    10     8     7   ar
    11     9     8   ar
    12     9     5   ar
    13    10     9    1
    14    10    27    1
    15    10    28    1
    16    11    10    1
    17    12    11   ar
    18    12    29    1
    19    13    12   ar
    20    13    30    1
    21    14    13   ar
    22    15    14    1
    23    16    14   ar
    24    16    31    1
    25    17    16   ar
    26    17    11   ar
    27    17    32    1
    28    18     6    1
    29    19    18   ar
    30    19    33    1
    31    20    19   ar
    32    20    34    1
    33    21    20   ar
    34    21    35    1
    35    22    21   ar
    36    22    36    1
    37    23    22   ar
    38    23    18   ar
    39    23    37    1
