@<TRIPOS>MOLECULE
>130.sdf
 68 70 0 0 0
SMALL
GASTEIGER

@<TRIPOS>ATOM
      1 C           4.5847   -5.2212   -9.8728 C.3     1  UNL1        0.0790
      2 O           4.6737   -4.2743  -10.9285 O.3     1  UNL1       -0.4913
      3 C           3.9517   -3.1143  -10.8028 C.ar    1  UNL1        0.1657
      4 C           3.5180   -2.6153   -9.5545 C.ar    1  UNL1       -0.0089
      5 C           2.8440   -1.3912   -9.4504 C.ar    1  UNL1       -0.0177
      6 C           2.3566   -0.8934   -8.1408 C.2     1  UNL1       -0.0494
      7 C           2.3247    0.4194   -7.8455 C.2     1  UNL1        0.0014
      8 C           1.6518    0.9734   -6.6350 C.2     1  UNL1        0.2471
      9 O           2.1576    0.6926   -5.5492 O.2     1  UNL1       -0.2702
     10 N           0.5098    1.7973   -6.8139 N.am    1  UNL1       -0.2194
     11 C          -0.1399    2.3798   -5.5890 C.3     1  UNL1        0.0354
     12 C           0.4466    3.7624   -5.2333 C.3     1  UNL1       -0.0338
     13 C          -0.2670    4.4159   -4.0421 C.3     1  UNL1       -0.0514
     14 C          -0.3222    3.4966   -2.8269 C.3     1  UNL1       -0.0529
     15 C          -0.9692    2.1628   -3.1858 C.3     1  UNL1       -0.0514
     16 C          -0.2133    1.4803   -4.3309 C.3     1  UNL1       -0.0338
     17 C           0.1020    2.1778   -8.1050 C.2     1  UNL1        0.3092
     18 O           0.6451    1.8084   -9.1460 O.2     1  UNL1       -0.2522
     19 N          -0.9684    3.0393   -8.2296 N.am    1  UNL1       -0.2961
     20 C          -1.5059    3.3243   -9.5627 C.3     1  UNL1        0.0246
     21 C          -2.2140    4.6790   -9.5893 C.3     1  UNL1       -0.0345
     22 C          -2.7748    4.9756  -10.9788 C.3     1  UNL1       -0.0514
     23 C          -3.7040    3.8650  -11.4620 C.3     1  UNL1       -0.0529
     24 C          -3.0296    2.4962  -11.4106 C.3     1  UNL1       -0.0514
     25 C          -2.4490    2.2025  -10.0285 C.3     1  UNL1       -0.0345
     26 C           2.5792   -0.6828  -10.6262 C.ar    1  UNL1       -0.0089
     27 C           3.0359   -1.1358  -11.8698 C.ar    1  UNL1        0.1657
     28 O           2.8076   -0.4402  -13.0357 O.3     1  UNL1       -0.4913
     29 C           2.8189    0.9778  -12.8992 C.3     1  UNL1        0.0790
     30 C           3.7067   -2.3677  -11.9720 C.ar    1  UNL1        0.2035
     31 O           4.1307   -2.6861  -13.2429 O.3     1  UNL1       -0.4885
     32 C           4.1884   -4.0594  -13.5995 C.3     1  UNL1        0.0791
     33 H           5.0959   -4.8602   -8.9756 H       1  UNL1        0.0660
     34 H           3.5425   -5.4828   -9.6614 H       1  UNL1        0.0660
     35 H           5.0981   -6.1315  -10.1985 H       1  UNL1        0.0660
     36 H           3.7266   -3.1612   -8.6394 H       1  UNL1        0.0661
     37 H           1.9733   -1.6327   -7.4455 H       1  UNL1        0.0625
     38 H           2.7448    1.1657   -8.5134 H       1  UNL1        0.0670
     39 H          -1.1933    2.5352   -5.8355 H       1  UNL1        0.0506
     40 H           1.5148    3.6665   -5.0060 H       1  UNL1        0.0283
     41 H           0.3703    4.4385   -6.0938 H       1  UNL1        0.0283
     42 H           0.2412    5.3490   -3.7727 H       1  UNL1        0.0266
     43 H          -1.2900    4.6873   -4.3321 H       1  UNL1        0.0266
     44 H           0.6936    3.3250   -2.4511 H       1  UNL1        0.0265
     45 H          -0.8841    3.9782   -2.0187 H       1  UNL1        0.0265
     46 H          -0.9707    1.5096   -2.3057 H       1  UNL1        0.0266
     47 H          -2.0165    2.3228   -3.4687 H       1  UNL1        0.0266
     48 H          -0.7005    0.5308   -4.5798 H       1  UNL1        0.0283
     49 H           0.7789    1.2469   -3.9383 H       1  UNL1        0.0283
     50 H          -1.6062    3.1861   -7.4684 H       1  UNL1        0.1505
     51 H          -0.6644    3.3766  -10.2666 H       1  UNL1        0.0499
     52 H          -3.0259    4.6954   -8.8514 H       1  UNL1        0.0283
     53 H          -1.5115    5.4705   -9.3020 H       1  UNL1        0.0283
     54 H          -3.3159    5.9281  -10.9620 H       1  UNL1        0.0266
     55 H          -1.9466    5.0914  -11.6893 H       1  UNL1        0.0266
     56 H          -4.6051    3.8487  -10.8385 H       1  UNL1        0.0265
     57 H          -4.0278    4.0763  -12.4876 H       1  UNL1        0.0265
     58 H          -3.7540    1.7190  -11.6798 H       1  UNL1        0.0266
     59 H          -2.2280    2.4557  -12.1586 H       1  UNL1        0.0266
     60 H          -1.9191    1.2426  -10.0588 H       1  UNL1        0.0283
     61 H          -3.2668    2.0809   -9.3066 H       1  UNL1        0.0283
     62 H           1.9910    0.2294  -10.5755 H       1  UNL1        0.0661
     63 H           1.8605    1.3370  -12.5111 H       1  UNL1        0.0660
     64 H           3.6491    1.3201  -12.2704 H       1  UNL1        0.0660
     65 H           2.9565    1.4092  -13.8950 H       1  UNL1        0.0660
     66 H           5.1339   -4.5044  -13.2770 H       1  UNL1        0.0660
     67 H           3.3271   -4.6242  -13.2276 H       1  UNL1        0.0660
     68 H           4.1705   -4.1173  -14.6936 H       1  UNL1        0.0660
@<TRIPOS>BOND
     1     1    33    1
     2     1    34    1
     3     1    35    1
     4     2     1    1
     5     3     2    1
     6     4     3   ar
     7     4    36    1
     8     5     4   ar
     9     6     5    1
    10     6    37    1
    11     7     6    2
    12     7    38    1
    13     8     7    1
    14     9     8    2
    15    10     8   am
    16    11    10    1
    17    11    39    1
    18    12    11    1
    19    12    40    1
    20    12    41    1
    21    13    12    1
    22    13    42    1
    23    13    43    1
    24    14    13    1
    25    14    44    1
    26    14    45    1
    27    15    14    1
    28    15    46    1
    29    15    47    1
    30    16    15    1
    31    16    11    1
    32    16    48    1
    33    16    49    1
    34    17    10   am
    35    18    17    2
    36    19    17   am
    37    19    50    1
    38    20    19    1
    39    20    51    1
    40    21    20    1
    41    21    52    1
    42    21    53    1
    43    22    21    1
    44    22    54    1
    45    22    55    1
    46    23    22    1
    47    23    56    1
    48    23    57    1
    49    24    23    1
    50    24    58    1
    51    24    59    1
    52    25    24    1
    53    25    20    1
    54    25    60    1
    55    25    61    1
    56    26     5   ar
    57    26    62    1
    58    27    26   ar
    59    28    27    1
    60    29    28    1
    61    29    63    1
    62    29    64    1
    63    29    65    1
    64    30    27   ar
    65    30     3   ar
    66    31    30    1
    67    32    31    1
    68    32    66    1
    69    32    67    1
    70    32    68    1
