@<TRIPOS>MOLECULE
>169.sdf
 39 41 0 0 0
SMALL
GASTEIGER

@<TRIPOS>ATOM
      1 C           1.2720    0.3627   -0.3271 C.3     1  UNL1        0.0788
      2 O           2.4113   -0.4765   -0.4713 O.3     1  UNL1       -0.4951
      3 C           3.0849   -0.8051    0.6728 C.ar    1  UNL1        0.1201
      4 C           2.7829   -0.3608    1.9599 C.ar    1  UNL1       -0.0197
      5 C           3.5578   -0.7778    3.0515 C.ar    1  UNL1       -0.0551
      6 C           4.6483   -1.6374    2.8691 C.ar    1  UNL1       -0.0471
      7 C           5.4870   -2.0879    4.0426 C.3     1  UNL1       -0.0273
      8 C           4.9425   -3.3797    4.6682 C.3     1  UNL1       -0.0415
      9 C           5.7943   -3.9731    5.8192 C.3     1  UNL1        0.0117
     10 C           5.8714   -3.0311    7.0428 C.3     1  UNL1        0.0971
     11 O           7.1426   -2.8054    7.6491 O.3     1  UNL1       -0.4632
     12 C           8.2198   -2.9687    6.8964 C.ar    1  UNL1        0.3003
     13 N           9.4023   -2.4858    7.1939 N.ar    1  UNL1       -0.1709
     14 C          10.2460   -3.0207    6.2384 C.ar    1  UNL1        0.2357
     15 C           9.5524   -3.8333    5.3597 C.ar    1  UNL1        0.0585
     16 N           8.2623   -3.7662    5.7957 N.ar    1  UNL1       -0.2984
     17 C           7.1353   -4.5240    5.3262 C.3     1  UNL1        0.0335
     18 N          11.6683   -2.7577    6.2527 N.pl3   1  UNL1        0.0767
     19 O          12.3479   -3.3506    5.4013 O.2     1  UNL1       -0.1246
     20 O          12.1047   -1.9690    7.1008 O.2     1  UNL1       -0.1246
     21 C           4.9434   -2.0828    1.5749 C.ar    1  UNL1       -0.0551
     22 C           4.1686   -1.6654    0.4890 C.ar    1  UNL1       -0.0197
     23 H           0.5148   -0.1052    0.3108 H       1  UNL1        0.0660
     24 H           1.5558    1.3494    0.0537 H       1  UNL1        0.0660
     25 H           0.8298    0.5028   -1.3183 H       1  UNL1        0.0660
     26 H           1.9555    0.3142    2.1501 H       1  UNL1        0.0654
     27 H           3.3018   -0.4146    4.0444 H       1  UNL1        0.0621
     28 H           6.5212   -2.2287    3.7080 H       1  UNL1        0.0313
     29 H           5.5182   -1.2797    4.7819 H       1  UNL1        0.0313
     30 H           3.9250   -3.2009    5.0416 H       1  UNL1        0.0273
     31 H           4.8402   -4.1451    3.8864 H       1  UNL1        0.0273
     32 H           5.2168   -4.8518    6.1449 H       1  UNL1        0.0351
     33 H           5.4325   -2.0520    6.8308 H       1  UNL1        0.0701
     34 H           5.2422   -3.4587    7.8341 H       1  UNL1        0.0701
     35 H           9.8741   -4.4430    4.5258 H       1  UNL1        0.0850
     36 H           7.2786   -5.5437    5.7054 H       1  UNL1        0.0497
     37 H           7.1895   -4.5700    4.2329 H       1  UNL1        0.0497
     38 H           5.7815   -2.7516    1.3981 H       1  UNL1        0.0621
     39 H           4.4140   -2.0128   -0.5120 H       1  UNL1        0.0654
@<TRIPOS>BOND
     1     1    23    1
     2     1    24    1
     3     1    25    1
     4     2     1    1
     5     3     2    1
     6     4     3   ar
     7     4    26    1
     8     5     4   ar
     9     5    27    1
    10     6     5   ar
    11     7     6    1
    12     7    28    1
    13     7    29    1
    14     8     7    1
    15     8    30    1
    16     8    31    1
    17     9     8    1
    18     9    32    1
    19    10     9    1
    20    10    33    1
    21    10    34    1
    22    11    10    1
    23    12    11    1
    24    13    12   ar
    25    14    13   ar
    26    15    14   ar
    27    15    35    1
    28    16    15   ar
    29    16    12   ar
    30    17    16    1
    31    17     9    1
    32    17    36    1
    33    17    37    1
    34    18    14    1
    35    19    18    2
    36    20    18    2
    37    21     6   ar
    38    21    38    1
    39    22    21   ar
    40    22     3   ar
    41    22    39    1
