@<TRIPOS>MOLECULE
>45.sdf
 49 51 0 0 0
SMALL
GASTEIGER

@<TRIPOS>ATOM
      1 C          10.4181    1.3378   -1.4422 C.3     1  UNL1        0.0788
      2 O          10.0791    2.4326   -2.2933 O.3     1  UNL1       -0.4951
      3 C           8.7769    2.5086   -2.6950 C.ar    1  UNL1        0.1201
      4 C           7.6824    2.0528   -1.9673 C.ar    1  UNL1       -0.0195
      5 C           6.3854    2.1905   -2.4811 C.ar    1  UNL1       -0.0501
      6 C           6.1561    2.7893   -3.7327 C.ar    1  UNL1       -0.0025
      7 C           4.7603    2.8218   -4.3020 C.3     1  UNL1       -0.0006
      8 N           4.2497    4.1978   -4.6980 N.4     1  UNL1        0.2752
      9 C           4.1279    5.1880   -3.5586 C.3     1  UNL1        0.0149
     10 C           2.6325    5.4443   -3.4207 C.3     1  UNL1        0.0149
     11 N           2.0725    5.1793   -4.7983 N.4     1  UNL1        0.2752
     12 C           1.8334    6.4058   -5.6636 C.3     1  UNL1       -0.0006
     13 C           0.8633    7.3939   -5.0679 C.ar    1  UNL1       -0.0025
     14 C           1.2853    8.6921   -4.7367 C.ar    1  UNL1       -0.0501
     15 C           0.3997    9.6172   -4.1645 C.ar    1  UNL1       -0.0195
     16 C          -0.9246    9.2659   -3.9210 C.ar    1  UNL1        0.1201
     17 O          -1.8830   10.0633   -3.3670 O.3     1  UNL1       -0.4951
     18 C          -1.5008   11.3775   -2.9707 C.3     1  UNL1        0.0788
     19 C          -1.3572    7.9860   -4.2742 C.ar    1  UNL1       -0.0195
     20 C          -0.4779    7.0586   -4.8449 C.ar    1  UNL1       -0.0501
     21 C           2.9479    4.1549   -5.4161 C.3     1  UNL1       -0.0117
     22 C           7.2655    3.2610   -4.4505 C.ar    1  UNL1       -0.0501
     23 C           8.5588    3.1333   -3.9241 C.ar    1  UNL1       -0.0195
     24 H           9.9195    1.4078   -0.4707 H       1  UNL1        0.0660
     25 H          10.1951    0.3821   -1.9297 H       1  UNL1        0.0660
     26 H          11.4965    1.3768   -1.2572 H       1  UNL1        0.0660
     27 H           7.8113    1.5863   -0.9942 H       1  UNL1        0.0654
     28 H           5.5681    1.7898   -1.8835 H       1  UNL1        0.0623
     29 H           4.7338    2.2012   -5.2058 H       1  UNL1        0.0869
     30 H           4.0337    2.4175   -3.5871 H       1  UNL1        0.0869
     31 H           4.9612    4.5584   -5.3470 H       1  UNL1        0.2096
     32 H           4.6562    6.0911   -3.8803 H       1  UNL1        0.0870
     33 H           4.5797    4.7913   -2.6464 H       1  UNL1        0.0870
     34 H           2.1676    4.7081   -2.7562 H       1  UNL1        0.0870
     35 H           2.3893    6.4530   -3.0818 H       1  UNL1        0.0870
     36 H           1.1339    4.7724   -4.6779 H       1  UNL1        0.2096
     37 H           2.8135    6.8621   -5.8427 H       1  UNL1        0.0869
     38 H           1.4401    6.0471   -6.6224 H       1  UNL1        0.0869
     39 H           2.3039    9.0257   -4.9321 H       1  UNL1        0.0623
     40 H           0.7690   10.6143   -3.9342 H       1  UNL1        0.0654
     41 H          -0.7352   11.3436   -2.1884 H       1  UNL1        0.0660
     42 H          -1.1617   11.9673   -3.8286 H       1  UNL1        0.0660
     43 H          -2.3830   11.8727   -2.5532 H       1  UNL1        0.0660
     44 H          -2.4037    7.7236   -4.1133 H       1  UNL1        0.0654
     45 H          -0.8891    6.0901   -5.1295 H       1  UNL1        0.0623
     46 H           2.4739    3.1784   -5.2684 H       1  UNL1        0.1434
     47 H           3.1122    4.3646   -6.4779 H       1  UNL1        0.1434
     48 H           7.1729    3.6969   -5.4426 H       1  UNL1        0.0623
     49 H           9.4189    3.4899   -4.4914 H       1  UNL1        0.0654
@<TRIPOS>UNITY_ATOM_ATTR
8 1
charge 1
11 1
charge 1
@<TRIPOS>BOND
     1     1    24    1
     2     1    25    1
     3     1    26    1
     4     2     1    1
     5     3     2    1
     6     4     3   ar
     7     4    27    1
     8     5     4   ar
     9     5    28    1
    10     6     5   ar
    11     7     6    1
    12     7    29    1
    13     7    30    1
    14     8     7    1
    15     8    31    1
    16     9     8    1
    17     9    32    1
    18     9    33    1
    19    10     9    1
    20    10    34    1
    21    10    35    1
    22    11    10    1
    23    11    36    1
    24    12    11    1
    25    12    37    1
    26    12    38    1
    27    13    12    1
    28    14    13   ar
    29    14    39    1
    30    15    14   ar
    31    15    40    1
    32    16    15   ar
    33    17    16    1
    34    18    17    1
    35    18    41    1
    36    18    42    1
    37    18    43    1
    38    19    16   ar
    39    19    44    1
    40    20    19   ar
    41    20    13   ar
    42    20    45    1
    43    21    11    1
    44    21     8    1
    45    21    46    1
    46    21    47    1
    47    22     6   ar
    48    22    48    1
    49    23    22   ar
    50    23     3   ar
    51    23    49    1
