@<TRIPOS>MOLECULE
>76.sdf
 64 70 0 0 0
SMALL
GASTEIGER

@<TRIPOS>ATOM
      1 C          10.7888    0.9184    4.7658 C.3     1  UNL1        0.0790
      2 O          10.6755   -0.4946    4.7701 O.3     1  UNL1       -0.4915
      3 C           9.5057   -1.0730    4.3577 C.ar    1  UNL1        0.1615
      4 C           8.3434   -0.4648    3.8641 C.ar    1  UNL1        0.1618
      5 O           8.2623    0.8953    3.7093 O.3     1  UNL1       -0.4914
      6 C           6.9560    1.4540    3.8784 C.3     1  UNL1        0.0790
      7 C           7.2818   -1.2821    3.4605 C.ar    1  UNL1       -0.0122
      8 C           7.3154   -2.6791    3.5625 C.ar    1  UNL1       -0.0316
      9 C           8.4539   -3.2719    4.1124 C.ar    1  UNL1       -0.0540
     10 C           9.5370   -2.4736    4.4867 C.ar    1  UNL1       -0.0160
     11 C           6.1058   -3.4319    3.0489 C.3     1  UNL1        0.0444
     12 C           6.3717   -4.7805    2.4818 C.2     1  UNL1        0.0239
     13 C           6.0799   -5.9412    3.0793 C.2     1  UNL1        0.0171
     14 C           6.2838   -7.1438    2.2192 C.3     1  UNL1       -0.0071
     15 C           6.8354   -6.5783    0.9064 C.3     1  UNL1        0.0154
     16 C           6.7972   -5.0920    1.1238 C.2     1  UNL1        0.1619
     17 O           7.0446   -4.2430    0.2697 O.2     1  UNL1       -0.2923
     18 N           5.4995   -5.9821    4.3394 N.pl3   1  UNL1       -0.3021
     19 C           5.0146   -4.8070    4.8397 C.ar    1  UNL1        0.1310
     20 C           5.1991   -3.5781    4.2296 C.ar    1  UNL1        0.0322
     21 C           4.2058   -2.7677    4.8031 C.ar    1  UNL1        0.1011
     22 N           3.5492   -3.3891    5.8018 N.ar    1  UNL1       -0.1643
     23 N           4.1235   -4.6220    5.8770 N.ar    1  UNL1       -0.2175
     24 C           3.6940   -5.5911    6.8127 C.ar    1  UNL1        0.0689
     25 C           2.3872   -5.5569    7.3201 C.ar    1  UNL1       -0.0347
     26 C           1.9152   -6.6410    8.0702 C.ar    1  UNL1       -0.0400
     27 C           2.7521   -7.7284    8.3512 C.ar    1  UNL1        0.0594
     28 CL          2.0734   -9.0788    9.1863 Cl      1  UNL1       -0.0820
     29 C           4.0845   -7.7079    7.9289 C.ar    1  UNL1        0.0613
     30 CL          5.1913   -8.9925    8.2584 Cl      1  UNL1       -0.0820
     31 C           4.5555   -6.6333    7.1742 C.ar    1  UNL1       -0.0164
     32 C           3.7602   -1.4515    4.3253 C.ar    1  UNL1        0.0275
     33 C           3.4183   -0.3958    5.1601 C.ar    1  UNL1        0.0120
     34 N           2.0493   -0.3119    4.9305 N.ar    1  UNL1       -0.3600
     35 C           1.8361   -0.5543    3.5883 C.ar    1  UNL1        0.0471
     36 C           2.9598   -1.2667    3.1467 C.ar    1  UNL1        0.0089
     37 C           2.9494   -1.7406    1.8180 C.ar    1  UNL1       -0.0520
     38 C           1.8660   -1.4362    0.9823 C.ar    1  UNL1       -0.0611
     39 C           0.7563   -0.7530    1.4728 C.ar    1  UNL1       -0.0598
     40 C           0.7066   -0.3247    2.7992 C.ar    1  UNL1       -0.0378
     41 H          10.9660    1.2894    3.7514 H       1  UNL1        0.0660
     42 H           9.9361    1.4094    5.2404 H       1  UNL1        0.0660
     43 H          11.6643    1.1735    5.3718 H       1  UNL1        0.0660
     44 H           6.2603    1.1410    3.0929 H       1  UNL1        0.0660
     45 H           6.5549    1.2146    4.8699 H       1  UNL1        0.0660
     46 H           7.0390    2.5404    3.7946 H       1  UNL1        0.0660
     47 H           6.3906   -0.8478    3.0215 H       1  UNL1        0.0658
     48 H           8.5266   -4.3491    4.2420 H       1  UNL1        0.0622
     49 H          10.4347   -2.9471    4.8860 H       1  UNL1        0.0655
     50 H           5.6190   -2.8387    2.2720 H       1  UNL1        0.0449
     51 H           5.3343   -7.6647    2.0474 H       1  UNL1        0.0330
     52 H           6.9882   -7.8475    2.6714 H       1  UNL1        0.0330
     53 H           7.8666   -6.8936    0.7385 H       1  UNL1        0.0349
     54 H           6.2031   -6.8497    0.0563 H       1  UNL1        0.0349
     55 H           5.0959   -6.8805    4.6075 H       1  UNL1        0.1533
     56 H           1.7100   -4.7390    7.0783 H       1  UNL1        0.0639
     57 H           0.8792   -6.6496    8.4028 H       1  UNL1        0.0633
     58 H           5.6030   -6.6124    6.8775 H       1  UNL1        0.0654
     59 H           3.9086    0.5716    5.2126 H       1  UNL1        0.0814
     60 H           1.3537   -0.4899    5.6412 H       1  UNL1        0.1654
     61 H           3.7797   -2.3025    1.4076 H       1  UNL1        0.0624
     62 H           1.8832   -1.7579   -0.0565 H       1  UNL1        0.0618
     63 H          -0.0911   -0.5635    0.8188 H       1  UNL1        0.0618
     64 H          -0.1714    0.1732    3.1960 H       1  UNL1        0.0638
@<TRIPOS>BOND
     1     1    41    1
     2     1    42    1
     3     1    43    1
     4     2     1    1
     5     3     2    1
     6     4     3   ar
     7     5     4    1
     8     6     5    1
     9     6    44    1
    10     6    45    1
    11     6    46    1
    12     7     4   ar
    13     7    47    1
    14     8     7   ar
    15     9     8   ar
    16     9    48    1
    17    10     9   ar
    18    10     3   ar
    19    10    49    1
    20    12    11    1
    21    13    12    2
    22    14    13    1
    23    14    51    1
    24    14    52    1
    25    15    14    1
    26    15    53    1
    27    15    54    1
    28    16    15    1
    29    16    12    1
    30    17    16    2
    31    18    13    1
    32    18    55    1
    33    19    18    1
    34    20    19   ar
    35    20    11    1
    36    21    20   ar
    37    22    21   ar
    38    23    22   ar
    39    23    19   ar
    40    24    23    1
    41    25    24   ar
    42    25    56    1
    43    26    25   ar
    44    26    57    1
    45    27    26   ar
    46    28    27    1
    47    29    27   ar
    48    30    29    1
    49    31    29   ar
    50    31    24   ar
    51    31    58    1
    52    32    21    1
    53    33    32   ar
    54    33    59    1
    55    34    33   ar
    56    34    60    1
    57    35    34   ar
    58    36    35   ar
    59    36    32   ar
    60    37    36   ar
    61    37    61    1
    62    38    37   ar
    63    38    62    1
    64    39    38   ar
    65    39    63    1
    66    40    39   ar
    67    40    35   ar
    68    40    64    1
    69    11    50    1
    70    11     8    1
