@<TRIPOS>MOLECULE
>29.sdf
 38 40 0 0 0
SMALL
GASTEIGER

@<TRIPOS>ATOM
      1 O           2.9250    0.3483    0.5303 O.3     1  UNL1       -0.3910
      2 C           4.2661    0.0311    0.8714 C.3     1  UNL1        0.0627
      3 C           4.7240   -1.1907    0.1451 C.2     1  UNL1       -0.0569
      4 C           4.2617   -1.6202   -1.0461 C.2     1  UNL1       -0.0380
      5 C           4.7505   -2.8292   -1.7276 C.ar    1  UNL1        0.0661
      6 N           5.6899   -3.5538   -1.0871 N.ar    1  UNL1       -0.2471
      7 C           6.1768   -4.6446   -1.6826 C.ar    1  UNL1        0.0762
      8 C           5.7460   -5.0895   -2.9578 C.ar    1  UNL1        0.0230
      9 C           6.4112   -6.2176   -3.5086 C.ar    1  UNL1       -0.0296
     10 C           7.3765   -6.9254   -2.7974 C.ar    1  UNL1        0.0768
     11 CL          8.0850   -8.3282   -3.4930 Cl      1  UNL1       -0.0806
     12 C           7.7456   -6.4809   -1.5410 C.ar    1  UNL1        0.1437
     13 F           8.6873   -7.1237   -0.8357 F       1  UNL1       -0.2039
     14 C           7.1575   -5.3456   -0.9993 C.ar    1  UNL1        0.0011
     15 C           4.7126   -4.3558   -3.6133 C.ar    1  UNL1        0.0412
     16 C           4.2466   -3.1984   -2.9692 C.ar    1  UNL1       -0.0146
     17 N           4.1583   -4.7465   -4.8275 N.pl3   1  UNL1       -0.3250
     18 C           3.7012   -3.7900   -5.8522 C.3     1  UNL1        0.0357
     19 C           2.2209   -4.0293   -6.1913 C.3     1  UNL1        0.0634
     20 O           1.9778   -5.3934   -6.5736 O.3     1  UNL1       -0.3767
     21 C           2.3245   -6.2749   -5.4972 C.3     1  UNL1        0.0634
     22 C           3.8033   -6.1501   -5.1185 C.3     1  UNL1        0.0357
     23 H           2.3872   -0.4067    0.8241 H       1  UNL1        0.2098
     24 H           4.9083    0.8803    0.6228 H       1  UNL1        0.0601
     25 H           4.3135   -0.1300    1.9541 H       1  UNL1        0.0601
     26 H           5.5119   -1.7511    0.6441 H       1  UNL1        0.0595
     27 H           3.4966   -1.0472   -1.5605 H       1  UNL1        0.0636
     28 H           6.1870   -6.5506   -4.5163 H       1  UNL1        0.0640
     29 H           7.4825   -5.0012   -0.0217 H       1  UNL1        0.0668
     30 H           3.4620   -2.5960   -3.4140 H       1  UNL1        0.0657
     31 H           4.3045   -3.9595   -6.7525 H       1  UNL1        0.0486
     32 H           3.8546   -2.7444   -5.5669 H       1  UNL1        0.0486
     33 H           1.5756   -3.7805   -5.3410 H       1  UNL1        0.0575
     34 H           1.9255   -3.3979   -7.0342 H       1  UNL1        0.0575
     35 H           2.1184   -7.2999   -5.8222 H       1  UNL1        0.0575
     36 H           1.6824   -6.0618   -4.6344 H       1  UNL1        0.0575
     37 H           4.4188   -6.4854   -5.9621 H       1  UNL1        0.0486
     38 H           3.9783   -6.8159   -4.2680 H       1  UNL1        0.0486
@<TRIPOS>BOND
     1     1    23    1
     2     2     1    1
     3     2    24    1
     4     2    25    1
     5     3     2    1
     6     3    26    1
     7     4     3    2
     8     4    27    1
     9     5     4    1
    10     6     5   ar
    11     7     6   ar
    12     8     7   ar
    13     9     8   ar
    14     9    28    1
    15    10     9   ar
    16    11    10    1
    17    12    10   ar
    18    13    12    1
    19    14    12   ar
    20    14     7   ar
    21    14    29    1
    22    15     8   ar
    23    16    15   ar
    24    16     5   ar
    25    16    30    1
    26    17    15    1
    27    18    17    1
    28    18    31    1
    29    18    32    1
    30    19    18    1
    31    19    33    1
    32    19    34    1
    33    20    19    1
    34    21    20    1
    35    21    35    1
    36    21    36    1
    37    22    21    1
    38    22    17    1
    39    22    37    1
    40    22    38    1
