@<TRIPOS>MOLECULE
>88.sdf
 43 46 0 0 0
SMALL
GASTEIGER

@<TRIPOS>ATOM
      1 C           1.0508    0.2859    0.1674 C.3     1  UNL1       -0.0216
      2 C           2.5340    0.0859    0.1375 C.ar    1  UNL1        0.0512
      3 C           3.2005   -1.1587    0.1235 C.ar    1  UNL1        0.0491
      4 C           4.5949   -1.1048    0.1197 C.ar    1  UNL1        0.1468
      5 N           5.3549    0.0040    0.1027 N.ar    1  UNL1       -0.2176
      6 C           4.6202    1.1222    0.1073 C.ar    1  UNL1        0.1185
      7 N           3.2844    1.2252    0.1268 N.ar    1  UNL1       -0.2399
      8 N           5.0794   -2.3886    0.1124 N.ar    1  UNL1       -0.3025
      9 C           4.0241   -3.2714    0.1140 C.ar    1  UNL1        0.0189
     10 C           2.8392   -2.5512    0.1045 C.ar    1  UNL1        0.0289
     11 C           1.5326   -3.1983    0.0055 C.ar    1  UNL1        0.0731
     12 N           0.5781   -2.4948   -0.6424 N.ar    1  UNL1       -0.2549
     13 C          -0.6318   -3.0706   -0.7977 C.ar    1  UNL1        0.0283
     14 C          -0.9411   -4.3401   -0.3472 C.ar    1  UNL1       -0.0436
     15 C           0.0475   -5.0568    0.3142 C.ar    1  UNL1       -0.0583
     16 C           1.3008   -4.4784    0.5016 C.ar    1  UNL1       -0.0356
     17 C1*         6.4793   -2.7907    0.0294 C.3     1  UNL1        0.1654
     18 O4*         7.1998   -2.2722    1.1688 O.3     1  UNL1       -0.3457
     19 C4*         8.4894   -1.8168    0.7095 C.3     1  UNL1        0.1126
     20 C5*         8.5937   -0.3025    0.8942 C.3     1  UNL1        0.0730
     21 O5*         9.8788    0.1548    0.4855 O.3     1  UNL1       -0.3924
     22 C3*         8.6391   -2.2419   -0.7553 C.3     1  UNL1        0.1135
     23 O3*         9.2413   -3.5407   -0.8541 O.3     1  UNL1       -0.3864
     24 C2*         7.1962   -2.3160   -1.2338 C.3     1  UNL1        0.1285
     25 O2*         7.0027   -3.1885   -2.3479 O.3     1  UNL1       -0.3847
     26 H           0.6149    0.0128   -0.7966 H       1  UNL1        0.0293
     27 H           0.5983   -0.3036    0.9699 H       1  UNL1        0.0293
     28 H           0.8046    1.3372    0.3495 H       1  UNL1        0.0293
     29 H           5.1664    2.0566    0.0886 H       1  UNL1        0.1047
     30 H           4.2090   -4.3382    0.0821 H       1  UNL1        0.0817
     31 H          -1.3688   -2.4609   -1.3128 H       1  UNL1        0.0830
     32 H          -1.9259   -4.7603   -0.5127 H       1  UNL1        0.0633
     33 H          -0.1524   -6.0596    0.6790 H       1  UNL1        0.0619
     34 H           2.0752   -5.0308    1.0220 H       1  UNL1        0.0639
     35 H1*         6.5056   -3.8862    0.1026 H       1  UNL1        0.0866
     36 H4*         9.2529   -2.3053    1.3262 H       1  UNL1        0.0647
     37 H5*1        7.8413    0.2274    0.3076 H       1  UNL1        0.0584
     38 H5*2        8.4408   -0.0394    1.9464 H       1  UNL1        0.0584
     39 H5*         9.8939    1.1161    0.6449 H       1  UNL1        0.2095
     40 H3*         9.2444   -1.5670   -1.3668 H       1  UNL1        0.0647
     41 H3*        10.1454   -3.4647   -0.4874 H       1  UNL1        0.2100
     42 H2*         6.8682   -1.3188   -1.5405 H       1  UNL1        0.0665
     43 H2*         7.8668   -3.2866   -2.7875 H       1  UNL1        0.2101
@<TRIPOS>BOND
     1     1    26    1
     2     1    27    1
     3     1    28    1
     4     2     1    1
     5     3     2   ar
     6     4     3   ar
     7     5     4   ar
     8     6     5   ar
     9     6    29    1
    10     7     6   ar
    11     7     2   ar
    12     8     4   ar
    13     9     8   ar
    14     9    30    1
    15    10     9   ar
    16    10     3   ar
    17    11    10    1
    18    12    11   ar
    19    13    12   ar
    20    13    31    1
    21    14    13   ar
    22    14    32    1
    23    15    14   ar
    24    15    33    1
    25    16    15   ar
    26    16    11   ar
    27    16    34    1
    28    17     8    1
    29    17    35    1
    30    18    17    1
    31    19    18    1
    32    19    36    1
    33    20    19    1
    34    20    37    1
    35    20    38    1
    36    21    20    1
    37    21    39    1
    38    22    19    1
    39    22    40    1
    40    23    22    1
    41    23    41    1
    42    24    22    1
    43    24    17    1
    44    24    42    1
    45    25    24    1
    46    25    43    1
