@<TRIPOS>MOLECULE
>93.sdf
 40 44 0 0 0
SMALL
GASTEIGER

@<TRIPOS>ATOM
      1 C           2.7181   -0.4110    1.1788 C.3     1  UNL1       -0.0471
      2 C           2.6042    0.3131   -0.1536 C.3     1  UNL1        0.0210
      3 N           3.1113    1.6829   -0.1191 N.ar    1  UNL1       -0.3400
      4 C           2.3452    2.7995    0.0996 C.ar    1  UNL1        0.0508
      5 C           0.9866    2.8342    0.4720 C.ar    1  UNL1       -0.0356
      6 C           0.3586    4.0602    0.5796 C.ar    1  UNL1       -0.0357
      7 C           1.0604    5.2103    0.2923 C.ar    1  UNL1        0.0505
      8 N           0.3078    6.3867    0.2614 N.ar    1  UNL1       -0.3216
      9 C           0.7391    7.5434   -0.3232 C.ar    1  UNL1        0.2569
     10 O          -0.0046    8.5168   -0.3995 O.2     1  UNL1       -0.2672
     11 C           2.1559    7.5741   -0.7845 C.ar    1  UNL1        0.0471
     12 C           2.6168    8.8480   -1.0939 C.ar    1  UNL1       -0.0488
     13 C           3.6354    9.3495   -0.3173 C.ar    1  UNL1       -0.0610
     14 C           4.4788    8.4608    0.3023 C.ar    1  UNL1       -0.0611
     15 C           4.2251    7.0584    0.2479 C.ar    1  UNL1       -0.0532
     16 C           3.0167    6.5924   -0.2601 C.ar    1  UNL1       -0.0030
     17 C           2.4479    5.2292   -0.0259 C.ar    1  UNL1        0.0160
     18 C           3.1122    3.9547   -0.1324 C.ar    1  UNL1        0.0173
     19 C           4.4411    3.4462   -0.4577 C.ar    1  UNL1        0.0082
     20 C           4.4034    2.0426   -0.4029 C.ar    1  UNL1        0.0501
     21 C           5.5211    1.2265   -0.6349 C.ar    1  UNL1       -0.0376
     22 C           6.7324    1.8414   -0.9525 C.ar    1  UNL1       -0.0598
     23 C           6.8172    3.2167   -1.0370 C.ar    1  UNL1       -0.0611
     24 C           5.6873    4.0184   -0.8010 C.ar    1  UNL1       -0.0520
     25 H           2.2660   -1.4058    1.1002 H       1  UNL1        0.0247
     26 H           3.7639   -0.5410    1.4728 H       1  UNL1        0.0247
     27 H           2.2061    0.1330    1.9787 H       1  UNL1        0.0247
     28 H           3.1449   -0.2318   -0.9321 H       1  UNL1        0.0489
     29 H           1.5611    0.3431   -0.4773 H       1  UNL1        0.0489
     30 H           0.4119    1.9305    0.6445 H       1  UNL1        0.0639
     31 H          -0.7015    4.0953    0.8127 H       1  UNL1        0.0639
     32 H          -0.6571    6.3927    0.5665 H       1  UNL1        0.1689
     33 H           2.6326    9.1389   -2.1523 H       1  UNL1        0.0625
     34 H           3.7561   10.4384   -0.2266 H       1  UNL1        0.0618
     35 H           5.3223    8.8310    0.8597 H       1  UNL1        0.0618
     36 H           4.9406    6.4015    0.7253 H       1  UNL1        0.0624
     37 H           5.4569    0.1422   -0.5938 H       1  UNL1        0.0638
     38 H           7.6141    1.2169   -1.1459 H       1  UNL1        0.0618
     39 H           7.7681    3.6726   -1.2800 H       1  UNL1        0.0618
     40 H           5.7994    5.0918   -0.9029 H       1  UNL1        0.0624
@<TRIPOS>BOND
     1     1    25    1
     2     1    26    1
     3     1    27    1
     4     2     1    1
     5     2    28    1
     6     2    29    1
     7     3     2    1
     8     4     3   ar
     9     5     4   ar
    10     5    30    1
    11     6     5   ar
    12     6    31    1
    13     7     6   ar
    14     8     7   ar
    15     8    32    1
    16     9     8   ar
    17    10     9    2
    18    11     9   ar
    19    12    11   ar
    20    12    33    1
    21    13    12   ar
    22    13    34    1
    23    14    13   ar
    24    14    35    1
    25    15    14   ar
    26    15    36    1
    27    16    15   ar
    28    16    11   ar
    29    17    16   ar
    30    17     7   ar
    31    18    17   ar
    32    18     4   ar
    33    19    18   ar
    34    20    19   ar
    35    20     3   ar
    36    21    20   ar
    37    21    37    1
    38    22    21   ar
    39    22    38    1
    40    23    22   ar
    41    23    39    1
    42    24    23   ar
    43    24    19   ar
    44    24    40    1
