@<TRIPOS>MOLECULE
>31.sdf
 65 67 0 0 0
SMALL
GASTEIGER

@<TRIPOS>ATOM
      1 C           7.2193    6.5556    5.0500 C.3     1  UNL1       -0.0245
      2 C           6.8271    5.2158    4.4787 C.3     1  UNL1       -0.0348
      3 N           7.8539    4.6210    3.5408 N.4     1  UNL1        0.2348
      4 C           9.2487    4.4572    4.1123 C.3     1  UNL1       -0.0348
      5 C           9.3305    3.4476    5.2365 C.3     1  UNL1       -0.0245
      6 C           7.3329    3.3509    2.8913 C.3     1  UNL1       -0.0319
      7 C           6.0601    3.6052    2.0767 C.3     1  UNL1       -0.0109
      8 C           6.1913    4.6148    0.9223 C.3     1  UNL1       -0.0300
      9 C           7.1402    4.2136   -0.2297 C.3     1  UNL1        0.0180
     10 C           6.7598    2.8414   -0.7889 C.3     1  UNL1       -0.0467
     11 N           8.5521    4.2399    0.2156 N.pl3   1  UNL1       -0.3407
     12 C           9.2959    5.4537    0.2307 C.ar    1  UNL1        0.0383
     13 C           8.7111    6.6849   -0.0960 C.ar    1  UNL1       -0.0186
     14 C           9.4166    7.8667    0.1043 C.ar    1  UNL1        0.0468
     15 N          10.6222    7.8823    0.7076 N.ar    1  UNL1       -0.2512
     16 C          11.2227    6.7262    0.9991 C.ar    1  UNL1        0.0744
     17 C          10.6399    5.4698    0.7215 C.ar    1  UNL1        0.0213
     18 C          11.4238    4.3169    0.9920 C.ar    1  UNL1       -0.0494
     19 C          12.6659    4.4176    1.6324 C.ar    1  UNL1       -0.0426
     20 C          13.1558    5.6619    1.9740 C.ar    1  UNL1        0.0430
     21 CL         14.6178    5.7982    2.8748 Cl      1  UNL1       -0.0835
     22 C          12.4543    6.8154    1.6222 C.ar    1  UNL1       -0.0173
     23 C           8.8665    9.2054   -0.3514 C.3     1  UNL1        0.0014
     24 C           9.8421    9.8702   -1.3394 C.3     1  UNL1       -0.0448
     25 C           9.3738   11.2596   -1.7611 C.3     1  UNL1       -0.0525
     26 C           9.1236   12.1540   -0.5514 C.3     1  UNL1       -0.0530
     27 C           8.1348   11.5125    0.4177 C.3     1  UNL1       -0.0525
     28 C           8.5912   10.1213    0.8527 C.3     1  UNL1       -0.0448
     29 H           6.3183    7.0340    5.4581 H       1  UNL1        0.0281
     30 H           7.9318    6.4507    5.8689 H       1  UNL1        0.0281
     31 H           7.6310    7.2214    4.2859 H       1  UNL1        0.0281
     32 H           6.6099    4.4765    5.2555 H       1  UNL1        0.0812
     33 H           5.9228    5.3860    3.8948 H       1  UNL1        0.0812
     34 H           7.9974    5.2833    2.7620 H       1  UNL1        0.2033
     35 H           9.8978    4.1509    3.2878 H       1  UNL1        0.0812
     36 H           9.5789    5.4481    4.4419 H       1  UNL1        0.0812
     37 H           8.5255    3.5591    5.9659 H       1  UNL1        0.0281
     38 H           9.3110    2.4236    4.8500 H       1  UNL1        0.0281
     39 H          10.2796    3.5695    5.7720 H       1  UNL1        0.0281
     40 H           8.1321    2.9267    2.2787 H       1  UNL1        0.0814
     41 H           7.1217    2.6429    3.7006 H       1  UNL1        0.0814
     42 H           5.6867    2.6463    1.7000 H       1  UNL1        0.0317
     43 H           5.2489    3.9400    2.7321 H       1  UNL1        0.0317
     44 H           5.1871    4.7474    0.4964 H       1  UNL1        0.0285
     45 H           6.4635    5.5984    1.3220 H       1  UNL1        0.0285
     46 H           7.0032    4.9059   -1.0627 H       1  UNL1        0.0495
     47 H           7.4498    2.5312   -1.5755 H       1  UNL1        0.0247
     48 H           6.7556    2.0503   -0.0317 H       1  UNL1        0.0247
     49 H           5.7537    2.8928   -1.2224 H       1  UNL1        0.0247
     50 H           9.1121    3.5253   -0.2593 H       1  UNL1        0.1464
     51 H           7.7284    6.7572   -0.5403 H       1  UNL1        0.0654
     52 H          11.0806    3.3279    0.6977 H       1  UNL1        0.0625
     53 H          13.2366    3.5199    1.8633 H       1  UNL1        0.0632
     54 H          12.8615    7.7953    1.8494 H       1  UNL1        0.0653
     55 H           7.9151    9.0388   -0.8781 H       1  UNL1        0.0364
     56 H          10.8388    9.9633   -0.8895 H       1  UNL1        0.0272
     57 H           9.9637    9.2397   -2.2303 H       1  UNL1        0.0272
     58 H          10.1288   11.7208   -2.4084 H       1  UNL1        0.0265
     59 H           8.4540   11.1735   -2.3531 H       1  UNL1        0.0265
     60 H          10.0721   12.3456   -0.0340 H       1  UNL1        0.0265
     61 H           8.7387   13.1242   -0.8839 H       1  UNL1        0.0265
     62 H           8.0187   12.1529    1.2993 H       1  UNL1        0.0265
     63 H           7.1490   11.4426   -0.0587 H       1  UNL1        0.0265
     64 H           7.8276    9.6717    1.4997 H       1  UNL1        0.0272
     65 H           9.4960   10.2246    1.4676 H       1  UNL1        0.0272
@<TRIPOS>UNITY_ATOM_ATTR
3 1
charge 1
@<TRIPOS>BOND
     1     1    29    1
     2     1    30    1
     3     1    31    1
     4     2     1    1
     5     2    32    1
     6     2    33    1
     7     3     2    1
     8     3    34    1
     9     4     3    1
    10     4    35    1
    11     4    36    1
    12     5     4    1
    13     5    37    1
    14     5    38    1
    15     5    39    1
    16     6     3    1
    17     6    40    1
    18     6    41    1
    19     7     6    1
    20     7    42    1
    21     7    43    1
    22     8     7    1
    23     8    44    1
    24     8    45    1
    25    10     9    1
    26    10    47    1
    27    10    48    1
    28    10    49    1
    29    11     9    1
    30    11    50    1
    31    12    11    1
    32    13    12   ar
    33    13    51    1
    34    14    13   ar
    35    15    14   ar
    36    16    15   ar
    37    17    16   ar
    38    17    12   ar
    39    18    17   ar
    40    18    52    1
    41    19    18   ar
    42    19    53    1
    43    20    19   ar
    44    21    20    1
    45    22    20   ar
    46    22    16   ar
    47    22    54    1
    48    23    14    1
    49    23    55    1
    50    24    23    1
    51    24    56    1
    52    24    57    1
    53    25    24    1
    54    25    58    1
    55    25    59    1
    56    26    25    1
    57    26    60    1
    58    26    61    1
    59    27    26    1
    60    27    62    1
    61    27    63    1
    62    28    27    1
    63    28    23    1
    64    28    64    1
    65    28    65    1
    66     9    46    1
    67     9     8    1
