@<TRIPOS>MOLECULE
>166.sdf
 47 50 0 0 0
SMALL
GASTEIGER

@<TRIPOS>ATOM
      1 C           1.6418   -0.9473   -1.9912 C.3     1  UNL1        0.1346
      2 O           1.8500   -2.3246   -2.2931 O.3     1  UNL1       -0.4858
      3 C           0.9726   -2.9233   -3.1495 C.ar    1  UNL1        0.1211
      4 C          -0.1274   -2.3266   -3.7650 C.ar    1  UNL1       -0.0199
      5 C          -0.9241   -3.0733   -4.6405 C.ar    1  UNL1       -0.0583
      6 C          -0.6301   -4.4123   -4.8947 C.ar    1  UNL1       -0.0615
      7 C           0.4613   -5.0123   -4.2720 C.ar    1  UNL1       -0.0583
      8 C           1.2557   -4.2678   -3.4022 C.ar    1  UNL1       -0.0199
      9 C           2.7294   -0.4471   -1.1122 C.ar    1  UNL1        0.1204
     10 C           3.9103    0.1770   -1.4474 C.ar    1  UNL1        0.0578
     11 N           4.4518    0.5676   -0.2422 N.ar    1  UNL1       -0.2191
     12 N           3.7319    0.0278    0.7655 N.ar    1  UNL1       -0.0604
     13 N           2.6592   -0.5581    0.2477 N.ar    1  UNL1       -0.1307
     14 C           5.6321    1.3205   -0.0414 C.ar    1  UNL1        0.0756
     15 C           5.8048    2.1869    1.0525 C.ar    1  UNL1        0.0200
     16 C           4.7535    2.5545    2.0269 C.2     1  UNL1        0.0547
     17 N           3.5191    2.6963    1.6721 N.2     1  UNL1       -0.1899
     18 N           2.6558    3.0001    2.6720 N.pl3   1  UNL1       -0.2378
     19 C           1.2728    2.8731    2.4495 C.ar    1  UNL1        0.0483
     20 C           0.7607    2.2725    1.2916 C.ar    1  UNL1       -0.0391
     21 C          -0.6138    2.1207    1.0955 C.ar    1  UNL1       -0.0600
     22 C          -1.5049    2.5734    2.0626 C.ar    1  UNL1       -0.0616
     23 C          -1.0191    3.1630    3.2297 C.ar    1  UNL1       -0.0600
     24 C           0.3611    3.3041    3.4218 C.ar    1  UNL1       -0.0391
     25 C           7.0183    2.8789    1.2007 C.ar    1  UNL1       -0.0511
     26 C           8.0472    2.7177    0.2700 C.ar    1  UNL1       -0.0610
     27 C           7.8779    1.8610   -0.8130 C.ar    1  UNL1       -0.0597
     28 C           6.6765    1.1700   -0.9748 C.ar    1  UNL1       -0.0356
     29 H           0.6778   -0.8108   -1.4849 H       1  UNL1        0.0764
     30 H           1.6434   -0.3566   -2.9170 H       1  UNL1        0.0764
     31 H          -0.3955   -1.2907   -3.5917 H       1  UNL1        0.0654
     32 H          -1.7799   -2.6089   -5.1240 H       1  UNL1        0.0619
     33 H          -1.2520   -4.9863   -5.5759 H       1  UNL1        0.0618
     34 H           0.6949   -6.0561   -4.4599 H       1  UNL1        0.0619
     35 H           2.1073   -4.7378   -2.9153 H       1  UNL1        0.0654
     36 H           4.3393    0.4488   -2.3986 H       1  UNL1        0.0851
     37 H           5.0850    2.7406    3.0649 H       1  UNL1        0.0852
     38 H           2.9484    3.4960    3.5068 H       1  UNL1        0.1744
     39 H           1.4456    1.8985    0.5369 H       1  UNL1        0.0636
     40 H          -0.9779    1.6407    0.1924 H       1  UNL1        0.0618
     41 H          -2.5749    2.4552    1.9122 H       1  UNL1        0.0618
     42 H          -1.7125    3.5072    3.9892 H       1  UNL1        0.0618
     43 H           0.7150    3.7522    4.3449 H       1  UNL1        0.0636
     44 H           7.1570    3.5848    2.0172 H       1  UNL1        0.0625
     45 H           8.9763    3.2712    0.3832 H       1  UNL1        0.0618
     46 H           8.6838    1.7245   -1.5312 H       1  UNL1        0.0618
     47 H           6.5948    0.4778   -1.8108 H       1  UNL1        0.0639
@<TRIPOS>BOND
     1     1    29    1
     2     1    30    1
     3     2     1    1
     4     3     2    1
     5     4     3   ar
     6     4    31    1
     7     5     4   ar
     8     5    32    1
     9     6     5   ar
    10     6    33    1
    11     7     6   ar
    12     7    34    1
    13     8     7   ar
    14     8     3   ar
    15     8    35    1
    16     9     1    1
    17    10     9   ar
    18    10    36    1
    19    11    10   ar
    20    12    11   ar
    21    13    12   ar
    22    13     9   ar
    23    14    11    1
    24    15    14   ar
    25    16    15    1
    26    16    37    1
    27    17    16    2
    28    18    17    1
    29    18    38    1
    30    19    18    1
    31    20    19   ar
    32    20    39    1
    33    21    20   ar
    34    21    40    1
    35    22    21   ar
    36    22    41    1
    37    23    22   ar
    38    23    42    1
    39    24    23   ar
    40    24    19   ar
    41    24    43    1
    42    25    15   ar
    43    25    44    1
    44    26    25   ar
    45    26    45    1
    46    27    26   ar
    47    27    46    1
    48    28    27   ar
    49    28    14   ar
    50    28    47    1
