@<TRIPOS>MOLECULE
>108.sdf
 26 27 0 0 0
SMALL
GASTEIGER

@<TRIPOS>ATOM
      1 C           4.8891    1.7465   -1.4039 C.3     1  UNL1        0.0833
      2 O           4.4358    0.5787   -0.7137 O.3     1  UNL1       -0.4534
      3 C           4.9208    0.4969    0.5597 C.2     1  UNL1        0.4065
      4 O           5.5517    1.3987    1.0896 O.2     1  UNL1       -0.2260
      5 N           4.5817   -0.7262    1.0715 N.am    1  UNL1       -0.2210
      6 C           5.1746   -1.2082    2.2111 C.ar    1  UNL1        0.2053
      7 N           6.1322   -0.6209    2.8879 N.ar    1  UNL1       -0.2140
      8 C           6.4709   -1.4626    3.9016 C.ar    1  UNL1        0.0923
      9 C           5.6820   -2.6080    3.8789 C.ar    1  UNL1        0.0699
     10 C           5.8138   -3.6228    4.8348 C.ar    1  UNL1       -0.0346
     11 C           6.7992   -3.4461    5.8163 C.ar    1  UNL1       -0.0413
     12 C           7.6116   -2.3104    5.8295 C.ar    1  UNL1        0.0431
     13 CL          8.8259   -2.1496    7.0410 Cl      1  UNL1       -0.0835
     14 C           7.4608   -1.3025    4.8790 C.ar    1  UNL1       -0.0158
     15 N           4.8781   -2.4348    2.7713 N.ar    1  UNL1       -0.3146
     16 C           3.9226   -3.3906    2.2659 C.3     1  UNL1        0.0150
     17 H           4.4299    2.6429   -0.9762 H       1  UNL1        0.0661
     18 H           5.9823    1.8192   -1.3705 H       1  UNL1        0.0661
     19 H           4.5894    1.6630   -2.4517 H       1  UNL1        0.0661
     20 H           3.9645   -1.2923    0.5155 H       1  UNL1        0.1610
     21 H           5.1905   -4.5102    4.8301 H       1  UNL1        0.0639
     22 H           6.9323   -4.2123    6.5770 H       1  UNL1        0.0633
     23 H           8.0833   -0.4148    4.8749 H       1  UNL1        0.0654
     24 H           2.9191   -2.9775    2.3956 H       1  UNL1        0.0457
     25 H           4.1326   -3.5711    1.2077 H       1  UNL1        0.0457
     26 H           4.0080   -4.3351    2.8084 H       1  UNL1        0.0457
@<TRIPOS>BOND
     1     1    17    1
     2     1    18    1
     3     1    19    1
     4     2     1    1
     5     3     2    1
     6     4     3    2
     7     5     3   am
     8     5    20    1
     9     6     5    1
    10     7     6   ar
    11     8     7   ar
    12     9     8   ar
    13    10     9   ar
    14    10    21    1
    15    11    10   ar
    16    11    22    1
    17    12    11   ar
    18    13    12    1
    19    14    12   ar
    20    14     8   ar
    21    14    23    1
    22    15     9   ar
    23    15     6   ar
    24    16    15    1
    25    16    24    1
    26    16    25    1
    27    16    26    1
