@<TRIPOS>MOLECULE
>59.sdf
 52 56 0 0 0
SMALL
GASTEIGER

@<TRIPOS>ATOM
      1 C           5.4096    1.0833   -0.4680 C.3     1  UNL1        0.0788
      2 O           4.4624    0.0572   -0.2053 O.3     1  UNL1       -0.4951
      3 C           4.8883   -1.1081    0.3640 C.ar    1  UNL1        0.1201
      4 C           6.1447   -1.3962    0.8882 C.ar    1  UNL1       -0.0193
      5 C           6.4181   -2.6704    1.4588 C.ar    1  UNL1       -0.0490
      6 C           5.4531   -3.7017    1.5035 C.ar    1  UNL1        0.0026
      7 C           4.1873   -3.3612    0.9915 C.ar    1  UNL1       -0.0490
      8 C           3.9118   -2.1002    0.4343 C.ar    1  UNL1       -0.0193
      9 C           5.6752   -5.0528    2.0904 C.ar    1  UNL1        0.0957
     10 C           6.8374   -5.4906    2.7564 C.ar    1  UNL1        0.0738
     11 N           7.7532   -6.4767    2.3138 N.ar    1  UNL1       -0.3525
     12 C           8.1056   -7.2923    3.3851 C.ar    1  UNL1        0.0475
     13 C           7.9042   -6.5127    4.5243 C.ar    1  UNL1        0.0075
     14 C           8.2073   -7.0761    5.7858 C.ar    1  UNL1       -0.0520
     15 C           8.2290   -8.4674    5.8870 C.ar    1  UNL1       -0.0611
     16 C           8.2175   -9.2538    4.7389 C.ar    1  UNL1       -0.0598
     17 C           8.3033   -8.6798    3.4593 C.ar    1  UNL1       -0.0378
     18 C           6.6811   -5.8482    4.1176 C.ar    1  UNL1        0.0117
     19 C           5.3592   -6.2616    4.4917 C.ar    1  UNL1       -0.0214
     20 C           4.5763   -6.6490    3.3978 C.ar    1  UNL1        0.1267
     21 N           4.5949   -5.8903    2.2651 N.ar    1  UNL1       -0.2400
     22 C           4.4821   -8.1695    3.1268 C.2     1  UNL1        0.2627
     23 O           5.4278   -8.9131    3.3762 O.2     1  UNL1       -0.2685
     24 N           3.3188   -8.6770    2.5610 N.am    1  UNL1       -0.3060
     25 C           3.3299  -10.0132    1.9636 C.3     1  UNL1        0.0372
     26 C           2.1628  -10.9438    2.2585 C.ar    1  UNL1       -0.0303
     27 C           1.9208  -12.0326    1.3889 C.ar    1  UNL1       -0.0571
     28 C           1.0227  -13.0546    1.7278 C.ar    1  UNL1       -0.0615
     29 C           0.3429  -13.0071    2.9399 C.ar    1  UNL1       -0.0617
     30 C           0.5367  -11.9082    3.7913 C.ar    1  UNL1       -0.0615
     31 C           1.4333  -10.8995    3.4529 C.ar    1  UNL1       -0.0571
     32 H           5.9749    1.3646    0.4250 H       1  UNL1        0.0660
     33 H           6.0759    0.7987   -1.2887 H       1  UNL1        0.0660
     34 H           4.8522    1.9710   -0.7896 H       1  UNL1        0.0660
     35 H           6.9331   -0.6487    0.8863 H       1  UNL1        0.0654
     36 H           7.4076   -2.8257    1.8862 H       1  UNL1        0.0625
     37 H           3.3757   -4.0851    1.0322 H       1  UNL1        0.0625
     38 H           2.9133   -1.8968    0.0519 H       1  UNL1        0.0654
     39 H           7.7232   -6.8232    1.3682 H       1  UNL1        0.1660
     40 H           8.1348   -6.4716    6.6847 H       1  UNL1        0.0624
     41 H           8.1531   -8.9305    6.8678 H       1  UNL1        0.0618
     42 H           8.0521  -10.3262    4.8333 H       1  UNL1        0.0618
     43 H           8.2158   -9.3124    2.5801 H       1  UNL1        0.0638
     44 H           4.8929   -5.5604    5.1841 H       1  UNL1        0.0647
     45 H           2.5977   -8.0222    2.2671 H       1  UNL1        0.1494
     46 H           3.4021   -9.8577    0.8844 H       1  UNL1        0.0512
     47 H           4.2336  -10.5607    2.2702 H       1  UNL1        0.0512
     48 H           2.4695  -12.1227    0.4521 H       1  UNL1        0.0621
     49 H           0.8872  -13.9061    1.0647 H       1  UNL1        0.0618
     50 H          -0.3124  -13.8219    3.2302 H       1  UNL1        0.0618
     51 H          -0.0010  -11.8632    4.7399 H       1  UNL1        0.0618
     52 H           1.5948  -10.0839    4.1555 H       1  UNL1        0.0621
@<TRIPOS>BOND
     1     1    32    1
     2     1    33    1
     3     1    34    1
     4     2     1    1
     5     3     2    1
     6     4     3   ar
     7     4    35    1
     8     5     4   ar
     9     5    36    1
    10     6     5   ar
    11     7     6   ar
    12     7    37    1
    13     8     7   ar
    14     8     3   ar
    15     8    38    1
    16     9     6    1
    17    10     9   ar
    18    11    10   ar
    19    11    39    1
    20    12    11   ar
    21    13    12   ar
    22    14    13   ar
    23    14    40    1
    24    15    14   ar
    25    15    41    1
    26    16    15   ar
    27    16    42    1
    28    17    16   ar
    29    17    12   ar
    30    17    43    1
    31    18    13   ar
    32    18    10   ar
    33    19    18   ar
    34    19    44    1
    35    20    19   ar
    36    21    20   ar
    37    21     9   ar
    38    22    20    1
    39    23    22    2
    40    24    22   am
    41    24    45    1
    42    25    24    1
    43    25    46    1
    44    25    47    1
    45    26    25    1
    46    27    26   ar
    47    27    48    1
    48    28    27   ar
    49    28    49    1
    50    29    28   ar
    51    29    50    1
    52    30    29   ar
    53    30    51    1
    54    31    30   ar
    55    31    26   ar
    56    31    52    1
