@<TRIPOS>MOLECULE
>69.sdf
 49 52 0 0 0
SMALL
GASTEIGER

@<TRIPOS>ATOM
      1 C          -1.2526    0.7433    2.0287 C.3     1  UNL1        0.0154
      2 N          -1.3114    0.5030    0.6037 N.ar    1  UNL1       -0.3066
      3 C          -0.7717    1.2955   -0.3981 C.ar    1  UNL1        0.1695
      4 N          -1.0898    0.8262   -1.5950 N.ar    1  UNL1       -0.2315
      5 C          -1.8144   -0.3150   -1.3774 C.ar    1  UNL1        0.0774
      6 C          -1.9620   -0.5293   -0.0338 C.ar    1  UNL1        0.2157
      7 N          -2.6559   -1.5981    0.5999 N.pl3   1  UNL1        0.0750
      8 O          -2.6623   -1.6364    1.8351 O.2     1  UNL1       -0.1246
      9 O          -3.2042   -2.4143   -0.1475 O.2     1  UNL1       -0.1246
     10 C           0.0198    2.4744   -0.2049 C.ar    1  UNL1        0.1689
     11 N           0.7683    2.6716    0.8557 N.ar    1  UNL1       -0.1365
     12 N           1.3665    3.9056    0.8315 N.ar    1  UNL1       -0.1254
     13 C           1.0825    4.6208   -0.2437 C.ar    1  UNL1        0.1845
     14 S           0.0652    3.7498   -1.3413 S.2     1  UNL1       -0.0276
     15 N           1.5064    5.9104   -0.4284 N.pl3   1  UNL1       -0.3081
     16 C           2.5677    6.3686    0.4702 C.3     1  UNL1        0.0154
     17 C           2.4459    7.8674    0.6813 C.3     1  UNL1       -0.0214
     18 C           2.4424    8.6819   -0.6258 C.3     1  UNL1        0.0133
     19 C           1.4055    8.0778   -1.5944 C.3     1  UNL1       -0.0214
     20 C           1.4553    6.5550   -1.7394 C.3     1  UNL1        0.0154
     21 N           3.7551    9.0198   -1.2370 N.3     1  UNL1       -0.2993
     22 C           4.6031    9.7878   -0.3079 C.3     1  UNL1       -0.0008
     23 C           5.9083   10.2630   -0.9446 C.3     1  UNL1       -0.0402
     24 C           6.6805    9.0880   -1.5213 C.3     1  UNL1       -0.0507
     25 C           5.8003    8.3604   -2.5246 C.3     1  UNL1       -0.0402
     26 C           4.4784    7.9274   -1.8878 C.3     1  UNL1       -0.0008
     27 H          -2.2721    0.7647    2.4227 H       1  UNL1        0.0457
     28 H          -0.6636   -0.0529    2.4908 H       1  UNL1        0.0457
     29 H          -0.8008    1.7066    2.2593 H       1  UNL1        0.0457
     30 H          -2.1907   -0.9127   -2.2044 H       1  UNL1        0.0869
     31 H           3.5451    6.0769    0.0794 H       1  UNL1        0.0465
     32 H           2.4926    5.9042    1.4613 H       1  UNL1        0.0465
     33 H           3.2119    8.2071    1.3837 H       1  UNL1        0.0295
     34 H           1.4903    8.0542    1.1914 H       1  UNL1        0.0295
     35 H           2.0195    9.6620   -0.3573 H       1  UNL1        0.0463
     36 H           0.4087    8.3333   -1.2045 H       1  UNL1        0.0295
     37 H           1.4660    8.5565   -2.5791 H       1  UNL1        0.0295
     38 H           0.5548    6.2717   -2.2963 H       1  UNL1        0.0465
     39 H           2.3044    6.2284   -2.3453 H       1  UNL1        0.0465
     40 H           4.8610    9.1897    0.5724 H       1  UNL1        0.0427
     41 H           4.0579   10.6724    0.0431 H       1  UNL1        0.0427
     42 H           6.5192   10.7725   -0.1906 H       1  UNL1        0.0278
     43 H           5.6943   10.9931   -1.7349 H       1  UNL1        0.0278
     44 H           7.6002    9.4338   -2.0036 H       1  UNL1        0.0266
     45 H           6.9720    8.4012   -0.7168 H       1  UNL1        0.0266
     46 H           5.6019    9.0118   -3.3840 H       1  UNL1        0.0278
     47 H           6.3269    7.4770   -2.9060 H       1  UNL1        0.0278
     48 H           3.8774    7.5127   -2.6995 H       1  UNL1        0.0427
     49 H           4.7046    7.1279   -1.1805 H       1  UNL1        0.0427
@<TRIPOS>BOND
     1     1    27    1
     2     1    28    1
     3     1    29    1
     4     2     1    1
     5     3     2   ar
     6     4     3   ar
     7     5     4   ar
     8     5    30    1
     9     6     5   ar
    10     6     2   ar
    11     7     6    1
    12     8     7    2
    13     9     7    2
    14    10     3    1
    15    11    10   ar
    16    12    11   ar
    17    13    12   ar
    18    14    13   ar
    19    14    10   ar
    20    15    13    1
    21    16    15    1
    22    16    31    1
    23    16    32    1
    24    17    16    1
    25    17    33    1
    26    17    34    1
    27    18    17    1
    28    18    35    1
    29    19    18    1
    30    19    36    1
    31    19    37    1
    32    20    19    1
    33    20    15    1
    34    20    38    1
    35    20    39    1
    36    21    18    1
    37    22    21    1
    38    22    40    1
    39    22    41    1
    40    23    22    1
    41    23    42    1
    42    23    43    1
    43    24    23    1
    44    24    44    1
    45    24    45    1
    46    25    24    1
    47    25    46    1
    48    25    47    1
    49    26    25    1
    50    26    21    1
    51    26    48    1
    52    26    49    1
