@<TRIPOS>MOLECULE
>147.sdf
 48 51 0 0 0
SMALL
GASTEIGER

@<TRIPOS>ATOM
      1 C          -2.4240   -0.0655   -0.0849 C.3     1  UNL1       -0.0431
      2 N          -0.9514   -0.0345    0.2294 N.4     1  UNL1        0.2331
      3 C          -0.3069    1.2427   -0.2462 C.3     1  UNL1       -0.0315
      4 C           1.1429    1.2853    0.2127 C.3     1  UNL1       -0.0042
      5 C           1.9399    0.0414   -0.2185 C.3     1  UNL1        0.0089
      6 C           1.2018   -1.2429    0.1919 C.3     1  UNL1       -0.0042
      7 C          -0.2385   -1.2542   -0.2945 C.3     1  UNL1       -0.0315
      8 C           3.3160    0.0712    0.3922 C.ar    1  UNL1        0.0205
      9 C           3.6900    0.1307    1.7164 C.ar    1  UNL1       -0.0326
     10 C           5.1091    0.1654    1.7934 C.ar    1  UNL1        0.0077
     11 C           5.5930    0.0888    0.4846 C.ar    1  UNL1        0.0545
     12 N           4.4820    0.0422   -0.3460 N.ar    1  UNL1       -0.3572
     13 C           6.9645    0.0517   -0.0595 C.ar    1  UNL1       -0.0009
     14 C           7.9751   -0.6731    0.5956 C.ar    1  UNL1       -0.0499
     15 C           9.3088   -0.5758    0.1923 C.ar    1  UNL1       -0.0258
     16 C           9.6314    0.1962   -0.9148 C.ar    1  UNL1        0.1234
     17 F          10.9099    0.3056   -1.2936 F       1  UNL1       -0.2055
     18 C           8.6435    0.8643   -1.6260 C.ar    1  UNL1       -0.0258
     19 C           7.3140    0.8002   -1.1956 C.ar    1  UNL1       -0.0499
     20 C           5.9064    0.2378    3.0189 C.ar    1  UNL1       -0.0130
     21 C           5.4956   -0.4710    4.1524 C.ar    1  UNL1       -0.0358
     22 C           6.2882   -0.4314    5.2879 C.ar    1  UNL1        0.0281
     23 N           7.4518    0.2450    5.3638 N.ar    1  UNL1       -0.2632
     24 C           7.8222    0.9396    4.2700 C.ar    1  UNL1        0.0281
     25 C           7.0777    0.9925    3.1020 C.ar    1  UNL1       -0.0358
     26 H          -2.8398   -0.9907    0.3233 H       1  UNL1        0.0777
     27 H          -2.8920    0.7960    0.3994 H       1  UNL1        0.0777
     28 H          -2.5512   -0.0231   -1.1698 H       1  UNL1        0.0777
     29 H          -0.8795   -0.0531    1.2573 H       1  UNL1        0.2030
     30 H          -0.3922    1.2752   -1.3375 H       1  UNL1        0.0814
     31 H          -0.8692    2.0748    0.1882 H       1  UNL1        0.0814
     32 H           1.6205    2.1900   -0.1836 H       1  UNL1        0.0323
     33 H           1.1557    1.3872    1.3065 H       1  UNL1        0.0323
     34 H           2.0293    0.0534   -1.3123 H       1  UNL1        0.0367
     35 H           1.7264   -2.1197   -0.2062 H       1  UNL1        0.0323
     36 H           1.2043   -1.3529    1.2851 H       1  UNL1        0.0323
     37 H          -0.7667   -2.1342    0.0864 H       1  UNL1        0.0814
     38 H          -0.3041   -1.2358   -1.3904 H       1  UNL1        0.0814
     39 H           3.0112    0.1658    2.5619 H       1  UNL1        0.0642
     40 H           4.5389   -0.0289   -1.3522 H       1  UNL1        0.1656
     41 H           7.7434   -1.2855    1.4659 H       1  UNL1        0.0625
     42 H          10.0935   -1.0835    0.7446 H       1  UNL1        0.0646
     43 H           8.9219    1.4554   -2.4947 H       1  UNL1        0.0646
     44 H           6.5677    1.3744   -1.7387 H       1  UNL1        0.0625
     45 H           4.5850   -1.0590    4.1621 H       1  UNL1        0.0639
     46 H           6.0048   -0.9652    6.1901 H       1  UNL1        0.0830
     47 H           8.7704    1.4642    4.3513 H       1  UNL1        0.0830
     48 H           7.4357    1.5898    2.2719 H       1  UNL1        0.0639
@<TRIPOS>UNITY_ATOM_ATTR
2 1
charge 1
@<TRIPOS>BOND
     1     1    26    1
     2     1    27    1
     3     1    28    1
     4     2     1    1
     5     2    29    1
     6     3     2    1
     7     3    30    1
     8     3    31    1
     9     4     3    1
    10     4    32    1
    11     4    33    1
    12     5     4    1
    13     5    34    1
    14     6     5    1
    15     6    35    1
    16     6    36    1
    17     7     6    1
    18     7     2    1
    19     7    37    1
    20     7    38    1
    21     8     5    1
    22     9     8   ar
    23     9    39    1
    24    10     9   ar
    25    11    10   ar
    26    12    11   ar
    27    12     8   ar
    28    12    40    1
    29    13    11    1
    30    14    13   ar
    31    14    41    1
    32    15    14   ar
    33    15    42    1
    34    16    15   ar
    35    17    16    1
    36    18    16   ar
    37    18    43    1
    38    19    18   ar
    39    19    13   ar
    40    19    44    1
    41    20    10    1
    42    21    20   ar
    43    21    45    1
    44    22    21   ar
    45    22    46    1
    46    23    22   ar
    47    24    23   ar
    48    24    47    1
    49    25    24   ar
    50    25    20   ar
    51    25    48    1
