@<TRIPOS>MOLECULE
>66.sdf
 39 41 0 0 0
SMALL
GASTEIGER

@<TRIPOS>ATOM
      1 C           0.9913   -0.3022   -0.1910 C.3     1  UNL1        0.0790
      2 O           2.3466    0.1204   -0.0700 O.3     1  UNL1       -0.4913
      3 C           3.0411   -0.2953    1.0364 C.ar    1  UNL1        0.1658
      4 C           2.6696   -1.4304    1.7674 C.ar    1  UNL1       -0.0053
      5 C           3.4480   -1.9107    2.8303 C.ar    1  UNL1        0.0271
      6 C           4.6155   -1.2245    3.1724 C.ar    1  UNL1       -0.0053
      7 C           5.0184   -0.0993    2.4451 C.ar    1  UNL1        0.1658
      8 O           6.1649    0.6037    2.7400 O.3     1  UNL1       -0.4913
      9 C           7.2460   -0.1704    3.2522 C.3     1  UNL1        0.0790
     10 C           4.2199    0.3887    1.3862 C.ar    1  UNL1        0.2035
     11 O           4.7361    1.4818    0.7288 O.3     1  UNL1       -0.4885
     12 C           3.8028    2.3878    0.1555 C.3     1  UNL1        0.0791
     13 C           3.0942   -3.1544    3.4947 C.ar    1  UNL1        0.1681
     14 C           3.7914   -4.0981    4.2096 C.ar    1  UNL1        0.0161
     15 C           2.8509   -5.1200    4.4504 C.ar    1  UNL1        0.1489
     16 N           1.6435   -4.8075    3.9669 N.ar    1  UNL1       -0.0745
     17 O           1.7986   -3.5664    3.3735 O.2     1  UNL1       -0.3540
     18 C           3.1413   -6.4038    5.1378 C.ar    1  UNL1        0.1592
     19 C           2.2579   -7.4535    5.3282 C.ar    1  UNL1       -0.0118
     20 C           2.9563   -8.4589    6.0431 C.ar    1  UNL1        0.0086
     21 C           4.2144   -7.9522    6.2384 C.ar    1  UNL1        0.2803
     22 O           4.3562   -6.7196    5.6840 O.2     1  UNL1       -0.4323
     23 N           5.3612   -8.4717    6.9138 N.pl3   1  UNL1        0.0926
     24 O           5.2113   -9.5589    7.4841 O.2     1  UNL1       -0.1231
     25 O           6.4057   -7.8059    6.8819 O.2     1  UNL1       -0.1231
     26 H           0.9182   -1.3808   -0.3547 H       1  UNL1        0.0660
     27 H           0.4061    0.0097    0.6798 H       1  UNL1        0.0660
     28 H           0.5689    0.1868   -1.0745 H       1  UNL1        0.0660
     29 H           1.7879   -1.9988    1.4876 H       1  UNL1        0.0662
     30 H           5.2084   -1.5698    4.0144 H       1  UNL1        0.0662
     31 H           7.1043   -0.3724    4.3185 H       1  UNL1        0.0660
     32 H           7.3816   -1.1030    2.6928 H       1  UNL1        0.0660
     33 H           8.1616    0.4184    3.1443 H       1  UNL1        0.0660
     34 H           3.5150    2.0605   -0.8480 H       1  UNL1        0.0660
     35 H           2.9280    2.5453    0.7958 H       1  UNL1        0.0660
     36 H           4.3054    3.3540    0.0436 H       1  UNL1        0.0660
     37 H           4.8402   -4.0894    4.4665 H       1  UNL1        0.0679
     38 H           1.2290   -7.4793    4.9908 H       1  UNL1        0.0657
     39 H           2.5864   -9.4174    6.3809 H       1  UNL1        0.0673
@<TRIPOS>BOND
     1     1    26    1
     2     1    27    1
     3     1    28    1
     4     2     1    1
     5     3     2    1
     6     4     3   ar
     7     4    29    1
     8     5     4   ar
     9     6     5   ar
    10     6    30    1
    11     7     6   ar
    12     8     7    1
    13     9     8    1
    14     9    31    1
    15     9    32    1
    16     9    33    1
    17    10     7   ar
    18    10     3   ar
    19    11    10    1
    20    12    11    1
    21    12    34    1
    22    12    35    1
    23    12    36    1
    24    13     5    1
    25    14    13   ar
    26    14    37    1
    27    15    14   ar
    28    16    15   ar
    29    17    16   ar
    30    17    13   ar
    31    18    15    1
    32    19    18   ar
    33    19    38    1
    34    20    19   ar
    35    20    39    1
    36    21    20   ar
    37    22    21   ar
    38    22    18   ar
    39    23    21    1
    40    24    23    2
    41    25    23    2
