@<TRIPOS>MOLECULE
>131.sdf
 53 57 0 0 0
SMALL
GASTEIGER

@<TRIPOS>ATOM
      1 F           2.0807   -0.1599    0.0138 F       1  UNL1       -0.2048
      2 C           0.7482   -0.0196    0.0397 C.ar    1  UNL1        0.1327
      3 C           0.1536    1.2399    0.0805 C.ar    1  UNL1        0.0374
      4 C          -1.2447    1.3375    0.1234 C.ar    1  UNL1       -0.0285
      5 C          -2.0400    0.1942    0.0910 C.ar    1  UNL1        0.0356
      6 N          -3.4505    0.2364    0.0751 N.am    1  UNL1       -0.2693
      7 C          -4.2384    1.3399   -0.1658 C.2     1  UNL1        0.3064
      8 O          -3.8126    2.4577   -0.4439 O.2     1  UNL1       -0.2523
      9 N          -5.5940    1.1123   -0.1070 N.am    1  UNL1       -0.2854
     10 C          -6.3244   -0.1038    0.2018 C.3     1  UNL1        0.0162
     11 C          -7.6723    0.1206   -0.4589 C.3     1  UNL1       -0.0357
     12 C          -7.9058    1.6177   -0.2982 C.3     1  UNL1       -0.0357
     13 C          -6.5087    2.2241   -0.3056 C.3     1  UNL1        0.0162
     14 C          -1.4288   -1.0639    0.0677 C.ar    1  UNL1       -0.0377
     15 C          -0.0337   -1.1702    0.0368 C.ar    1  UNL1       -0.0240
     16 C           0.9308    2.5035    0.0603 C.ar    1  UNL1        0.0790
     17 N           0.5119    3.5157    0.7661 N.ar    1  UNL1       -0.2117
     18 C           1.2251    4.6792    0.6811 C.ar    1  UNL1        0.2367
     19 N           0.9683    5.8466    1.2334 N.ar    1  UNL1       -0.2168
     20 C           1.9803    6.6809    0.8331 C.ar    1  UNL1        0.0700
     21 C           2.9094    6.0239    0.0518 C.ar    1  UNL1        0.1269
     22 N           2.3735    4.7520   -0.1025 N.ar    1  UNL1       -0.2719
     23 C           2.7838    3.6842   -0.8913 C.ar    1  UNL1        0.0164
     24 C           2.1203    2.5239   -0.8494 C.ar    1  UNL1       -0.0189
     25 N           4.0569    6.4271   -0.5705 N.pl3   1  UNL1       -0.3106
     26 C           4.3224    7.8494   -0.8379 C.3     1  UNL1        0.0370
     27 C           5.1478    7.9401   -2.1382 C.3     1  UNL1        0.0634
     28 O           6.3554    7.1532   -2.0773 O.3     1  UNL1       -0.3767
     29 C           6.0555    5.7769   -1.7778 C.3     1  UNL1        0.0634
     30 C           5.3116    5.6636   -0.4394 C.3     1  UNL1        0.0370
     31 H          -1.6827    2.3338    0.1777 H       1  UNL1        0.0643
     32 H          -3.9211   -0.6505    0.1092 H       1  UNL1        0.1564
     33 H          -6.4152   -0.1671    1.2919 H       1  UNL1        0.0465
     34 H          -5.8288   -1.0006   -0.1736 H       1  UNL1        0.0465
     35 H          -7.6063   -0.1276   -1.5257 H       1  UNL1        0.0281
     36 H          -8.4665   -0.4848   -0.0154 H       1  UNL1        0.0281
     37 H          -8.5323    2.0267   -1.0969 H       1  UNL1        0.0281
     38 H          -8.4020    1.8239    0.6563 H       1  UNL1        0.0281
     39 H          -6.2769    2.7268   -1.2508 H       1  UNL1        0.0465
     40 H          -6.3819    2.9433    0.5124 H       1  UNL1        0.0465
     41 H          -2.0210   -1.9738    0.0581 H       1  UNL1        0.0637
     42 H           0.4472   -2.1443    0.0055 H       1  UNL1        0.0647
     43 H           1.9981    7.7146    1.1521 H       1  UNL1        0.0865
     44 H           3.6329    3.8320   -1.5403 H       1  UNL1        0.0815
     45 H           2.3973    1.6708   -1.4489 H       1  UNL1        0.0654
     46 H           4.8923    8.2763   -0.0027 H       1  UNL1        0.0487
     47 H           3.3981    8.4250   -0.9556 H       1  UNL1        0.0487
     48 H           4.5529    7.5991   -2.9944 H       1  UNL1        0.0575
     49 H           5.4404    8.9778   -2.3243 H       1  UNL1        0.0575
     50 H           6.9994    5.2259   -1.7345 H       1  UNL1        0.0575
     51 H           5.4572    5.3569   -2.5966 H       1  UNL1        0.0575
     52 H           5.9172    6.1036    0.3628 H       1  UNL1        0.0487
     53 H           5.1567    4.6135   -0.1776 H       1  UNL1        0.0487
@<TRIPOS>BOND
     1     2     1    1
     2     3     2   ar
     3     4     3   ar
     4     4    31    1
     5     5     4   ar
     6     6     5    1
     7     6    32    1
     8     7     6   am
     9     8     7    2
    10     9     7   am
    11    10     9    1
    12    10    33    1
    13    10    34    1
    14    11    10    1
    15    11    35    1
    16    11    36    1
    17    12    11    1
    18    12    37    1
    19    12    38    1
    20    13    12    1
    21    13     9    1
    22    13    39    1
    23    13    40    1
    24    14     5   ar
    25    14    41    1
    26    15    14   ar
    27    15     2   ar
    28    15    42    1
    29    16     3    1
    30    17    16   ar
    31    18    17   ar
    32    19    18   ar
    33    20    19   ar
    34    20    43    1
    35    21    20   ar
    36    22    21   ar
    37    22    18   ar
    38    23    22   ar
    39    23    44    1
    40    24    23   ar
    41    24    16   ar
    42    24    45    1
    43    25    21    1
    44    26    25    1
    45    26    46    1
    46    26    47    1
    47    27    26    1
    48    27    48    1
    49    27    49    1
    50    28    27    1
    51    29    28    1
    52    29    50    1
    53    29    51    1
    54    30    29    1
    55    30    25    1
    56    30    52    1
    57    30    53    1
