@<TRIPOS>MOLECULE
>79.sdf
 53 56 0 0 0
SMALL
GASTEIGER

@<TRIPOS>ATOM
      1 C           0.9981   -3.1683   -0.9689 C.3     1  UNL1       -0.0248
      2 C           1.4900   -1.7223   -0.7812 C.3     1  UNL1        0.1121
      3 C           2.9915   -1.7555   -0.4605 C.3     1  UNL1       -0.0248
      4 C           1.2902   -0.8759   -2.0391 C.3     1  UNL1        0.0499
      5 C          -0.1744   -0.6736   -2.2778 C.2     1  UNL1        0.1704
      6 O          -0.6631   -0.6152   -3.3982 O.2     1  UNL1       -0.2918
      7 C          -0.9959   -0.4643   -1.0729 C.ar    1  UNL1        0.0595
      8 C          -2.3158   -0.0047   -1.2065 C.ar    1  UNL1       -0.0431
      9 C          -3.0961    0.2575   -0.0720 C.ar    1  UNL1       -0.0294
     10 C          -4.5231    0.7608   -0.1685 C.3     1  UNL1        0.0371
     11 N          -4.6440    2.2099   -0.1676 N.am    1  UNL1       -0.3077
     12 C          -5.3801    2.8695    0.7914 C.2     1  UNL1        0.2372
     13 O          -5.9523    2.3230    1.7236 O.2     1  UNL1       -0.2708
     14 C          -5.4095    4.3479    0.5926 C.2     1  UNL1        0.0001
     15 C          -6.0706    5.1364    1.4540 C.2     1  UNL1       -0.0568
     16 C          -6.1450    6.5817    1.3277 C.2     1  UNL1       -0.0610
     17 C          -6.8022    7.3667    2.1841 C.2     1  UNL1       -0.0545
     18 C          -6.8801    8.8376    2.0611 C.ar    1  UNL1       -0.0213
     19 C          -6.8384    9.4708    0.8093 C.ar    1  UNL1       -0.0090
     20 C          -6.8935   10.8482    0.7684 C.ar    1  UNL1        0.1668
     21 C          -7.0119   11.6044    1.9094 C.ar    1  UNL1        0.1663
     22 O          -7.0322   12.9381    1.6477 O.3     1  UNL1       -0.4526
     23 C          -6.8469   12.9357    0.2163 C.3     1  UNL1        0.2332
     24 O          -6.8332   11.6123   -0.3562 O.3     1  UNL1       -0.4526
     25 C          -7.0943   11.0233    3.1530 C.ar    1  UNL1       -0.0156
     26 C          -7.0330    9.6239    3.2257 C.ar    1  UNL1       -0.0509
     27 C          -2.5177    0.0243    1.1879 C.ar    1  UNL1       -0.0536
     28 C          -1.1983   -0.4420    1.3130 C.ar    1  UNL1       -0.0189
     29 C          -0.4297   -0.6919    0.1753 C.ar    1  UNL1        0.1318
     30 O           0.8480   -1.1391    0.3717 O.3     1  UNL1       -0.4851
     31 H           1.1914   -3.7624   -0.0688 H       1  UNL1        0.0268
     32 H          -0.0831   -3.2163   -1.1364 H       1  UNL1        0.0268
     33 H           1.4925   -3.6515   -1.8183 H       1  UNL1        0.0268
     34 H           3.3716   -0.7447   -0.2711 H       1  UNL1        0.0268
     35 H           3.1861   -2.3345    0.4491 H       1  UNL1        0.0268
     36 H           3.5699   -2.1931   -1.2815 H       1  UNL1        0.0268
     37 H           1.7316   -1.3623   -2.9164 H       1  UNL1        0.0384
     38 H           1.7361    0.1210   -1.9313 H       1  UNL1        0.0384
     39 H          -2.7035    0.1452   -2.2129 H       1  UNL1        0.0629
     40 H          -4.9918    0.3808   -1.0866 H       1  UNL1        0.0512
     41 H          -5.0997    0.3546    0.6727 H       1  UNL1        0.0512
     42 H          -4.2288    2.7342   -0.9226 H       1  UNL1        0.1493
     43 H          -4.8824    4.7583   -0.2596 H       1  UNL1        0.0669
     44 H          -6.5900    4.6892    2.3023 H       1  UNL1        0.0619
     45 H          -5.6170    7.0204    0.4804 H       1  UNL1        0.0618
     46 H          -7.3106    6.9432    3.0529 H       1  UNL1        0.0623
     47 H          -6.7618    8.9096   -0.1140 H       1  UNL1        0.0661
     48 H          -7.6553   13.5135   -0.2456 H       1  UNL1        0.1166
     49 H          -5.8921   13.4236   -0.0138 H       1  UNL1        0.1166
     50 H          -7.1977   11.6292    4.0472 H       1  UNL1        0.0655
     51 H          -7.0888    9.1498    4.2044 H       1  UNL1        0.0625
     52 H          -3.0982    0.2067    2.0920 H       1  UNL1        0.0622
     53 H          -0.7781   -0.6105    2.3008 H       1  UNL1        0.0654
@<TRIPOS>BOND
     1     1    31    1
     2     1    32    1
     3     1    33    1
     4     2     1    1
     5     3     2    1
     6     3    34    1
     7     3    35    1
     8     3    36    1
     9     4     2    1
    10     4    37    1
    11     4    38    1
    12     5     4    1
    13     6     5    2
    14     7     5    1
    15     8     7   ar
    16     8    39    1
    17     9     8   ar
    18    10     9    1
    19    10    40    1
    20    10    41    1
    21    11    10    1
    22    11    42    1
    23    12    11   am
    24    13    12    2
    25    14    12    1
    26    14    43    1
    27    15    14    2
    28    15    44    1
    29    16    15    1
    30    16    45    1
    31    17    16    2
    32    17    46    1
    33    18    17    1
    34    19    18   ar
    35    19    47    1
    36    20    19   ar
    37    21    20   ar
    38    22    21    1
    39    23    22    1
    40    23    48    1
    41    23    49    1
    42    24    23    1
    43    24    20    1
    44    25    21   ar
    45    25    50    1
    46    26    25   ar
    47    26    18   ar
    48    26    51    1
    49    27     9   ar
    50    27    52    1
    51    28    27   ar
    52    28    53    1
    53    29    28   ar
    54    29     7   ar
    55    30    29    1
    56    30     2    1
