@<TRIPOS>MOLECULE
>142_2.sdf
 45 48 0 0 0
SMALL
GASTEIGER

@<TRIPOS>ATOM
      1 C           3.1771   -0.5469    0.8801 C.3     1  UNL1        0.0790
      2 O           2.4716    0.2939   -0.0317 O.3     1  UNL1       -0.4914
      3 C           3.2029    0.7863   -1.0922 C.ar    1  UNL1        0.1632
      4 C           2.7361    1.9684   -1.7245 C.ar    1  UNL1        0.1798
      5 O           1.5825    2.4567   -1.1662 O.3     1  UNL1       -0.4901
      6 C           0.9975    3.6530   -1.6454 C.3     1  UNL1        0.0790
      7 C           3.4810    2.4847   -2.8012 C.ar    1  UNL1        0.0864
      8 CL          3.1202    3.9119   -3.7128 Cl      1  UNL1       -0.0796
      9 C           4.6410    1.8278   -3.2332 C.ar    1  UNL1       -0.0355
     10 C           5.0786    0.6483   -2.6281 C.ar    1  UNL1       -0.0295
     11 C           4.3462    0.1324   -1.5585 C.ar    1  UNL1       -0.0121
     12 C           6.3062   -0.0708   -3.1600 C.3     1  UNL1        0.0562
     13 C           5.9435   -1.4648   -3.5797 C.2     1  UNL1        0.0981
     14 C           5.1070   -1.5014   -4.8483 C.1     1  UNL1        0.1008
     15 N           4.4130   -1.5317   -5.9007 N.1     1  UNL1       -0.1910
     16 C           6.4484   -2.5615   -2.9879 C.2     1  UNL1        0.1987
     17 N           6.2170   -3.8537   -3.3812 N.pl3   1  UNL1       -0.3284
     18 O           7.3114   -2.4310   -1.8919 O.2     1  UNL1       -0.4370
     19 C           7.8771   -1.1865   -1.6080 C.2     1  UNL1        0.1848
     20 C           7.4456   -0.0619   -2.1946 C.2     1  UNL1        0.0585
     21 C           8.1111    1.2387   -2.0077 C.2     1  UNL1        0.1944
     22 O           7.7702    2.2300   -2.6372 O.2     1  UNL1       -0.2868
     23 C           9.2413    1.3004   -1.0779 C.ar    1  UNL1        0.0330
     24 C           9.6730    0.1574   -0.4098 C.ar    1  UNL1        0.0362
     25 C          10.7632    0.2500    0.4611 C.ar    1  UNL1       -0.0501
     26 C          11.4074    1.4763    0.6475 C.ar    1  UNL1       -0.0610
     27 C          10.9705    2.6151   -0.0267 C.ar    1  UNL1       -0.0610
     28 C           9.8816    2.5290   -0.8916 C.ar    1  UNL1       -0.0502
     29 C           9.0024   -1.1514   -0.6325 C.2     1  UNL1        0.2291
     30 O           9.3698   -2.1475   -0.0261 O.2     1  UNL1       -0.2833
     31 H           3.3806   -1.5288    0.4382 H       1  UNL1        0.0660
     32 H           4.1055   -0.0731    1.2201 H       1  UNL1        0.0660
     33 H           2.5442   -0.7116    1.7562 H       1  UNL1        0.0660
     34 H           1.6703    4.5044   -1.5056 H       1  UNL1        0.0660
     35 H           0.6620    3.5440   -2.6811 H       1  UNL1        0.0660
     36 H           0.1052    3.8539   -1.0455 H       1  UNL1        0.0660
     37 H           5.2129    2.2459   -4.0625 H       1  UNL1        0.0636
     38 H           4.6672   -0.8035   -1.1120 H       1  UNL1        0.0658
     39 H           6.6544    0.4412   -4.0710 H       1  UNL1        0.0457
     40 H           6.3606   -4.5366   -2.6416 H       1  UNL1        0.1451
     41 H           5.3862   -4.0210   -3.9431 H       1  UNL1        0.1451
     42 H          11.1203   -0.6297    0.9928 H       1  UNL1        0.0625
     43 H          12.2569    1.5455    1.3207 H       1  UNL1        0.0618
     44 H          11.4738    3.5693    0.1130 H       1  UNL1        0.0618
     45 H           9.5403    3.4174   -1.4194 H       1  UNL1        0.0625
@<TRIPOS>BOND
     1     1    31    1
     2     1    32    1
     3     1    33    1
     4     2     1    1
     5     3     2    1
     6     4     3   ar
     7     5     4    1
     8     6     5    1
     9     6    34    1
    10     6    35    1
    11     6    36    1
    12     7     4   ar
    13     8     7    1
    14     9     7   ar
    15     9    37    1
    16    10     9   ar
    17    11    10   ar
    18    11     3   ar
    19    11    38    1
    20    12    10    1
    21    12    39    1
    22    13    12    1
    23    14    13    1
    24    15    14    3
    25    16    13    2
    26    17    16    1
    27    17    40    1
    28    17    41    1
    29    18    16    1
    30    19    18    1
    31    20    19    2
    32    20    12    1
    33    21    20    1
    34    22    21    2
    35    23    21    1
    36    24    23   ar
    37    25    24   ar
    38    25    42    1
    39    26    25   ar
    40    26    43    1
    41    27    26   ar
    42    27    44    1
    43    28    27   ar
    44    28    23   ar
    45    28    45    1
    46    29    24    1
    47    29    19    1
    48    30    29    2
