@<TRIPOS>MOLECULE
>101.sdf
 39 42 0 0 0
SMALL
GASTEIGER

@<TRIPOS>ATOM
      1 C           1.0803    0.6819    0.3913 C.3     1  UNL1       -0.0612
      2 C           2.4897    0.1821    0.0983 C.3     1  UNL1       -0.0284
      3 C           3.0065   -0.6735    1.2302 C.ar    1  UNL1       -0.0143
      4 C           2.8911   -2.0572    1.2848 C.ar    1  UNL1        0.1114
      5 C           2.3108   -2.8343    0.1178 C.3     1  UNL1       -0.0073
      6 C           2.2901   -4.3499    0.2760 C.3     1  UNL1       -0.0596
      7 N           3.2656   -2.7575    2.3782 N.ar    1  UNL1        0.0049
      8 N           3.7667   -2.1297    3.4573 N.ar    1  UNL1       -0.0396
      9 C           3.9584   -0.7896    3.4440 C.ar    1  UNL1        0.2647
     10 C           3.5736   -0.0461    2.3307 C.ar    1  UNL1        0.0197
     11 C           4.5311   -0.1507    4.6192 C.ar    1  UNL1        0.1224
     12 C           4.8641    1.1722    4.8470 C.ar    1  UNL1       -0.0288
     13 C           5.3624    1.2648    6.1547 C.ar    1  UNL1       -0.0286
     14 C           5.3334    0.0011    6.7032 C.ar    1  UNL1        0.0908
     15 BR          5.9316   -0.2478    8.4615 Br      1  UNL1       -0.0302
     16 N           4.8304   -0.8833    5.7626 N.ar    1  UNL1       -0.2924
     17 C           4.5947   -2.2852    5.7989 C.ar    1  UNL1        0.1237
     18 C           4.0734   -2.9013    4.6448 C.ar    1  UNL1        0.2644
     19 C           3.8064   -4.2807    4.6224 C.ar    1  UNL1        0.0161
     20 C           4.0607   -5.0517    5.7583 C.ar    1  UNL1       -0.0369
     21 C           4.5809   -4.4502    6.8995 C.ar    1  UNL1        0.0434
     22 CL          4.8881   -5.4008    8.2974 Cl      1  UNL1       -0.0835
     23 C           4.8484   -3.0767    6.9250 C.ar    1  UNL1       -0.0129
     24 H           0.6811    1.2243   -0.4714 H       1  UNL1        0.0233
     25 H           0.3999   -0.1449    0.6210 H       1  UNL1        0.0233
     26 H           1.0747    1.3645    1.2484 H       1  UNL1        0.0233
     27 H           2.5081   -0.3610   -0.8512 H       1  UNL1        0.0311
     28 H           3.1562    1.0427   -0.0426 H       1  UNL1        0.0311
     29 H           1.2834   -2.4918   -0.0503 H       1  UNL1        0.0327
     30 H           2.8948   -2.6027   -0.7812 H       1  UNL1        0.0327
     31 H           3.3054   -4.7557    0.3391 H       1  UNL1        0.0233
     32 H           1.7414   -4.6548    1.1731 H       1  UNL1        0.0233
     33 H           1.8000   -4.8085   -0.5896 H       1  UNL1        0.0233
     34 H           3.6877    1.0365    2.3236 H       1  UNL1        0.0688
     35 H           4.7621    2.0029    4.1566 H       1  UNL1        0.0641
     36 H           5.7091    2.1655    6.6521 H       1  UNL1        0.0644
     37 H           3.3953   -4.7753    3.7464 H       1  UNL1        0.0685
     38 H           3.8491   -6.1204    5.7510 H       1  UNL1        0.0634
     39 H           5.2470   -2.6850    7.8501 H       1  UNL1        0.0655
@<TRIPOS>UNITY_ATOM_ATTR
8 1
charge 1
@<TRIPOS>BOND
     1     1    24    1
     2     1    25    1
     3     1    26    1
     4     2     1    1
     5     2    27    1
     6     2    28    1
     7     3     2    1
     8     4     3   ar
     9     5     4    1
    10     5    29    1
    11     5    30    1
    12     6     5    1
    13     6    31    1
    14     6    32    1
    15     6    33    1
    16     7     4   ar
    17     8     7   ar
    18     9     8   ar
    19    10     9   ar
    20    10     3   ar
    21    10    34    1
    22    11     9   ar
    23    12    11   ar
    24    12    35    1
    25    13    12   ar
    26    13    36    1
    27    14    13   ar
    28    15    14    1
    29    16    14   ar
    30    16    11   ar
    31    17    16   ar
    32    18    17   ar
    33    18     8   ar
    34    19    18   ar
    35    19    37    1
    36    20    19   ar
    37    20    38    1
    38    21    20   ar
    39    22    21    1
    40    23    21   ar
    41    23    17   ar
    42    23    39    1
