@<TRIPOS>MOLECULE
>97.sdf
 40 43 0 0 0
SMALL
GASTEIGER

@<TRIPOS>ATOM
      1 F          -0.0088    4.9914    1.1130 F       1  UNL1       -0.2051
      2 C           1.1369    4.3028    1.0191 C.ar    1  UNL1        0.1295
      3 C           1.1472    2.9839    0.5451 C.ar    1  UNL1        0.0238
      4 C          -0.0929    2.2667    0.0505 C.3     1  UNL1        0.0526
      5 N          -1.3254    3.0232    0.0735 N.am    1  UNL1       -0.2238
      6 C          -2.1408    3.0074    1.1722 C.2     1  UNL1        0.2861
      7 O          -1.9704    2.3879    2.2104 O.2     1  UNL1       -0.2620
      8 S          -3.5375    4.0285    0.8959 S.3     1  UNL1       -0.0258
      9 C          -2.9406    4.5643   -0.6292 C.2     1  UNL1        0.0798
     10 C          -3.4587    5.5242   -1.4097 C.2     1  UNL1       -0.0336
     11 C          -4.6173    6.2919   -1.0970 C.ar    1  UNL1        0.0034
     12 C          -5.8909    5.9148   -1.4570 C.ar    1  UNL1        0.0100
     13 N          -6.7612    6.8185   -0.9107 N.ar    1  UNL1       -0.3600
     14 C          -6.0711    7.7776   -0.2031 C.ar    1  UNL1        0.0492
     15 C          -4.7037    7.5004   -0.3375 C.ar    1  UNL1        0.0370
     16 C          -3.8154    8.3926    0.3015 C.ar    1  UNL1        0.1359
     17 C          -4.2693    9.4828    1.0620 C.ar    1  UNL1       -0.0307
     18 C          -5.6370    9.7007    1.1826 C.ar    1  UNL1       -0.0576
     19 C          -6.5584    8.8604    0.5472 C.ar    1  UNL1       -0.0376
     20 N          -2.3907    8.1963    0.1582 N.pl3   1  UNL1        0.0571
     21 O          -1.9246    8.2188   -0.9894 O.2     1  UNL1       -0.1261
     22 O          -1.7314    8.0747    1.1989 O.2     1  UNL1       -0.1261
     23 C          -1.6940    3.8356   -0.9738 C.2     1  UNL1        0.2605
     24 O          -1.1027    3.9559   -2.0380 O.2     1  UNL1       -0.2690
     25 C           2.3917    2.3268    0.5197 C.ar    1  UNL1        0.0484
     26 CL          2.5383    0.6821   -0.0006 Cl      1  UNL1       -0.0831
     27 C           3.5678    2.9776    0.9148 C.ar    1  UNL1       -0.0429
     28 C           3.5261    4.2993    1.3499 C.ar    1  UNL1       -0.0577
     29 C           2.3044    4.9584    1.4108 C.ar    1  UNL1       -0.0260
     30 H           0.0829    1.9593   -0.9879 H       1  UNL1        0.0520
     31 H          -0.2409    1.3638    0.6553 H       1  UNL1        0.0520
     32 H          -2.9501    5.7737   -2.3406 H       1  UNL1        0.0637
     33 H          -6.2555    5.0670   -2.0244 H       1  UNL1        0.0813
     34 H          -7.7683    6.7775   -0.9890 H       1  UNL1        0.1654
     35 H          -3.5659   10.1475    1.5543 H       1  UNL1        0.0640
     36 H          -5.9981   10.5376    1.7775 H       1  UNL1        0.0619
     37 H          -7.6250    9.0401    0.6471 H       1  UNL1        0.0638
     38 H           4.5221    2.4568    0.8788 H       1  UNL1        0.0632
     39 H           4.4397    4.8105    1.6420 H       1  UNL1        0.0619
     40 H           2.2453    5.9873    1.7558 H       1  UNL1        0.0646
@<TRIPOS>BOND
     1     2     1    1
     2     3     2   ar
     3     4     3    1
     4     4    30    1
     5     4    31    1
     6     5     4    1
     7     6     5   am
     8     7     6    2
     9     8     6    1
    10     9     8    1
    11    10     9    2
    12    10    32    1
    13    11    10    1
    14    12    11   ar
    15    12    33    1
    16    13    12   ar
    17    13    34    1
    18    14    13   ar
    19    15    14   ar
    20    15    11   ar
    21    16    15   ar
    22    17    16   ar
    23    17    35    1
    24    18    17   ar
    25    18    36    1
    26    19    18   ar
    27    19    14   ar
    28    19    37    1
    29    20    16    1
    30    21    20    2
    31    22    20    2
    32    23     9    1
    33    23     5   am
    34    24    23    2
    35    25     3   ar
    36    26    25    1
    37    27    25   ar
    38    27    38    1
    39    28    27   ar
    40    28    39    1
    41    29    28   ar
    42    29     2   ar
    43    29    40    1
