@<TRIPOS>MOLECULE
>67.sdf
 59 63 0 0 0
SMALL
GASTEIGER

@<TRIPOS>ATOM
      1 F           1.9373    0.0786   -0.1537 F       1  UNL1       -0.2016
      2 C           0.7869   -0.0052    0.5298 C.ar    1  UNL1        0.1669
      3 C           0.1139    1.1929    0.7575 C.ar    1  UNL1        0.0074
      4 C          -1.0816    1.1754    1.4729 C.ar    1  UNL1        0.1291
      5 C          -1.6015   -0.0338    1.9557 C.ar    1  UNL1       -0.0278
      6 C          -0.9116   -1.2342    1.7121 C.ar    1  UNL1       -0.0149
      7 C           0.2908   -1.2349    0.9944 C.ar    1  UNL1        0.1557
      8 O           0.8685   -2.4783    0.8219 O.3     1  UNL1       -0.4881
      9 C           2.1046   -2.4717    0.1047 C.3     1  UNL1        0.1028
     10 C           2.8238   -3.8290   -0.0072 C.3     1  UNL1        0.0723
     11 C           4.1310   -3.5421   -0.8066 C.3     1  UNL1        0.0388
     12 N           5.0130   -4.6468   -1.1184 N.ar    1  UNL1       -0.3358
     13 C           4.9389   -5.4552   -2.2206 C.ar    1  UNL1        0.0240
     14 C           6.0329   -6.2829   -2.1296 C.ar    1  UNL1        0.0454
     15 N           6.7985   -5.9559   -1.0412 N.ar    1  UNL1       -0.2441
     16 C           6.1764   -4.9492   -0.4703 C.ar    1  UNL1        0.0959
     17 C           3.0881   -4.3725    1.4270 C.3     1  UNL1       -0.0110
     18 C           2.9573   -5.8509    1.2863 C.ar    1  UNL1       -0.0373
     19 C           2.3538   -6.2139    0.0849 C.ar    1  UNL1        0.0033
     20 C           2.2283   -7.5441   -0.2821 C.ar    1  UNL1       -0.0525
     21 C           2.6934   -8.5181    0.6095 C.ar    1  UNL1       -0.0611
     22 C           3.2484   -8.1547    1.8491 C.ar    1  UNL1       -0.0615
     23 C           3.3752   -6.8102    2.1976 C.ar    1  UNL1       -0.0579
     24 C           2.0926   -4.9904   -0.6930 C.2     1  UNL1        0.0988
     25 N           1.4576   -5.0091   -1.8275 N.2     1  UNL1       -0.0879
     26 O           1.4570   -3.7525   -2.4578 O.2     1  UNL1       -0.3887
     27 C           0.7900   -3.8408   -3.7327 C.3     1  UNL1        0.1443
     28 C           0.7850   -2.4897   -4.4271 C.ar    1  UNL1        0.0118
     29 C           0.7910   -2.3558   -5.8297 C.ar    1  UNL1        0.0475
     30 CL          0.6808   -3.7225   -6.8787 Cl      1  UNL1       -0.0831
     31 C           0.8416   -1.0868   -6.4327 C.ar    1  UNL1       -0.0416
     32 C           0.8199    0.0653   -5.6494 C.ar    1  UNL1       -0.0420
     33 C           0.7231   -0.0498   -4.2683 C.ar    1  UNL1        0.0414
     34 CL          0.6032    1.3628   -3.2939 Cl      1  UNL1       -0.0835
     35 C           0.7065   -1.3093   -3.6645 C.ar    1  UNL1       -0.0355
     36 N          -1.7879    2.4297    1.7236 N.pl3   1  UNL1        0.0565
     37 O          -1.2779    3.4823    1.2980 O.2     1  UNL1       -0.1261
     38 O          -2.8532    2.3791    2.3535 O.2     1  UNL1       -0.1261
     39 H           0.5432    2.1138    0.3697 H       1  UNL1        0.0670
     40 H          -2.5325   -0.0611    2.5191 H       1  UNL1        0.0641
     41 H          -1.3207   -2.1694    2.0884 H       1  UNL1        0.0656
     42 H           1.9351   -2.0595   -0.8914 H       1  UNL1        0.0707
     43 H           2.7957   -1.8117    0.6474 H       1  UNL1        0.0707
     44 H           3.8813   -3.0863   -1.7738 H       1  UNL1        0.0502
     45 H           4.7370   -2.8004   -0.2697 H       1  UNL1        0.0502
     46 H           4.1414   -5.3879   -2.9485 H       1  UNL1        0.0825
     47 H           6.3196   -7.0820   -2.8014 H       1  UNL1        0.0845
     48 H           6.5303   -4.4049    0.3949 H       1  UNL1        0.1029
     49 H           4.0767   -4.0870    1.7996 H       1  UNL1        0.0324
     50 H           2.3334   -4.0362    2.1476 H       1  UNL1        0.0324
     51 H           1.8340   -7.8246   -1.2530 H       1  UNL1        0.0624
     52 H           2.6528   -9.5710    0.3372 H       1  UNL1        0.0618
     53 H           3.6067   -8.9245    2.5293 H       1  UNL1        0.0618
     54 H           3.8223   -6.5292    3.1470 H       1  UNL1        0.0620
     55 H           1.3290   -4.5818   -4.3327 H       1  UNL1        0.0775
     56 H          -0.2436   -4.1689   -3.5797 H       1  UNL1        0.0775
     57 H           0.8796   -0.9932   -7.5142 H       1  UNL1        0.0633
     58 H           0.8531    1.0452   -6.1236 H       1  UNL1        0.0633
     59 H           0.6201   -1.3705   -2.5824 H       1  UNL1        0.0636
@<TRIPOS>BOND
     1     2     1    1
     2     3     2   ar
     3     3    39    1
     4     4     3   ar
     5     5     4   ar
     6     5    40    1
     7     6     5   ar
     8     6    41    1
     9     7     6   ar
    10     7     2   ar
    11     8     7    1
    12     9     8    1
    13     9    42    1
    14     9    43    1
    15    10     9    1
    16    11    10    1
    17    11    44    1
    18    11    45    1
    19    12    11    1
    20    13    12   ar
    21    13    46    1
    22    14    13   ar
    23    14    47    1
    24    15    14   ar
    25    16    15   ar
    26    16    12   ar
    27    16    48    1
    28    17    10    1
    29    17    49    1
    30    17    50    1
    31    18    17    1
    32    19    18   ar
    33    20    19   ar
    34    20    51    1
    35    21    20   ar
    36    21    52    1
    37    22    21   ar
    38    22    53    1
    39    23    22   ar
    40    23    18   ar
    41    23    54    1
    42    24    19    1
    43    24    10    1
    44    25    24    2
    45    26    25    1
    46    27    26    1
    47    27    55    1
    48    27    56    1
    49    28    27    1
    50    29    28   ar
    51    30    29    1
    52    31    29   ar
    53    31    57    1
    54    32    31   ar
    55    32    58    1
    56    33    32   ar
    57    34    33    1
    58    35    33   ar
    59    35    28   ar
    60    35    59    1
    61    36     4    1
    62    37    36    2
    63    38    36    2
