@<TRIPOS>MOLECULE
>70.sdf
 18 19 0 0 0
SMALL
GASTEIGER

@<TRIPOS>ATOM
      1 H           1.1250   -0.0281    0.0583 H       1  UNL1        0.1673
      2 N           2.1362    0.0101    0.0602 N.ar    1  UNL1       -0.3346
      3 C           2.9076    1.1452    0.0608 C.ar    1  UNL1        0.0679
      4 C           4.2145    0.6740    0.0611 C.ar    1  UNL1        0.0909
      5 C           5.2802    1.5830    0.0596 C.ar    1  UNL1       -0.0145
      6 C           4.9920    2.9546    0.0595 C.ar    1  UNL1        0.0614
      7 CL          6.3378    4.0426    0.0560 Cl      1  UNL1       -0.0820
      8 C           3.6645    3.4090    0.0610 C.ar    1  UNL1        0.0613
      9 CL          3.2723    5.0950    0.0643 Cl      1  UNL1       -0.0820
     10 C           2.5885    2.5055    0.0607 C.ar    1  UNL1       -0.0165
     11 N           4.2391   -0.6950    0.0611 N.ar    1  UNL1       -0.2241
     12 C           2.9744   -1.0851    0.0586 C.ar    1  UNL1        0.2131
     13 C           2.4275   -2.4749    0.0511 C.3     1  UNL1        0.4504
     14 F           1.0650   -2.4650    0.0626 F       1  UNL1       -0.1632
     15 F           2.7982   -3.1702   -1.0532 F       1  UNL1       -0.1632
     16 F           2.8173   -3.1924    1.1337 F       1  UNL1       -0.1632
     17 H           6.3002    1.2156    0.0586 H       1  UNL1        0.0654
     18 H           1.5595    2.8519    0.0600 H       1  UNL1        0.0654
@<TRIPOS>BOND
     1     2     1    1
     2     3     2   ar
     3     4     3   ar
     4     5     4   ar
     5     5    17    1
     6     6     5   ar
     7     7     6    1
     8     8     6   ar
     9     9     8    1
    10    10     8   ar
    11    10     3   ar
    12    10    18    1
    13    11     4   ar
    14    12    11   ar
    15    12     2   ar
    16    13    12    1
    17    14    13    1
    18    15    13    1
    19    16    13    1
