@<TRIPOS>MOLECULE
>84.sdf
 38 40 0 0 0
SMALL
GASTEIGER

@<TRIPOS>ATOM
      1 F           3.4887    0.2893   -0.8718 F       1  UNL1       -0.1707
      2 C           2.5050    0.4563    0.0372 C.3     1  UNL1        0.3917
      3 F           2.0043    1.6990   -0.1284 F       1  UNL1       -0.1707
      4 F           1.5238   -0.4230   -0.2556 F       1  UNL1       -0.1707
      5 C           2.9980    0.2598    1.4516 C.3     1  UNL1        0.0626
      6 C           4.4880   -0.0484    1.4954 C.3     1  UNL1        0.0808
      7 S           5.0272   -0.2822    3.1699 S.O2    1  UNL1        0.0179
      8 O           4.7583    0.9196    3.9310 O.2     1  UNL1       -0.1678
      9 O           4.6255   -1.5900    3.6417 O.2     1  UNL1       -0.1678
     10 C           6.7557   -0.3586    3.0686 C.ar    1  UNL1        0.2263
     11 C           7.5383   -1.4770    2.9611 C.ar    1  UNL1        0.2455
     12 N           8.8481   -1.0747    3.0037 N.ar    1  UNL1       -0.2771
     13 C          10.0416   -1.7916    2.9338 C.ar    1  UNL1        0.0317
     14 C          11.2030   -1.1290    3.0029 C.ar    1  UNL1        0.0582
     15 CL         12.7114   -1.9472    2.9076 Cl      1  UNL1       -0.0820
     16 C          11.1961    0.3115    3.1713 C.ar    1  UNL1       -0.0307
     17 C          10.0549    1.0452    3.2117 C.ar    1  UNL1        0.0265
     18 C           8.8054    0.3235    3.1166 C.ar    1  UNL1        0.1493
     19 N           7.5581    0.7631    3.1182 N.ar    1  UNL1       -0.2069
     20 C          10.1608    2.5235    3.4132 C.ar    1  UNL1       -0.0115
     21 C          11.2453    3.2665    2.9253 C.ar    1  UNL1       -0.0358
     22 C          11.3047    4.6280    3.1809 C.ar    1  UNL1        0.0281
     23 N          10.3541    5.3071    3.8499 N.ar    1  UNL1       -0.2632
     24 C           9.2955    4.5930    4.2812 C.ar    1  UNL1        0.0281
     25 C           9.1598    3.2251    4.0965 C.ar    1  UNL1       -0.0358
     26 N           7.1551   -2.8138    2.7739 N.pl3   1  UNL1        0.0774
     27 O           6.4824   -3.0383    1.7635 O.2     1  UNL1       -0.1245
     28 O           7.5875   -3.6381    3.5839 O.2     1  UNL1       -0.1245
     29 H           2.7877    1.1636    2.0363 H       1  UNL1        0.0368
     30 H           2.4340   -0.5491    1.9310 H       1  UNL1        0.0368
     31 H           4.7166   -0.9642    0.9425 H       1  UNL1        0.0507
     32 H           5.0641    0.7831    1.0766 H       1  UNL1        0.0507
     33 H           9.9925   -2.8703    2.8224 H       1  UNL1        0.0829
     34 H          12.1741    0.7699    3.2873 H       1  UNL1        0.0640
     35 H          12.0452    2.8135    2.3503 H       1  UNL1        0.0639
     36 H          12.1479    5.2234    2.8419 H       1  UNL1        0.0830
     37 H           8.5305    5.1638    4.8005 H       1  UNL1        0.0830
     38 H           8.2767    2.7331    4.4921 H       1  UNL1        0.0639
@<TRIPOS>BOND
     1     2     1    1
     2     3     2    1
     3     4     2    1
     4     5     2    1
     5     5    29    1
     6     5    30    1
     7     6     5    1
     8     6    31    1
     9     6    32    1
    10     7     6    1
    11     8     7    2
    12     9     7    2
    13    10     7    1
    14    11    10   ar
    15    12    11   ar
    16    13    12   ar
    17    13    33    1
    18    14    13   ar
    19    15    14    1
    20    16    14   ar
    21    16    34    1
    22    17    16   ar
    23    18    17   ar
    24    18    12   ar
    25    19    18   ar
    26    19    10   ar
    27    20    17    1
    28    21    20   ar
    29    21    35    1
    30    22    21   ar
    31    22    36    1
    32    23    22   ar
    33    24    23   ar
    34    24    37    1
    35    25    24   ar
    36    25    20   ar
    37    25    38    1
    38    26    11    1
    39    27    26    2
    40    28    26    2
