@<TRIPOS>MOLECULE
>28.sdf
 18 19 0 0 0
SMALL
GASTEIGER

@<TRIPOS>ATOM
      1 O          -1.7082    2.0434    0.0136 O.3     1  UNL1       -0.5046
      2 C          -1.3200    0.7224    0.0096 C.ar    1  UNL1        0.1427
      3 C          -2.3061   -0.2689    0.0117 C.ar    1  UNL1       -0.0180
      4 C          -1.9324   -1.6084    0.0048 C.ar    1  UNL1       -0.0576
      5 C          -0.5809   -1.9474    0.0002 C.ar    1  UNL1       -0.0523
      6 C           0.4086   -0.9474    0.0031 C.ar    1  UNL1        0.0040
      7 C           0.0492    0.4199    0.0051 C.ar    1  UNL1        0.1122
      8 N           0.9896    1.3927    0.0039 N.ar    1  UNL1       -0.2513
      9 C           2.2907    1.0389    0.0052 C.ar    1  UNL1        0.0284
     10 C           2.7295   -0.2691    0.0081 C.ar    1  UNL1       -0.0430
     11 C           1.7718   -1.2752    0.0058 C.ar    1  UNL1       -0.0510
     12 H          -2.6743    2.0979   -0.0004 H       1  UNL1        0.2922
     13 H          -3.3605   -0.0114    0.0195 H       1  UNL1        0.0655
     14 H          -2.6903   -2.3875    0.0044 H       1  UNL1        0.0619
     15 H          -0.3011   -2.9987   -0.0051 H       1  UNL1        0.0624
     16 H           2.9913    1.8685    0.0047 H       1  UNL1        0.0830
     17 H           3.7884   -0.4985    0.0122 H       1  UNL1        0.0633
     18 H           2.0934   -2.3138    0.0079 H       1  UNL1        0.0625
@<TRIPOS>BOND
     1     1    12    1
     2     2     1    1
     3     3     2   ar
     4     3    13    1
     5     4     3   ar
     6     4    14    1
     7     5     4   ar
     8     5    15    1
     9     6     5   ar
    10     7     6   ar
    11     7     2   ar
    12     8     7   ar
    13     9     8   ar
    14     9    16    1
    15    10     9   ar
    16    10    17    1
    17    11    10   ar
    18    11     6   ar
    19    11    18    1
