@<TRIPOS>MOLECULE
>107.sdf
 34 36 0 0 0
SMALL
GASTEIGER

@<TRIPOS>ATOM
      1 C           0.9300   -0.0194   -0.0039 C.3     1  UNL1       -0.0193
      2 C           0.3283   -1.3920   -0.2906 C.3     1  UNL1        0.0121
      3 N          -1.0660   -1.4434    0.1538 N.pl3   1  UNL1       -0.3271
      4 C          -1.6618   -2.7186   -0.0592 C.ar    1  UNL1        0.1490
      5 N          -0.9231   -3.7133   -0.6114 N.ar    1  UNL1       -0.1338
      6 N          -1.4468   -4.9497   -0.8342 N.ar    1  UNL1       -0.1553
      7 C          -2.7194   -5.1905   -0.4755 C.ar    1  UNL1        0.0578
      8 C          -3.5362   -4.2358    0.1119 C.ar    1  UNL1        0.0053
      9 C          -4.8571   -4.5422    0.4875 C.ar    1  UNL1       -0.0524
     10 C          -5.6645   -3.5790    1.0866 C.ar    1  UNL1       -0.0611
     11 C          -5.1640   -2.3009    1.3092 C.ar    1  UNL1       -0.0611
     12 C          -3.8519   -1.9876    0.9374 C.ar    1  UNL1       -0.0506
     13 C          -3.0049   -2.9487    0.3297 C.ar    1  UNL1        0.0251
     14 C           2.3815    0.0311   -0.4799 C.3     1  UNL1        0.0256
     15 N           2.9925    1.3209   -0.2347 N.ar    1  UNL1       -0.3368
     16 C           3.6928    1.6861    0.8796 C.ar    1  UNL1        0.0240
     17 C           4.0474    2.9967    0.6584 C.ar    1  UNL1        0.0454
     18 N           3.6018    3.4214   -0.5670 N.ar    1  UNL1       -0.2441
     19 C           2.9804    2.3870   -1.0870 C.ar    1  UNL1        0.0959
     20 H           0.8788    0.1957    1.0711 H       1  UNL1        0.0297
     21 H           0.3422    0.7607   -0.5039 H       1  UNL1        0.0297
     22 H           0.3913   -1.5931   -1.3677 H       1  UNL1        0.0462
     23 H           0.9202   -2.1473    0.2427 H       1  UNL1        0.0462
     24 H          -1.6492   -0.7479   -0.3048 H       1  UNL1        0.1475
     25 H          -3.0602   -6.2002   -0.6763 H       1  UNL1        0.0854
     26 H          -5.2610   -5.5399    0.3262 H       1  UNL1        0.0624
     27 H          -6.6799   -3.8296    1.3849 H       1  UNL1        0.0618
     28 H          -5.7917   -1.5483    1.7802 H       1  UNL1        0.0618
     29 H          -3.4844   -0.9845    1.1418 H       1  UNL1        0.0625
     30 H           2.9904   -0.7243    0.0310 H       1  UNL1        0.0492
     31 H           2.4487   -0.1644   -1.5568 H       1  UNL1        0.0492
     32 H           3.8691    1.0177    1.7106 H       1  UNL1        0.0825
     33 H           4.6014    3.6557    1.3143 H       1  UNL1        0.0845
     34 H           2.5073    2.3619   -2.0601 H       1  UNL1        0.1029
@<TRIPOS>BOND
     1     1    20    1
     2     1    21    1
     3     2     1    1
     4     2    22    1
     5     2    23    1
     6     3     2    1
     7     3    24    1
     8     4     3    1
     9     5     4   ar
    10     6     5   ar
    11     7     6   ar
    12     7    25    1
    13     8     7   ar
    14     9     8   ar
    15     9    26    1
    16    10     9   ar
    17    10    27    1
    18    11    10   ar
    19    11    28    1
    20    12    11   ar
    21    12    29    1
    22    13    12   ar
    23    13     4   ar
    24    13     8   ar
    25    14     1    1
    26    14    30    1
    27    14    31    1
    28    15    14    1
    29    16    15   ar
    30    16    32    1
    31    17    16   ar
    32    17    33    1
    33    18    17   ar
    34    19    18   ar
    35    19    15   ar
    36    19    34    1
