@<TRIPOS>MOLECULE
>146.sdf
 39 41 0 0 0
SMALL
GASTEIGER

@<TRIPOS>ATOM
      1 C           3.6912    0.6545    0.7479 C.3     1  UNL1       -0.0423
      2 C           2.6122   -0.1107   -0.0442 C.3     1  UNL1        0.0483
      3 N           3.0724   -1.4821   -0.3431 N.pl3   1  UNL1       -0.2958
      4 C           4.2684   -1.7385   -1.1361 C.3     1  UNL1        0.0040
      5 C           2.7206   -2.4639    0.5763 C.ar    1  UNL1        0.2200
      6 N           3.5561   -3.4951    0.7983 N.ar    1  UNL1       -0.2219
      7 C           3.1733   -4.4354    1.6767 C.ar    1  UNL1        0.0452
      8 C           1.9593   -4.4087    2.3387 C.ar    1  UNL1        0.0770
      9 C           1.4651   -5.3470    3.2325 C.ar    1  UNL1        0.1320
     10 N           2.1744   -6.5035    3.5746 N.pl3   1  UNL1       -0.3424
     11 N           0.2532   -5.2319    3.7887 N.ar    1  UNL1       -0.1994
     12 C          -0.4437   -4.1424    3.4544 C.ar    1  UNL1        0.2162
     13 N          -1.7014   -4.0052    4.0075 N.pl3   1  UNL1       -0.3274
     14 N          -0.0402   -3.2012    2.6111 N.ar    1  UNL1       -0.1947
     15 C           1.1566   -3.3226    2.0529 C.ar    1  UNL1        0.1715
     16 N           1.5420   -2.3757    1.2073 N.ar    1  UNL1       -0.1944
     17 C           2.1509    0.7229   -1.2519 C.ar    1  UNL1       -0.0245
     18 C           2.1991    0.2863   -2.5831 C.ar    1  UNL1       -0.0384
     19 C           1.8562    1.1446   -3.6361 C.ar    1  UNL1        0.0427
     20 CL          2.0252    0.6036   -5.2627 Cl      1  UNL1       -0.0835
     21 C           1.3975    2.4343   -3.3913 C.ar    1  UNL1       -0.0250
     22 C           1.2631    2.8557   -2.0767 C.ar    1  UNL1        0.0427
     23 CL          0.6430    4.4267   -1.7424 Cl      1  UNL1       -0.0835
     24 C           1.6343    2.0182   -1.0208 C.ar    1  UNL1       -0.0384
     25 H           3.2530    1.5130    1.2711 H       1  UNL1        0.0251
     26 H           4.1670    0.0258    1.5068 H       1  UNL1        0.0251
     27 H           4.4753    1.0494    0.0909 H       1  UNL1        0.0251
     28 H           1.7212   -0.1511    0.5950 H       1  UNL1        0.0548
     29 H           4.9702   -2.4541   -0.6930 H       1  UNL1        0.0429
     30 H           3.9719   -2.1613   -2.1035 H       1  UNL1        0.0429
     31 H           4.8425   -0.8275   -1.3310 H       1  UNL1        0.0429
     32 H           3.8880   -5.2399    1.8273 H       1  UNL1        0.0839
     33 H           1.6179   -7.0079    4.2636 H       1  UNL1        0.1437
     34 H           3.1034   -6.3090    3.9265 H       1  UNL1        0.1437
     35 H          -2.2758   -3.4271    3.4122 H       1  UNL1        0.1452
     36 H          -2.0706   -4.9070    4.2749 H       1  UNL1        0.1452
     37 H           2.5022   -0.7262   -2.8241 H       1  UNL1        0.0635
     38 H           1.1377    3.0953   -4.2129 H       1  UNL1        0.0647
     39 H           1.5176    2.3837   -0.0017 H       1  UNL1        0.0635
@<TRIPOS>BOND
     1     1    25    1
     2     1    26    1
     3     1    27    1
     4     3     2    1
     5     4     3    1
     6     4    29    1
     7     4    30    1
     8     4    31    1
     9     5     3    1
    10     6     5   ar
    11     7     6   ar
    12     7    32    1
    13     8     7   ar
    14     9     8   ar
    15    10     9    1
    16    10    33    1
    17    10    34    1
    18    11     9   ar
    19    12    11   ar
    20    13    12    1
    21    13    35    1
    22    13    36    1
    23    14    12   ar
    24    15    14   ar
    25    15     8   ar
    26    16    15   ar
    27    16     5   ar
    28    17     2    1
    29    18    17   ar
    30    18    37    1
    31    19    18   ar
    32    20    19    1
    33    21    19   ar
    34    21    38    1
    35    22    21   ar
    36    23    22    1
    37    24    22   ar
    38    24    17   ar
    39    24    39    1
    40     2    28    1
    41     2     1    1
