@<TRIPOS>MOLECULE
>82.sdf
 54 59 0 0 0
SMALL
GASTEIGER

@<TRIPOS>ATOM
      1 N           3.0475   -0.3727   -0.9839 N.pl3   1  UNL1       -0.3430
      2 C           1.7710   -0.0943   -1.3677 C.ar    1  UNL1        0.1227
      3 C           1.3726    0.9480   -2.1720 C.ar    1  UNL1       -0.0022
      4 C           0.0035    0.7574   -2.3713 C.ar    1  UNL1        0.0517
      5 N          -0.4884   -0.2521   -1.6561 N.ar    1  UNL1       -0.1707
      6 N           0.5899   -0.7706   -0.9766 N.ar    1  UNL1       -0.1861
      7 C           0.3542   -1.9049   -0.1290 C.2     1  UNL1        0.2521
      8 O          -0.7663   -2.1206    0.3286 O.2     1  UNL1       -0.2705
      9 C           1.4632   -2.9353   -0.1493 C.3     1  UNL1        0.0403
     10 C           2.6489   -2.9799    0.8230 C.3     1  UNL1       -0.0367
     11 C           3.6733   -4.0462    0.3078 C.3     1  UNL1        0.0050
     12 C           3.4175   -4.4364   -1.1768 C.3     1  UNL1        0.2059
     13 C           1.9942   -5.0291   -1.3248 C.3     1  UNL1        0.0050
     14 C           1.0102   -4.3886   -0.3277 C.3     1  UNL1       -0.0367
     15 O           3.5626   -3.2483   -1.9782 O.3     1  UNL1       -0.1965
     16 O           4.9880   -3.1294   -2.1334 O.3     1  UNL1       -0.1960
     17 C           5.3843   -4.4969   -2.2962 C.3     1  UNL1        0.2114
     18 O           4.3636   -5.3305   -1.7290 O.3     1  UNL1       -0.3112
     19 C           5.6124   -4.7614   -3.8078 C.3     1  UNL1        0.0168
     20 C           6.7616   -3.8797   -4.3276 C.3     1  UNL1       -0.0424
     21 C           8.0562   -4.1639   -3.5290 C.3     1  UNL1       -0.0400
     22 C           8.4259   -5.6545   -3.6770 C.3     1  UNL1       -0.0473
     23 C           7.2691   -6.5468   -3.1969 C.3     1  UNL1       -0.0400
     24 C           6.0043   -6.2292   -4.0145 C.3     1  UNL1       -0.0424
     25 C           7.0285   -6.2538   -1.7028 C.3     1  UNL1       -0.0424
     26 C           6.6703   -4.7661   -1.5178 C.3     1  UNL1        0.0168
     27 C           7.8022   -3.8709   -2.0438 C.3     1  UNL1       -0.0424
     28 H           3.4085   -1.3055   -1.2096 H       1  UNL1        0.1437
     29 H           3.7573    0.2810   -1.3020 H       1  UNL1        0.1437
     30 H           2.0054    1.7079   -2.6080 H       1  UNL1        0.0667
     31 H          -0.6632    1.3251   -3.0099 H       1  UNL1        0.0848
     32 H           1.8262   -2.6752   -1.1235 H       1  UNL1        0.0397
     33 H           2.3307   -3.2504    1.8356 H       1  UNL1        0.0274
     34 H           3.1403   -2.0096    0.9251 H       1  UNL1        0.0274
     35 H           3.6129   -4.9539    0.9259 H       1  UNL1        0.0318
     36 H           4.6863   -3.6599    0.4599 H       1  UNL1        0.0318
     37 H           2.0087   -6.1182   -1.1832 H       1  UNL1        0.0318
     38 H           1.6308   -4.8410   -2.3348 H       1  UNL1        0.0318
     39 H           1.0601   -4.9288    0.6293 H       1  UNL1        0.0274
     40 H          -0.0248   -4.4928   -0.6778 H       1  UNL1        0.0274
     41 H           4.6975   -4.5353   -4.3800 H       1  UNL1        0.0354
     42 H           6.9400   -4.0794   -5.3982 H       1  UNL1        0.0272
     43 H           6.5095   -2.8181   -4.2489 H       1  UNL1        0.0272
     44 H           8.8724   -3.5366   -3.9041 H       1  UNL1        0.0301
     45 H           8.6607   -5.8769   -4.7281 H       1  UNL1        0.0271
     46 H           9.3265   -5.8697   -3.0921 H       1  UNL1        0.0271
     47 H           7.5330   -7.6026   -3.3254 H       1  UNL1        0.0301
     48 H           5.1772   -6.8885   -3.7238 H       1  UNL1        0.0272
     49 H           6.1924   -6.4161   -5.0815 H       1  UNL1        0.0272
     50 H           6.2159   -6.8924   -1.3297 H       1  UNL1        0.0272
     51 H           7.9139   -6.4996   -1.1152 H       1  UNL1        0.0272
     52 H           6.5227   -4.5645   -0.4529 H       1  UNL1        0.0354
     53 H           8.7101   -4.0391   -1.4601 H       1  UNL1        0.0272
     54 H           7.5388   -2.8101   -1.9127 H       1  UNL1        0.0272
@<TRIPOS>BOND
     1     1    28    1
     2     1    29    1
     3     2     1    1
     4     3     2   ar
     5     3    30    1
     6     4     3   ar
     7     4    31    1
     8     5     4   ar
     9     6     5   ar
    10     6     2   ar
    11     7     6   am
    12     8     7    2
    13    10     9    1
    14    10    33    1
    15    10    34    1
    16    11    10    1
    17    11    35    1
    18    11    36    1
    19    12    11    1
    20    13    12    1
    21    13    37    1
    22    13    38    1
    23    14    13    1
    24    14     9    1
    25    14    39    1
    26    14    40    1
    27    15    12    1
    28    16    15    1
    29    17    16    1
    30    18    17    1
    31    18    12    1
    32    19    17    1
    33    19    41    1
    34    20    19    1
    35    20    42    1
    36    20    43    1
    37    21    20    1
    38    21    44    1
    39    22    21    1
    40    22    45    1
    41    22    46    1
    42    23    22    1
    43    23    47    1
    44    24    23    1
    45    24    19    1
    46    24    48    1
    47    24    49    1
    48    25    23    1
    49    25    50    1
    50    25    51    1
    51    26    25    1
    52    26    17    1
    53    26    52    1
    54    27    26    1
    55    27    21    1
    56    27    53    1
    57    27    54    1
    58     9    32    1
    59     9     7    1
