@<TRIPOS>MOLECULE
>51.sdf
 59 63 0 0 0
SMALL
GASTEIGER

@<TRIPOS>ATOM
      1 C           1.4870   -2.5432    2.2097 C.3     1  UNL1       -0.0569
      2 C           2.9767   -2.2697    2.3045 C.3     1  UNL1        0.0230
      3 C           3.4165   -1.0818    1.4603 C.2     1  UNL1        0.2351
      4 O           2.6278   -0.4146    0.7924 O.2     1  UNL1       -0.2739
      5 N           4.7635   -0.7682    1.5767 N.am    1  UNL1       -0.1850
      6 N           5.6157   -1.5255    2.3427 N.2     1  UNL1       -0.1809
      7 C           6.6840   -0.8146    2.5350 C.2     1  UNL1        0.0688
      8 C           6.6392    0.5733    1.9656 C.3     1  UNL1        0.0165
      9 C           5.3013    0.5445    1.2350 C.3     1  UNL1        0.0828
     10 C           5.4682    0.7642   -0.2366 C.ar    1  UNL1        0.0210
     11 C           5.7215   -0.1748   -1.2186 C.ar    1  UNL1        0.0369
     12 N           5.7536    0.4836   -2.4238 N.ar    1  UNL1       -0.2390
     13 N           5.6445    1.8211   -2.2527 N.ar    1  UNL1       -0.1660
     14 C           5.4233    2.0108   -0.9431 C.ar    1  UNL1        0.0981
     15 C           5.1891    3.3724   -0.4276 C.ar    1  UNL1        0.0025
     16 C           4.5124    4.3119   -1.2181 C.ar    1  UNL1       -0.0523
     17 C           4.2631    5.6053   -0.7402 C.ar    1  UNL1       -0.0582
     18 C           4.6779    5.9816    0.5398 C.ar    1  UNL1       -0.0504
     19 C           4.4283    7.3614    1.0704 C.3     1  UNL1       -0.0397
     20 C           5.3558    5.0507    1.3290 C.ar    1  UNL1       -0.0582
     21 C           5.6245    3.7704    0.8374 C.ar    1  UNL1       -0.0523
     22 C           5.8691   -0.0781   -3.7276 C.ar    1  UNL1        0.0654
     23 C           5.8827   -1.4667   -3.9201 C.ar    1  UNL1       -0.0363
     24 C           5.9357   -1.9936   -5.2139 C.ar    1  UNL1       -0.0598
     25 C           5.9848   -1.1441   -6.3179 C.ar    1  UNL1       -0.0616
     26 C           5.9910    0.2368   -6.1335 C.ar    1  UNL1       -0.0598
     27 C           5.9332    0.7710   -4.8442 C.ar    1  UNL1       -0.0363
     28 C           7.8585   -1.2985    3.2936 C.ar    1  UNL1       -0.0022
     29 C           7.8320   -2.5886    3.8357 C.ar    1  UNL1       -0.0528
     30 C           8.9398   -3.0802    4.5280 C.ar    1  UNL1       -0.0611
     31 C          10.0741   -2.2848    4.6821 C.ar    1  UNL1       -0.0617
     32 C          10.1000   -0.9946    4.1560 C.ar    1  UNL1       -0.0611
     33 C           8.9937   -0.4977    3.4647 C.ar    1  UNL1       -0.0528
     34 H           1.1924   -3.2877    2.9562 H       1  UNL1        0.0234
     35 H           0.9015   -1.6350    2.3875 H       1  UNL1        0.0234
     36 H           1.2245   -2.9269    1.2192 H       1  UNL1        0.0234
     37 H           3.2164   -2.0377    3.3497 H       1  UNL1        0.0356
     38 H           3.5365   -3.1621    2.0068 H       1  UNL1        0.0356
     39 H           7.4968    0.7641    1.3136 H       1  UNL1        0.0351
     40 H           6.6266    1.2925    2.7909 H       1  UNL1        0.0351
     41 H           4.6092    1.2886    1.6460 H       1  UNL1        0.0576
     42 H           5.8435   -1.2441   -1.1424 H       1  UNL1        0.0834
     43 H           4.1730    4.0417   -2.2175 H       1  UNL1        0.0624
     44 H           3.7398    6.3117   -1.3828 H       1  UNL1        0.0620
     45 H           3.8132    7.3126    1.9754 H       1  UNL1        0.0278
     46 H           5.3824    7.8461    1.3115 H       1  UNL1        0.0278
     47 H           3.9083    7.9866    0.3407 H       1  UNL1        0.0278
     48 H           5.6890    5.3204    2.3286 H       1  UNL1        0.0620
     49 H           6.1940    3.1086    1.4750 H       1  UNL1        0.0624
     50 H           5.8292   -2.1654   -3.0915 H       1  UNL1        0.0639
     51 H           5.9258   -3.0709   -5.3602 H       1  UNL1        0.0618
     52 H           6.0127   -1.5586   -7.3223 H       1  UNL1        0.0618
     53 H           6.0302    0.9010   -6.9932 H       1  UNL1        0.0618
     54 H           5.9305    1.8531   -4.7250 H       1  UNL1        0.0639
     55 H           6.9539   -3.2204    3.7189 H       1  UNL1        0.0624
     56 H           8.9178   -4.0852    4.9414 H       1  UNL1        0.0618
     57 H          10.9403   -2.6727    5.2126 H       1  UNL1        0.0618
     58 H          10.9861   -0.3759    4.2792 H       1  UNL1        0.0618
     59 H           9.0472    0.5106    3.0654 H       1  UNL1        0.0624
@<TRIPOS>BOND
     1     1    34    1
     2     1    35    1
     3     1    36    1
     4     2     1    1
     5     2    37    1
     6     2    38    1
     7     3     2    1
     8     4     3    2
     9     5     3   am
    10     6     5    1
    11     7     6    2
    12     8     7    1
    13     8    39    1
    14     8    40    1
    15     9     8    1
    16     9     5    1
    17    11    10   ar
    18    11    42    1
    19    12    11   ar
    20    13    12   ar
    21    14    13   ar
    22    14    10   ar
    23    15    14    1
    24    16    15   ar
    25    16    43    1
    26    17    16   ar
    27    17    44    1
    28    18    17   ar
    29    19    18    1
    30    19    45    1
    31    19    46    1
    32    19    47    1
    33    20    18   ar
    34    20    48    1
    35    21    20   ar
    36    21    15   ar
    37    21    49    1
    38    22    12    1
    39    23    22   ar
    40    23    50    1
    41    24    23   ar
    42    24    51    1
    43    25    24   ar
    44    25    52    1
    45    26    25   ar
    46    26    53    1
    47    27    26   ar
    48    27    22   ar
    49    27    54    1
    50    28     7    1
    51    29    28   ar
    52    29    55    1
    53    30    29   ar
    54    30    56    1
    55    31    30   ar
    56    31    57    1
    57    32    31   ar
    58    32    58    1
    59    33    32   ar
    60    33    28   ar
    61    33    59    1
    62     9    10    1
    63     9    41    1
