@<TRIPOS>MOLECULE
>91.sdf
 55 57 0 0 0
SMALL
GASTEIGER

@<TRIPOS>ATOM
      1 C           3.7060    3.0789    3.5225 C.3     1  UNL1        0.0790
      2 O           4.3946    3.2292    2.2937 O.3     1  UNL1       -0.4914
      3 C           3.8752    2.7073    1.1410 C.ar    1  UNL1        0.1618
      4 C           2.5947    2.1933    0.8865 C.ar    1  UNL1        0.1619
      5 O           1.6016    2.2252    1.8529 O.3     1  UNL1       -0.4883
      6 C           0.6838    1.1327    1.7202 C.3     1  UNL1        0.0901
      7 C          -0.4593    1.1449    2.7296 C.3     1  UNL1       -0.0131
      8 C          -1.4267   -0.0069    2.4081 C.3     1  UNL1       -0.0041
      9 C          -0.7947   -1.3485    2.5322 C.ar    1  UNL1        0.0830
     10 C          -0.7035   -2.1875    3.6183 C.ar    1  UNL1        0.0490
     11 N           0.0033   -3.2574    3.1521 N.ar    1  UNL1       -0.2471
     12 C           0.2717   -4.5169    3.8298 C.3     1  UNL1        0.0682
     13 C           1.4929   -4.4614    4.7136 C.ar    1  UNL1       -0.0261
     14 C           1.3820   -4.6973    6.0920 C.ar    1  UNL1       -0.0566
     15 C           2.5119   -4.6657    6.9143 C.ar    1  UNL1       -0.0585
     16 C           3.7741   -4.3986    6.3753 C.ar    1  UNL1       -0.0504
     17 C           4.9915   -4.3389    7.2497 C.3     1  UNL1       -0.0397
     18 C           3.8929   -4.1893    4.9971 C.ar    1  UNL1       -0.0585
     19 C           2.7645   -4.2225    4.1736 C.ar    1  UNL1       -0.0566
     20 N           0.3359   -3.0969    1.8551 N.ar    1  UNL1       -0.0652
     21 N          -0.1557   -1.9292    1.4640 N.ar    1  UNL1       -0.1345
     22 C           2.3237    1.6969   -0.4075 C.ar    1  UNL1       -0.0160
     23 C           3.2773    1.7031   -1.4234 C.ar    1  UNL1       -0.0546
     24 C           4.5362    2.2321   -1.1835 C.ar    1  UNL1       -0.0400
     25 C           5.5200    2.3393   -2.3207 C.3     1  UNL1       -0.0096
     26 C           5.3665    3.6440   -3.0528 C.2     1  UNL1       -0.0868
     27 C           5.0075    3.7628   -4.3379 C.2     1  UNL1       -0.1023
     28 C           4.8247    2.7297    0.0953 C.ar    1  UNL1       -0.0128
     29 H           3.0425    3.9330    3.6826 H       1  UNL1        0.0660
     30 H           3.1774    2.1278    3.6214 H       1  UNL1        0.0660
     31 H           4.4600    3.0963    4.3171 H       1  UNL1        0.0660
     32 H           0.1775    1.1787    0.7539 H       1  UNL1        0.0696
     33 H           1.2573    0.2043    1.8117 H       1  UNL1        0.0696
     34 H          -0.0789    1.0782    3.7539 H       1  UNL1        0.0302
     35 H          -0.9978    2.0983    2.6561 H       1  UNL1        0.0302
     36 H          -2.3042    0.0478    3.0607 H       1  UNL1        0.0330
     37 H          -1.8018    0.1059    1.3819 H       1  UNL1        0.0330
     38 H          -1.0647   -2.1208    4.6300 H       1  UNL1        0.0845
     39 H          -0.6272   -4.7484    4.4138 H       1  UNL1        0.0559
     40 H           0.3844   -5.3030    3.0745 H       1  UNL1        0.0559
     41 H           0.4152   -4.9112    6.5424 H       1  UNL1        0.0621
     42 H           2.3978   -4.8495    7.9805 H       1  UNL1        0.0620
     43 H           5.6868   -5.1424    6.9879 H       1  UNL1        0.0278
     44 H           5.4936   -3.3734    7.1281 H       1  UNL1        0.0278
     45 H           4.7314   -4.4458    8.3081 H       1  UNL1        0.0278
     46 H           4.8680   -3.9945    4.5550 H       1  UNL1        0.0620
     47 H           2.8887   -4.0558    3.1040 H       1  UNL1        0.0621
     48 H           1.3576    1.3057   -0.6992 H       1  UNL1        0.0655
     49 H           3.0077    1.3188   -2.4020 H       1  UNL1        0.0622
     50 H           6.5429    2.2505   -1.9383 H       1  UNL1        0.0355
     51 H           5.3777    1.4892   -3.0017 H       1  UNL1        0.0355
     52 H           5.5481    4.5469   -2.4732 H       1  UNL1        0.0570
     53 H           4.7974    2.8981   -4.9591 H       1  UNL1        0.0532
     54 H           4.9014    4.7441   -4.7918 H       1  UNL1        0.0532
     55 H           5.8076    3.1539    0.2953 H       1  UNL1        0.0658
@<TRIPOS>BOND
     1     1    29    1
     2     1    30    1
     3     1    31    1
     4     2     1    1
     5     3     2    1
     6     4     3   ar
     7     5     4    1
     8     6     5    1
     9     6    32    1
    10     6    33    1
    11     7     6    1
    12     7    34    1
    13     7    35    1
    14     8     7    1
    15     8    36    1
    16     8    37    1
    17     9     8    1
    18    10     9   ar
    19    10    38    1
    20    11    10   ar
    21    12    11    1
    22    12    39    1
    23    12    40    1
    24    13    12    1
    25    14    13   ar
    26    14    41    1
    27    15    14   ar
    28    15    42    1
    29    16    15   ar
    30    17    16    1
    31    17    43    1
    32    17    44    1
    33    17    45    1
    34    18    16   ar
    35    18    46    1
    36    19    18   ar
    37    19    13   ar
    38    19    47    1
    39    20    11   ar
    40    21    20   ar
    41    21     9   ar
    42    22     4   ar
    43    22    48    1
    44    23    22   ar
    45    23    49    1
    46    24    23   ar
    47    25    24    1
    48    25    50    1
    49    25    51    1
    50    26    25    1
    51    26    52    1
    52    27    26    2
    53    27    53    1
    54    27    54    1
    55    28    24   ar
    56    28     3   ar
    57    28    55    1
