@<TRIPOS>MOLECULE
>73.sdf
 40 43 0 0 0
SMALL
GASTEIGER

@<TRIPOS>ATOM
      1 C           2.6470   -1.5843   -1.3066 C.3     1  UNL1        0.0788
      2 O           3.3062   -0.5076   -0.6512 O.3     1  UNL1       -0.4951
      3 C           3.5473   -0.6616    0.6868 C.ar    1  UNL1        0.1207
      4 C           3.1630   -1.7560    1.4668 C.ar    1  UNL1       -0.0108
      5 C           3.4558   -1.8171    2.8429 C.ar    1  UNL1        0.0038
      6 C           4.1787   -0.7468    3.4043 C.ar    1  UNL1       -0.0523
      7 C           4.5571    0.3542    2.6351 C.ar    1  UNL1       -0.0577
      8 C           4.2341    0.3963    1.2822 C.ar    1  UNL1       -0.0199
      9 C           2.9890   -2.9558    3.6591 C.ar    1  UNL1        0.0725
     10 N           2.8906   -4.1500    3.0400 N.ar    1  UNL1       -0.2451
     11 C           2.4421   -5.2045    3.7488 C.ar    1  UNL1        0.0904
     12 C           2.3199   -6.4200    3.0902 C.ar    1  UNL1       -0.0328
     13 C           1.8498   -7.5543    3.7433 C.ar    1  UNL1       -0.0415
     14 C           1.5250   -7.4335    5.0738 C.ar    1  UNL1        0.0284
     15 N           1.6375   -6.2770    5.7604 N.ar    1  UNL1       -0.2528
     16 C           2.0740   -5.1627    5.1145 C.ar    1  UNL1        0.0969
     17 C           2.1716   -3.9076    5.7485 C.ar    1  UNL1        0.0116
     18 C           2.6211   -2.8095    4.9883 C.ar    1  UNL1       -0.0259
     19 C           1.8026   -3.6693    7.1742 C.ar    1  UNL1       -0.0157
     20 C           2.5203   -2.7481    7.9674 C.ar    1  UNL1       -0.0540
     21 C           2.1423   -2.4555    9.2814 C.ar    1  UNL1       -0.0612
     22 C           1.0513   -3.1018    9.8496 C.ar    1  UNL1       -0.0617
     23 C           0.3377   -4.0324    9.1028 C.ar    1  UNL1       -0.0612
     24 C           0.7031   -4.3015    7.7793 C.ar    1  UNL1       -0.0540
     25 H           3.2058   -2.5202   -1.1996 H       1  UNL1        0.0660
     26 H           1.6202   -1.6920   -0.9415 H       1  UNL1        0.0660
     27 H           2.6006   -1.3482   -2.3737 H       1  UNL1        0.0660
     28 H           2.6122   -2.5842    1.0297 H       1  UNL1        0.0661
     29 H           4.4632   -0.7574    4.4544 H       1  UNL1        0.0624
     30 H           5.1018    1.1773    3.0905 H       1  UNL1        0.0619
     31 H           4.5238    1.2566    0.6841 H       1  UNL1        0.0654
     32 H           2.5906   -6.4825    2.0389 H       1  UNL1        0.0640
     33 H           1.7423   -8.4999    3.2247 H       1  UNL1        0.0633
     34 H           1.1497   -8.2780    5.6455 H       1  UNL1        0.0830
     35 H           2.6445   -1.8202    5.4357 H       1  UNL1        0.0646
     36 H           3.3936   -2.2357    7.5690 H       1  UNL1        0.0624
     37 H           2.7030   -1.7235    9.8568 H       1  UNL1        0.0618
     38 H           0.7583   -2.8820   10.8720 H       1  UNL1        0.0618
     39 H          -0.5103   -4.5501    9.5429 H       1  UNL1        0.0618
     40 H           0.1035   -5.0184    7.2226 H       1  UNL1        0.0624
@<TRIPOS>BOND
     1     1    25    1
     2     1    26    1
     3     1    27    1
     4     2     1    1
     5     3     2    1
     6     4     3   ar
     7     4    28    1
     8     5     4   ar
     9     6     5   ar
    10     6    29    1
    11     7     6   ar
    12     7    30    1
    13     8     7   ar
    14     8     3   ar
    15     8    31    1
    16     9     5    1
    17    10     9   ar
    18    11    10   ar
    19    12    11   ar
    20    12    32    1
    21    13    12   ar
    22    13    33    1
    23    14    13   ar
    24    14    34    1
    25    15    14   ar
    26    16    15   ar
    27    16    11   ar
    28    17    16   ar
    29    18    17   ar
    30    18     9   ar
    31    18    35    1
    32    19    17    1
    33    20    19   ar
    34    20    36    1
    35    21    20   ar
    36    21    37    1
    37    22    21   ar
    38    22    38    1
    39    23    22   ar
    40    23    39    1
    41    24    23   ar
    42    24    19   ar
    43    24    40    1
