@<TRIPOS>MOLECULE
>94.sdf
 28 29 0 0 0
SMALL
GASTEIGER

@<TRIPOS>ATOM
      1 O          -2.2388    0.4663    0.1391 O.2     1  UNL1       -0.2733
      2 C          -1.0689    0.1007    0.0956 C.2     1  UNL1        0.2433
      3 C          -0.6398   -1.3502    0.0440 C.3     1  UNL1        0.1161
      4 N           0.7898   -1.2018    0.0683 N.am    1  UNL1       -0.1676
      5 N           1.5926   -2.3058   -0.0883 N.2     1  UNL1       -0.1802
      6 C           2.7869   -2.2605    0.4198 C.2     1  UNL1        0.0882
      7 C           3.6841   -3.3820    0.2766 C.ar    1  UNL1        0.1501
      8 C           3.5785   -4.5787   -0.4156 C.ar    1  UNL1       -0.0125
      9 C           4.7669   -5.3146   -0.1684 C.ar    1  UNL1        0.0086
     10 C           5.5184   -4.5186    0.6611 C.ar    1  UNL1        0.2802
     11 O           4.8845   -3.3430    0.9387 O.2     1  UNL1       -0.4330
     12 N           6.7992   -4.7235    1.2671 N.pl3   1  UNL1        0.0926
     13 O           7.3431   -5.8147    1.0389 O.2     1  UNL1       -0.1231
     14 O           7.2604   -3.8132    1.9667 O.2     1  UNL1       -0.1231
     15 C           1.1681    0.1537   -0.0411 C.2     1  UNL1        0.3319
     16 O           2.3017    0.5770   -0.2162 O.2     1  UNL1       -0.2501
     17 N           0.0249    0.9104    0.0514 N.am    1  UNL1       -0.2114
     18 C          -0.0323    2.3663    0.1181 C.3     1  UNL1        0.0849
     19 C           0.1494    2.7932    1.5656 C.1     1  UNL1       -0.0859
     20 C           0.3053    3.1595    2.8072 C.1     1  UNL1       -0.1176
     21 H          -0.9569   -1.8213   -0.8885 H       1  UNL1        0.0582
     22 H          -0.9722   -1.8960    0.9296 H       1  UNL1        0.0582
     23 H           3.1502   -1.4072    1.0172 H       1  UNL1        0.0883
     24 H           2.7348   -4.8807   -1.0227 H       1  UNL1        0.0656
     25 H           5.0366   -6.2962   -0.5376 H       1  UNL1        0.0673
     26 H           0.7739    2.7857   -0.4917 H       1  UNL1        0.0606
     27 H          -0.9996    2.7175   -0.2537 H       1  UNL1        0.0606
     28 H           0.4355    3.4522    3.8238 H       1  UNL1        0.1228
@<TRIPOS>BOND
     1     2     1    2
     2     3     2    1
     3     3    21    1
     4     3    22    1
     5     4     3    1
     6     5     4    1
     7     6     5    2
     8     6    23    1
     9     7     6    1
    10     8     7   ar
    11     8    24    1
    12     9     8   ar
    13     9    25    1
    14    10     9   ar
    15    11    10   ar
    16    11     7   ar
    17    12    10    1
    18    13    12    2
    19    14    12    2
    20    15     4   am
    21    16    15    2
    22    17    15   am
    23    17     2   am
    24    18    17    1
    25    18    26    1
    26    18    27    1
    27    19    18    1
    28    20    19    3
    29    20    28    1
