@<TRIPOS>MOLECULE
>117.sdf
 18 18 0 0 0
SMALL
GASTEIGER

@<TRIPOS>ATOM
      1 C           0.9490   -0.3065    0.5009 C.3     1  UNL1        0.1458
      2 N           2.3976   -0.1180    0.6830 N.3     1  UNL1       -0.2097
      3 O           2.7636    0.8846    1.3831 O.co2   1  UNL1       -0.6249
      4 C           3.2790   -0.9359    0.1491 C.2     1  UNL1        0.2196
      5 C           4.7081   -0.8813    0.2499 C.ar    1  UNL1        0.1944
      6 C           5.5701   -0.0480    0.9396 C.ar    1  UNL1       -0.0081
      7 C           6.8878   -0.4799    0.6521 C.ar    1  UNL1        0.0088
      8 C           6.7410   -1.5484   -0.1974 C.ar    1  UNL1        0.2804
      9 O           5.4292   -1.8132   -0.4495 O.2     1  UNL1       -0.4285
     10 N           7.7050   -2.3891   -0.8313 N.pl3   1  UNL1        0.0926
     11 O           8.8943   -2.1134   -0.6213 O.2     1  UNL1       -0.1231
     12 O           7.2890   -3.3192   -1.5351 O.2     1  UNL1       -0.1231
     13 H           0.4791   -0.2766    1.4881 H       1  UNL1        0.1001
     14 H           0.5781    0.5142   -0.1176 H       1  UNL1        0.1001
     15 H           0.7400   -1.2659    0.0232 H       1  UNL1        0.1001
     16 H           2.8517   -1.7600   -0.4475 H       1  UNL1        0.1424
     17 H           5.2788    0.7767    1.5777 H       1  UNL1        0.0658
     18 H           7.8173   -0.0639    1.0143 H       1  UNL1        0.0673
@<TRIPOS>UNITY_ATOM_ATTR
2 1
charge 1
3 1
charge -1
@<TRIPOS>BOND
     1     1    13    1
     2     1    14    1
     3     1    15    1
     4     2     1    1
     5     3     2    1
     6     4     2    2
     7     4    16    1
     8     5     4    1
     9     6     5   ar
    10     6    17    1
    11     7     6   ar
    12     7    18    1
    13     8     7   ar
    14     9     8   ar
    15     9     5   ar
    16    10     8    1
    17    11    10    2
    18    12    10    2
