@<TRIPOS>MOLECULE
>140.sdf
 46 51 0 0 0
SMALL
GASTEIGER

@<TRIPOS>ATOM
      1 C           1.1288    0.4619   -0.8181 C.3     1  UNL1        0.0820
      2 O           2.5553    0.4913   -0.7876 O.3     1  UNL1       -0.4645
      3 C           3.0766    1.2482    0.2127 C.2     1  UNL1        0.3390
      4 O           2.4336    1.8804    1.0353 O.2     1  UNL1       -0.2450
      5 C           4.5648    1.2132    0.1753 C.ar    1  UNL1        0.0603
      6 C           5.2634    0.4824   -0.7953 C.ar    1  UNL1       -0.0380
      7 C           6.6749    0.4361   -0.8523 C.ar    1  UNL1        0.0090
      8 C           7.3315    1.1947    0.1407 C.ar    1  UNL1        0.0554
      9 N           8.6788    1.3805    0.3626 N.ar    1  UNL1       -0.3536
     10 C           8.9207    2.1208    1.4859 C.ar    1  UNL1        0.0475
     11 C           7.6809    2.4791    2.0022 C.ar    1  UNL1        0.0074
     12 C           7.6525    3.2406    3.1880 C.ar    1  UNL1       -0.0520
     13 C           8.8602    3.6038    3.8007 C.ar    1  UNL1       -0.0611
     14 C          10.0832    3.2239    3.2520 C.ar    1  UNL1       -0.0598
     15 C          10.1374    2.4712    2.0789 C.ar    1  UNL1       -0.0378
     16 C           6.6777    1.9141    1.1431 C.ar    1  UNL1        0.0088
     17 C           5.2688    1.9262    1.1554 C.ar    1  UNL1       -0.0380
     18 C           7.3816   -0.3595   -1.8719 C.ar    1  UNL1        0.0140
     19 C           6.8704   -0.5672   -3.1856 C.ar    1  UNL1       -0.0440
     20 C           7.4758   -1.3826   -4.1901 C.ar    1  UNL1       -0.0151
     21 C           6.8749   -1.5442   -5.4449 C.ar    1  UNL1       -0.0539
     22 C           7.4575   -2.3569   -6.4248 C.ar    1  UNL1       -0.0612
     23 C           8.6588   -3.0198   -6.1755 C.ar    1  UNL1       -0.0611
     24 C           9.2890   -2.8756   -4.9447 C.ar    1  UNL1       -0.0519
     25 C           8.6973   -2.0644   -3.9572 C.ar    1  UNL1        0.0114
     26 C           9.2656   -1.8681   -2.6697 C.ar    1  UNL1        0.1208
     27 N          10.4112   -2.3577   -2.1546 N.ar    1  UNL1       -0.1542
     28 N          10.4073   -1.8578   -0.9221 N.ar    1  UNL1       -0.1956
     29 N           9.4097   -1.0561   -0.5548 N.ar    1  UNL1       -0.1542
     30 C           8.6152   -1.0327   -1.6459 C.ar    1  UNL1        0.1209
     31 H           0.7221    0.1392    0.1468 H       1  UNL1        0.0661
     32 H           0.7369    1.4442   -1.0967 H       1  UNL1        0.0661
     33 H           0.8225   -0.2623   -1.5786 H       1  UNL1        0.0661
     34 H           4.6939   -0.0923   -1.5238 H       1  UNL1        0.0632
     35 H           9.3947    0.9016   -0.1663 H       1  UNL1        0.1659
     36 H           6.7060    3.5296    3.6341 H       1  UNL1        0.0624
     37 H           8.8410    4.1836    4.7197 H       1  UNL1        0.0618
     38 H          11.0096    3.5113    3.7435 H       1  UNL1        0.0618
     39 H          11.0865    2.1651    1.6504 H       1  UNL1        0.0638
     40 H           4.7372    2.4754    1.9284 H       1  UNL1        0.0632
     41 H           5.9387   -0.0641   -3.4536 H       1  UNL1        0.0630
     42 H           5.9353   -1.0454   -5.6758 H       1  UNL1        0.0624
     43 H           6.9670   -2.4741   -7.3886 H       1  UNL1        0.0618
     44 H           9.1025   -3.6525   -6.9401 H       1  UNL1        0.0618
     45 H          10.2256   -3.3893   -4.7418 H       1  UNL1        0.0624
     46 H          11.1629   -2.0685   -0.2740 H       1  UNL1        0.2125
@<TRIPOS>BOND
     1     1    31    1
     2     1    32    1
     3     1    33    1
     4     2     1    1
     5     3     2    1
     6     4     3    2
     7     5     3    1
     8     6     5   ar
     9     6    34    1
    10     7     6   ar
    11     8     7   ar
    12     9     8   ar
    13     9    35    1
    14    10     9   ar
    15    11    10   ar
    16    12    11   ar
    17    12    36    1
    18    13    12   ar
    19    13    37    1
    20    14    13   ar
    21    14    38    1
    22    15    14   ar
    23    15    10   ar
    24    15    39    1
    25    16    11   ar
    26    16     8   ar
    27    17    16   ar
    28    17     5   ar
    29    17    40    1
    30    18     7    1
    31    19    18   ar
    32    19    41    1
    33    20    19   ar
    34    21    20   ar
    35    21    42    1
    36    22    21   ar
    37    22    43    1
    38    23    22   ar
    39    23    44    1
    40    24    23   ar
    41    24    45    1
    42    25    24   ar
    43    25    20   ar
    44    26    25   ar
    45    27    26   ar
    46    28    27   ar
    47    28    46    1
    48    29    28   ar
    49    30    29   ar
    50    30    18   ar
    51    30    26   ar
