@<TRIPOS>MOLECULE
>83.sdf
 40 42 0 0 0
SMALL
GASTEIGER

@<TRIPOS>ATOM
      1 O           1.6367    0.7025    1.7026 O.2     1  UNL1       -0.2693
      2 C           2.6460    0.4247    1.0609 C.2     1  UNL1        0.2549
      3 N           3.0789   -0.8870    0.8601 N.am    1  UNL1       -0.2811
      4 C           2.4407   -1.9399    1.5457 C.ar    1  UNL1        0.0340
      5 C           1.2461   -2.4639    1.0532 C.ar    1  UNL1       -0.0405
      6 C           0.6286   -3.5236    1.7176 C.ar    1  UNL1       -0.0597
      7 C           1.1825   -4.0297    2.8954 C.ar    1  UNL1       -0.0570
      8 C           2.3695   -3.4891    3.4140 C.ar    1  UNL1       -0.0287
      9 C           2.9429   -4.0175    4.7119 C.3     1  UNL1        0.0344
     10 N           3.8649   -5.0999    4.4188 N.pl3   1  UNL1       -0.3397
     11 C           4.4838   -5.8303    5.4328 C.ar    1  UNL1        0.0274
     12 C           4.4252   -5.5056    6.7916 C.ar    1  UNL1       -0.0408
     13 C           5.1364   -6.2469    7.7450 C.ar    1  UNL1       -0.0600
     14 C           5.9493   -7.3060    7.3482 C.ar    1  UNL1       -0.0616
     15 C           6.0504   -7.6222    5.9989 C.ar    1  UNL1       -0.0600
     16 C           5.3269   -6.8873    5.0547 C.ar    1  UNL1       -0.0408
     17 C           3.0206   -2.4671    2.7021 C.ar    1  UNL1       -0.0358
     18 C           3.5085    1.4695    0.5113 C.ar    1  UNL1        0.0763
     19 C           3.4152    2.8290    0.7713 C.ar    1  UNL1       -0.0402
     20 C           4.3447    3.6041    0.0165 C.ar    1  UNL1       -0.0234
     21 C           5.1212    2.7998   -0.7927 C.ar    1  UNL1        0.1641
     22 S           4.7655    1.1479   -0.6100 S.2     1  UNL1       -0.0599
     23 N           6.1287    3.2460   -1.7195 N.pl3   1  UNL1        0.0632
     24 O           6.2849    4.4680   -1.8205 O.2     1  UNL1       -0.1256
     25 O           6.7647    2.3862   -2.3465 O.2     1  UNL1       -0.1256
     26 H           4.0842   -0.9616    0.7632 H       1  UNL1        0.1551
     27 H           0.8040   -2.0724    0.1402 H       1  UNL1        0.0636
     28 H          -0.2887   -3.9535    1.3215 H       1  UNL1        0.0618
     29 H           0.6778   -4.8425    3.4138 H       1  UNL1        0.0621
     30 H           3.4578   -3.2025    5.2356 H       1  UNL1        0.0511
     31 H           2.1235   -4.3557    5.3582 H       1  UNL1        0.0511
     32 H           3.5546   -5.6955    3.6553 H       1  UNL1        0.1464
     33 H           3.8171   -4.6795    7.1460 H       1  UNL1        0.0636
     34 H           5.0612   -5.9898    8.7989 H       1  UNL1        0.0618
     35 H           6.5105   -7.8729    8.0859 H       1  UNL1        0.0618
     36 H           6.6988   -8.4309    5.6737 H       1  UNL1        0.0618
     37 H           5.4415   -7.1353    4.0024 H       1  UNL1        0.0636
     38 H           3.9455   -2.0503    3.0904 H       1  UNL1        0.0639
     39 H           2.6895    3.2458    1.4624 H       1  UNL1        0.0631
     40 H           4.4210    4.6851    0.0539 H       1  UNL1        0.0646
@<TRIPOS>BOND
     1     2     1    2
     2     3     2   am
     3     3    26    1
     4     4     3    1
     5     5     4   ar
     6     5    27    1
     7     6     5   ar
     8     6    28    1
     9     7     6   ar
    10     7    29    1
    11     8     7   ar
    12     9     8    1
    13     9    30    1
    14     9    31    1
    15    10     9    1
    16    10    32    1
    17    11    10    1
    18    12    11   ar
    19    12    33    1
    20    13    12   ar
    21    13    34    1
    22    14    13   ar
    23    14    35    1
    24    15    14   ar
    25    15    36    1
    26    16    15   ar
    27    16    11   ar
    28    16    37    1
    29    17     8   ar
    30    17     4   ar
    31    17    38    1
    32    18     2    1
    33    19    18   ar
    34    19    39    1
    35    20    19   ar
    36    20    40    1
    37    21    20   ar
    38    22    21   ar
    39    22    18   ar
    40    23    21    1
    41    24    23    2
    42    25    23    2
