@<TRIPOS>MOLECULE
>34.sdf
 45 48 0 0 0
SMALL
GASTEIGER

@<TRIPOS>ATOM
      1 CL          0.1227   -0.8963   -5.1261 Cl      1  UNL1       -0.0835
      2 C           1.2521   -0.5992   -3.8751 C.ar    1  UNL1        0.0410
      3 C           1.5786    0.7079   -3.5047 C.ar    1  UNL1       -0.0427
      4 C           2.5051    0.9500   -2.4833 C.ar    1  UNL1       -0.0496
      5 C           3.1414   -0.1167   -1.8429 C.ar    1  UNL1        0.0217
      6 C           2.8032   -1.4319   -2.2121 C.ar    1  UNL1       -0.0496
      7 C           1.8701   -1.6781   -3.2180 C.ar    1  UNL1       -0.0427
      8 C           4.1683    0.0428   -0.7670 C.2     1  UNL1        0.1861
      9 O           4.3657   -0.8787    0.0195 O.2     1  UNL1       -0.2873
     10 C           4.9523    1.3020   -0.6975 C.2     1  UNL1       -0.0138
     11 C           6.0393    1.3500    0.1053 C.2     1  UNL1       -0.0509
     12 C           6.8565    2.5601    0.2266 C.ar    1  UNL1       -0.0232
     13 C           6.5990    3.4986    1.2416 C.ar    1  UNL1       -0.0334
     14 C           7.3759    4.6681    1.3595 C.ar    1  UNL1        0.0319
     15 N           7.1657    5.5940    2.4373 N.pl3   1  UNL1       -0.3139
     16 C           8.1753    5.8945    3.4355 C.ar    1  UNL1        0.0420
     17 C           9.3893    5.2158    3.4097 C.ar    1  UNL1       -0.0218
     18 C           9.9334    4.8483    4.6129 C.ar    1  UNL1        0.0300
     19 N           9.4147    5.2120    5.7998 N.ar    1  UNL1       -0.2548
     20 C           8.4307    6.1218    5.8004 C.ar    1  UNL1        0.0738
     21 C           7.8080    6.5806    4.6225 C.ar    1  UNL1        0.0216
     22 C           6.9042    7.6751    4.7101 C.ar    1  UNL1       -0.0497
     23 C           6.6296    8.2717    5.9457 C.ar    1  UNL1       -0.0470
     24 C           7.1657    7.7135    7.1006 C.ar    1  UNL1        0.0199
     25 BR          6.7932    8.4720    8.7921 Br      1  UNL1       -0.0502
     26 C           8.0326    6.6284    7.0225 C.ar    1  UNL1       -0.0217
     27 C           8.3785    4.8985    0.4117 C.ar    1  UNL1       -0.0405
     28 C           8.6680    3.9503   -0.5717 C.ar    1  UNL1       -0.0595
     29 C           7.9095    2.7834   -0.6663 C.ar    1  UNL1       -0.0545
     30 H           1.0810    1.5402   -4.0000 H       1  UNL1        0.0632
     31 H           2.6985    1.9850   -2.2088 H       1  UNL1        0.0625
     32 H           3.2800   -2.2688   -1.7034 H       1  UNL1        0.0625
     33 H           1.6334   -2.6982   -3.4983 H       1  UNL1        0.0632
     34 H           4.6649    2.1584   -1.2851 H       1  UNL1        0.0656
     35 H           6.3573    0.4883    0.6852 H       1  UNL1        0.0625
     36 H           5.8047    3.2873    1.9540 H       1  UNL1        0.0642
     37 H           6.4098    5.1859    3.0013 H       1  UNL1        0.1522
     38 H           9.8467    4.8637    2.4968 H       1  UNL1        0.0651
     39 H          10.7905    4.1872    4.6504 H       1  UNL1        0.0830
     40 H           6.4958    8.1241    3.8054 H       1  UNL1        0.0625
     41 H           6.0186    9.1703    6.0018 H       1  UNL1        0.0629
     42 H           8.4519    6.1870    7.9233 H       1  UNL1        0.0650
     43 H           8.9720    5.8077    0.4687 H       1  UNL1        0.0636
     44 H           9.4917    4.1234   -1.2597 H       1  UNL1        0.0618
     45 H           8.1489    2.0540   -1.4374 H       1  UNL1        0.0623
@<TRIPOS>BOND
     1     2     1    1
     2     3     2   ar
     3     3    30    1
     4     4     3   ar
     5     4    31    1
     6     5     4   ar
     7     6     5   ar
     8     6    32    1
     9     7     6   ar
    10     7     2   ar
    11     7    33    1
    12     8     5    1
    13     9     8    2
    14    10     8    1
    15    10    34    1
    16    11    10    2
    17    11    35    1
    18    12    11    1
    19    13    12   ar
    20    13    36    1
    21    14    13   ar
    22    15    14    1
    23    15    37    1
    24    16    15    1
    25    17    16   ar
    26    17    38    1
    27    18    17   ar
    28    18    39    1
    29    19    18   ar
    30    20    19   ar
    31    21    20   ar
    32    21    16   ar
    33    22    21   ar
    34    22    40    1
    35    23    22   ar
    36    23    41    1
    37    24    23   ar
    38    25    24    1
    39    26    24   ar
    40    26    20   ar
    41    26    42    1
    42    27    14   ar
    43    27    43    1
    44    28    27   ar
    45    28    44    1
    46    29    28   ar
    47    29    12   ar
    48    29    45    1
