@<TRIPOS>MOLECULE
>115.sdf
 36 36 0 0 0
SMALL
GASTEIGER

@<TRIPOS>ATOM
      1 C           2.3660    1.6129    0.6124 C.3     1  UNL1       -0.0626
      2 C           3.1158    0.8583    1.7106 C.3     1  UNL1       -0.0436
      3 C           2.1731    0.6153    2.8935 C.3     1  UNL1       -0.0626
      4 C           3.7275   -0.4431    1.1568 C.3     1  UNL1       -0.0162
      5 C           4.5339   -1.1893    2.2194 C.3     1  UNL1        0.0930
      6 O           5.0640   -2.4259    1.7334 O.3     1  UNL1       -0.4616
      7 C           6.4182   -2.4701    1.6990 C.2     1  UNL1        0.3319
      8 O           7.1682   -1.5755    1.3475 O.2     1  UNL1       -0.2456
      9 C           6.8219   -3.7290    2.3580 C.2     1  UNL1        0.0231
     10 C           8.1088   -3.9718    2.6594 C.2     1  UNL1       -0.0477
     11 C           8.5325   -5.1507    3.4320 C.ar    1  UNL1       -0.0211
     12 C           9.7734   -5.7434    3.1484 C.ar    1  UNL1       -0.0509
     13 C          10.2112   -6.8700    3.8506 C.ar    1  UNL1       -0.0160
     14 C           9.4000   -7.3975    4.8564 C.ar    1  UNL1        0.1582
     15 O           9.7527   -8.5116    5.5670 O.3     1  UNL1       -0.5033
     16 C           8.1901   -6.7887    5.1718 C.ar    1  UNL1        0.1588
     17 O           7.4108   -7.2955    6.1728 O.3     1  UNL1       -0.5033
     18 C           7.7553   -5.6656    4.4802 C.ar    1  UNL1       -0.0094
     19 H           1.9660    2.5568    0.9973 H       1  UNL1        0.0232
     20 H           3.0304    1.8502   -0.2250 H       1  UNL1        0.0232
     21 H           1.5258    1.0238    0.2277 H       1  UNL1        0.0232
     22 H           3.9346    1.5030    2.0580 H       1  UNL1        0.0297
     23 H           1.3631   -0.0699    2.6180 H       1  UNL1        0.0232
     24 H           2.7027    0.1902    3.7512 H       1  UNL1        0.0232
     25 H           1.7245    1.5536    3.2328 H       1  UNL1        0.0232
     26 H           2.9451   -1.1029    0.7607 H       1  UNL1        0.0300
     27 H           4.3843   -0.2179    0.3072 H       1  UNL1        0.0300
     28 H           5.3174   -0.5436    2.6340 H       1  UNL1        0.0697
     29 H           3.8835   -1.4744    3.0493 H       1  UNL1        0.0697
     30 H           6.0195   -4.3899    2.6624 H       1  UNL1        0.0689
     31 H           8.8907   -3.2876    2.3375 H       1  UNL1        0.0626
     32 H          10.4086   -5.3398    2.3633 H       1  UNL1        0.0625
     33 H          11.1627   -7.3236    3.6057 H       1  UNL1        0.0655
     34 H          10.5822   -8.8556    5.1948 H       1  UNL1        0.2923
     35 H           7.9090   -8.0644    6.5091 H       1  UNL1        0.2923
     36 H           6.8150   -5.2089    4.7693 H       1  UNL1        0.0661
@<TRIPOS>BOND
     1     1    19    1
     2     1    20    1
     3     1    21    1
     4     2     1    1
     5     2    22    1
     6     3     2    1
     7     3    23    1
     8     3    24    1
     9     3    25    1
    10     4     2    1
    11     4    26    1
    12     4    27    1
    13     5     4    1
    14     5    28    1
    15     5    29    1
    16     6     5    1
    17     7     6    1
    18     8     7    2
    19     9     7    1
    20     9    30    1
    21    10     9    2
    22    10    31    1
    23    11    10    1
    24    12    11   ar
    25    12    32    1
    26    13    12   ar
    27    13    33    1
    28    14    13   ar
    29    15    14    1
    30    15    34    1
    31    16    14   ar
    32    17    16    1
    33    17    35    1
    34    18    16   ar
    35    18    11   ar
    36    18    36    1
