@<TRIPOS>MOLECULE
>35.sdf
 44 46 0 0 0
SMALL
GASTEIGER

@<TRIPOS>ATOM
      1 C           1.4050   -0.6907   -0.9524 C.3     1  UNL1       -0.0121
      2 S           2.3685    0.0240    0.4032 S.3     1  UNL1       -0.1091
      3 C           3.0759   -1.4563    1.1128 C.ar    1  UNL1        0.1023
      4 C           3.8593   -1.3273    2.2332 C.ar    1  UNL1       -0.0042
      5 C           4.3719   -2.4959    2.7451 C.ar    1  UNL1        0.0700
      6 C           5.1905   -2.4507    3.9652 C.2     1  UNL1       -0.0356
      7 C           5.7096   -3.5341    4.5621 C.2     1  UNL1       -0.0526
      8 C           6.5031   -3.4839    5.7953 C.ar    1  UNL1       -0.0247
      9 C           6.2683   -2.5489    6.8131 C.ar    1  UNL1       -0.0511
     10 C           7.0014   -2.5916    8.0033 C.ar    1  UNL1       -0.0194
     11 C           7.9596   -3.5834    8.2013 C.ar    1  UNL1        0.1210
     12 O           8.5625   -3.5927    9.4328 O.3     1  UNL1       -0.4874
     13 C           9.1153   -4.8585    9.8057 C.3     1  UNL1        0.1146
     14 C           9.3111   -4.9698   11.2983 C.ar    1  UNL1       -0.0104
     15 C           9.1096   -6.2119   11.9216 C.ar    1  UNL1       -0.0554
     16 C           9.3318   -6.3670   13.2887 C.ar    1  UNL1       -0.0614
     17 C           9.7669   -5.2845   14.0473 C.ar    1  UNL1       -0.0617
     18 C           9.9808   -4.0473   13.4385 C.ar    1  UNL1       -0.0614
     19 C           9.7586   -3.8901   12.0688 C.ar    1  UNL1       -0.0554
     20 C           8.2270   -4.4919    7.1755 C.ar    1  UNL1       -0.0194
     21 C           7.4906   -4.4539    5.9897 C.ar    1  UNL1       -0.0511
     22 N           4.1402   -3.6961    2.1822 N.ar    1  UNL1       -0.2152
     23 C           3.3883   -3.7113    1.0823 C.ar    1  UNL1        0.2141
     24 N           3.1454   -4.9343    0.4931 N.pl3   1  UNL1       -0.3274
     25 N           2.8212   -2.6398    0.5307 N.ar    1  UNL1       -0.2083
     26 H           2.0488   -1.2508   -1.6360 H       1  UNL1        0.0344
     27 H           0.6205   -1.3448   -0.5621 H       1  UNL1        0.0344
     28 H           0.9309    0.1185   -1.5142 H       1  UNL1        0.0344
     29 H           4.0520   -0.3643    2.6887 H       1  UNL1        0.0665
     30 H           5.3630   -1.4614    4.3776 H       1  UNL1        0.0639
     31 H           5.5593   -4.5233    4.1323 H       1  UNL1        0.0624
     32 H           5.4943   -1.7931    6.7091 H       1  UNL1        0.0625
     33 H           6.7970   -1.8686    8.7891 H       1  UNL1        0.0654
     34 H           8.4362   -5.6652    9.4999 H       1  UNL1        0.0748
     35 H          10.0894   -4.9889    9.3194 H       1  UNL1        0.0748
     36 H           8.7768   -7.0705   11.3413 H       1  UNL1        0.0621
     37 H           9.1684   -7.3331   13.7583 H       1  UNL1        0.0618
     38 H           9.9427   -5.4035   15.1127 H       1  UNL1        0.0618
     39 H          10.3247   -3.2035   14.0312 H       1  UNL1        0.0618
     40 H           9.9359   -2.9219   11.6052 H       1  UNL1        0.0621
     41 H           8.9938   -5.2536    7.2710 H       1  UNL1        0.0654
     42 H           7.6955   -5.1953    5.2205 H       1  UNL1        0.0625
     43 H           2.2785   -4.9066   -0.0240 H       1  UNL1        0.1452
     44 H           3.2608   -5.6735    1.1718 H       1  UNL1        0.1452
@<TRIPOS>BOND
     1     1    26    1
     2     1    27    1
     3     1    28    1
     4     2     1    1
     5     3     2    1
     6     4     3   ar
     7     4    29    1
     8     5     4   ar
     9     6     5    1
    10     6    30    1
    11     7     6    2
    12     7    31    1
    13     8     7    1
    14     9     8   ar
    15     9    32    1
    16    10     9   ar
    17    10    33    1
    18    11    10   ar
    19    12    11    1
    20    13    12    1
    21    13    34    1
    22    13    35    1
    23    14    13    1
    24    15    14   ar
    25    15    36    1
    26    16    15   ar
    27    16    37    1
    28    17    16   ar
    29    17    38    1
    30    18    17   ar
    31    18    39    1
    32    19    18   ar
    33    19    14   ar
    34    19    40    1
    35    20    11   ar
    36    20    41    1
    37    21    20   ar
    38    21     8   ar
    39    21    42    1
    40    22     5   ar
    41    23    22   ar
    42    24    23    1
    43    24    43    1
    44    24    44    1
    45    25    23   ar
    46    25     3   ar
