@<TRIPOS>MOLECULE
>57.sdf
 41 43 0 0 0
SMALL
GASTEIGER

@<TRIPOS>ATOM
      1 C           3.5784   -1.0500    0.5719 C.3     1  UNL1       -0.0494
      2 C           2.6570    0.0855    0.1192 C.3     1  UNL1        0.0097
      3 N           3.0458    0.7197   -1.1604 N.pl3   1  UNL1       -0.3258
      4 C           2.0558    1.6798   -1.7081 C.3     1  UNL1        0.0372
      5 C           1.0066    1.0239   -2.5884 C.ar    1  UNL1       -0.0301
      6 C          -0.2309    1.6670   -2.7705 C.ar    1  UNL1       -0.0557
      7 C          -1.2390    1.0778   -3.5390 C.ar    1  UNL1       -0.0431
      8 C          -1.0109   -0.1519   -4.1496 C.ar    1  UNL1        0.0410
      9 CL         -2.2779   -0.9212   -5.0233 Cl      1  UNL1       -0.0835
     10 C           0.2327   -0.7691   -4.0428 C.ar    1  UNL1       -0.0431
     11 C           1.2403   -0.1775   -3.2746 C.ar    1  UNL1       -0.0557
     12 C           4.3663    1.1288   -1.3701 C.ar    1  UNL1        0.0308
     13 C           4.8611    1.2361   -2.6743 C.ar    1  UNL1       -0.0386
     14 C           6.1977    1.5655   -2.9231 C.ar    1  UNL1       -0.0338
     15 C           7.0996    1.7632   -1.8872 C.ar    1  UNL1        0.0780
     16 N           8.3751    2.0350   -2.1684 N.ar    1  UNL1       -0.2146
     17 C           9.2041    2.1971   -1.1356 C.ar    1  UNL1        0.2148
     18 N          10.5186    2.4890   -1.4340 N.pl3   1  UNL1       -0.3274
     19 N           8.8835    2.0407    0.1466 N.ar    1  UNL1       -0.1995
     20 C           7.5997    1.7628    0.4097 C.ar    1  UNL1        0.1291
     21 N           7.2983    1.5597    1.7681 N.pl3   1  UNL1       -0.3425
     22 C           6.6272    1.6474   -0.5797 C.ar    1  UNL1        0.0418
     23 C           5.2606    1.4005   -0.3369 C.ar    1  UNL1       -0.0282
     24 H           3.1008   -1.6245    1.3715 H       1  UNL1        0.0245
     25 H           3.8240   -1.7287   -0.2489 H       1  UNL1        0.0245
     26 H           4.5202   -0.6871    0.9952 H       1  UNL1        0.0245
     27 H           1.6605   -0.3533   -0.0131 H       1  UNL1        0.0461
     28 H           2.5681    0.8381    0.9127 H       1  UNL1        0.0461
     29 H           1.5517    2.1770   -0.8683 H       1  UNL1        0.0513
     30 H           2.5250    2.4797   -2.2965 H       1  UNL1        0.0513
     31 H          -0.4235    2.6310   -2.3028 H       1  UNL1        0.0621
     32 H          -2.1988    1.5761   -3.6465 H       1  UNL1        0.0632
     33 H           0.4224   -1.7154   -4.5414 H       1  UNL1        0.0632
     34 H           2.2064   -0.6723   -3.1979 H       1  UNL1        0.0621
     35 H           4.2092    1.0353   -3.5222 H       1  UNL1        0.0637
     36 H           6.5465    1.6380   -3.9496 H       1  UNL1        0.0639
     37 H          10.7258    2.1902   -2.3768 H       1  UNL1        0.1452
     38 H          11.1218    2.1582   -0.6950 H       1  UNL1        0.1452
     39 H           6.8708    0.6516    1.9076 H       1  UNL1        0.1437
     40 H           8.1758    1.6380    2.2768 H       1  UNL1        0.1437
     41 H           4.9135    1.4166    0.6952 H       1  UNL1        0.0644
@<TRIPOS>BOND
     1     1    24    1
     2     1    25    1
     3     1    26    1
     4     2     1    1
     5     2    27    1
     6     2    28    1
     7     3     2    1
     8     4     3    1
     9     4    29    1
    10     4    30    1
    11     5     4    1
    12     6     5   ar
    13     6    31    1
    14     7     6   ar
    15     7    32    1
    16     8     7   ar
    17     9     8    1
    18    10     8   ar
    19    10    33    1
    20    11    10   ar
    21    11     5   ar
    22    11    34    1
    23    12     3    1
    24    13    12   ar
    25    13    35    1
    26    14    13   ar
    27    14    36    1
    28    15    14   ar
    29    16    15   ar
    30    17    16   ar
    31    18    17    1
    32    18    37    1
    33    18    38    1
    34    19    17   ar
    35    20    19   ar
    36    21    20    1
    37    21    39    1
    38    21    40    1
    39    22    20   ar
    40    22    15   ar
    41    23    22   ar
    42    23    12   ar
    43    23    41    1
