@<TRIPOS>MOLECULE
>48.sdf
 33 35 0 0 0
SMALL
GASTEIGER

@<TRIPOS>ATOM
      1 BR          1.4886    0.8928    1.0870 Br      1  UNL1       -0.0487
      2 C           3.0673    0.1926    0.3927 C.ar    1  UNL1        0.0356
      3 C           4.0701   -0.2465    1.1729 C.ar    1  UNL1        0.0273
      4 N           5.2353   -0.7705    0.5984 N.ar    1  UNL1       -0.2784
      5 C           5.3921   -0.8677   -0.7941 C.ar    1  UNL1        0.1538
      6 N           6.5440   -1.4240   -1.1117 N.ar    1  UNL1       -0.2275
      7 C           7.2081   -1.6644    0.0683 C.ar    1  UNL1        0.1125
      8 C           8.5647   -2.2872    0.0109 C.3     1  UNL1        0.1166
      9 S           9.8721   -1.0641    0.0215 S.O2    1  UNL1        0.0026
     10 O           9.8025   -0.2656   -1.1886 O.2     1  UNL1       -0.1690
     11 O           9.9017   -0.4147    1.3196 O.2     1  UNL1       -0.1690
     12 C          11.3514   -2.0538   -0.1072 C.ar    1  UNL1        0.0886
     13 C          11.8966   -2.3178   -1.3685 C.ar    1  UNL1       -0.0369
     14 C          13.0803   -3.0514   -1.4657 C.ar    1  UNL1       -0.0600
     15 C          13.7169   -3.5074   -0.3116 C.ar    1  UNL1       -0.0616
     16 C          13.1740   -3.2334    0.9457 C.ar    1  UNL1       -0.0600
     17 C          11.9905   -2.4997    1.0531 C.ar    1  UNL1       -0.0369
     18 C           6.4010   -1.2967    1.1310 C.ar    1  UNL1        0.2248
     19 N           6.6536   -1.4421    2.5269 N.pl3   1  UNL1        0.0757
     20 O           5.8221   -1.0011    3.3243 O.2     1  UNL1       -0.1246
     21 O           7.6854   -2.0462    2.8380 O.2     1  UNL1       -0.1246
     22 C           4.3243   -0.3867   -1.6180 C.ar    1  UNL1        0.0617
     23 BR          4.5207   -0.4830   -3.4714 Br      1  UNL1       -0.0465
     24 C           3.2140    0.1192   -1.0492 C.ar    1  UNL1       -0.0288
     25 H           3.9923   -0.2033    2.2517 H       1  UNL1        0.0825
     26 H           8.7344   -2.9746    0.8425 H       1  UNL1        0.0570
     27 H           8.6685   -2.8567   -0.9191 H       1  UNL1        0.0570
     28 H          11.4222   -1.9444   -2.2739 H       1  UNL1        0.0636
     29 H          13.5170   -3.2520   -2.4422 H       1  UNL1        0.0618
     30 H          14.6467   -4.0665   -0.3903 H       1  UNL1        0.0618
     31 H          13.6855   -3.5753    1.8419 H       1  UNL1        0.0618
     32 H          11.5892   -2.2693    2.0381 H       1  UNL1        0.0636
     33 H           2.3977    0.4878   -1.6656 H       1  UNL1        0.0641
@<TRIPOS>BOND
     1     2     1    1
     2     3     2   ar
     3     3    25    1
     4     4     3   ar
     5     5     4   ar
     6     6     5   ar
     7     7     6   ar
     8     8     7    1
     9     8    26    1
    10     8    27    1
    11     9     8    1
    12    10     9    2
    13    11     9    2
    14    12     9    1
    15    13    12   ar
    16    13    28    1
    17    14    13   ar
    18    14    29    1
    19    15    14   ar
    20    15    30    1
    21    16    15   ar
    22    16    31    1
    23    17    16   ar
    24    17    12   ar
    25    17    32    1
    26    18     7   ar
    27    18     4   ar
    28    19    18    1
    29    20    19    2
    30    21    19    2
    31    22     5   ar
    32    23    22    1
    33    24    22   ar
    34    24     2   ar
    35    24    33    1
