@<TRIPOS>MOLECULE
>44.sdf
 42 45 0 0 0
SMALL
GASTEIGER

@<TRIPOS>ATOM
      1 C           6.0786   -6.5884   -3.9899 C.3     1  UNL1       -0.0471
      2 C           6.8041   -5.6012   -4.8842 C.3     1  UNL1        0.0205
      3 N           6.4361   -4.2272   -4.5726 N.ar    1  UNL1       -0.3465
      4 C           5.3696   -3.5773   -5.1366 C.ar    1  UNL1        0.0112
      5 C           5.2419   -2.3299   -4.5468 C.ar    1  UNL1        0.0050
      6 C           4.1124   -1.3272   -4.7041 C.3     1  UNL1        0.0888
      7 N           3.0164   -1.7883   -5.5549 N.ar    1  UNL1       -0.3253
      8 C           1.7778   -2.1696   -5.0915 C.ar    1  UNL1        0.0250
      9 C           1.0952   -2.6033   -6.2025 C.ar    1  UNL1        0.0454
     10 N           1.8761   -2.4940   -7.3221 N.ar    1  UNL1       -0.2440
     11 C           3.0211   -2.0001   -6.9030 C.ar    1  UNL1        0.0967
     12 C           4.6870    0.0267   -5.1060 C.ar    1  UNL1       -0.0018
     13 C           5.7058    0.1439   -6.0753 C.ar    1  UNL1       -0.0535
     14 C           6.3490    1.3658   -6.2980 C.ar    1  UNL1       -0.0430
     15 C           5.9815    2.4886   -5.5698 C.ar    1  UNL1        0.0424
     16 CL          6.8437    3.9642   -5.7724 Cl      1  UNL1       -0.0835
     17 C           4.9316    2.4217   -4.6645 C.ar    1  UNL1       -0.0247
     18 C           4.2776    1.2049   -4.4439 C.ar    1  UNL1        0.0478
     19 CL          2.9794    1.2207   -3.3009 Cl      1  UNL1       -0.0831
     20 C           6.3570   -2.2055   -3.6392 C.ar    1  UNL1        0.0064
     21 C           7.0507   -3.4208   -3.6413 C.ar    1  UNL1        0.0495
     22 C           8.1360   -3.6617   -2.7823 C.ar    1  UNL1       -0.0366
     23 C           8.5544   -2.6305   -1.9379 C.ar    1  UNL1       -0.0458
     24 C           7.9134   -1.3988   -1.9582 C.ar    1  UNL1        0.0186
     25 BR          8.5275   -0.0001   -0.8419 Br      1  UNL1       -0.0503
     26 C           6.8124   -1.1743   -2.7874 C.ar    1  UNL1       -0.0382
     27 H           6.3886   -7.6083   -4.2262 H       1  UNL1        0.0247
     28 H           6.2896   -6.3990   -2.9325 H       1  UNL1        0.0247
     29 H           4.9930   -6.5188   -4.1269 H       1  UNL1        0.0247
     30 H           7.8893   -5.6948   -4.7796 H       1  UNL1        0.0489
     31 H           6.5614   -5.7797   -5.9381 H       1  UNL1        0.0489
     32 H           4.7480   -4.0843   -5.8657 H       1  UNL1        0.0813
     33 H           3.6876   -1.2628   -3.6939 H       1  UNL1        0.0630
     34 H           1.5032   -2.1213   -4.0465 H       1  UNL1        0.0825
     35 H           0.0863   -2.9942   -6.2511 H       1  UNL1        0.0845
     36 H           3.8808   -1.8098   -7.5311 H       1  UNL1        0.1029
     37 H           6.0477   -0.7271   -6.6320 H       1  UNL1        0.0622
     38 H           7.1657    1.4184   -7.0162 H       1  UNL1        0.0632
     39 H           4.6378    3.3093   -4.1066 H       1  UNL1        0.0647
     40 H           8.6400   -4.6237   -2.7595 H       1  UNL1        0.0639
     41 H           9.3896   -2.8031   -1.2639 H       1  UNL1        0.0629
     42 H           6.3195   -0.2088   -2.7756 H       1  UNL1        0.0635
@<TRIPOS>BOND
     1     1    27    1
     2     1    28    1
     3     1    29    1
     4     2     1    1
     5     2    30    1
     6     2    31    1
     7     3     2    1
     8     4     3   ar
     9     4    32    1
    10     5     4   ar
    11     7     6    1
    12     8     7   ar
    13     8    34    1
    14     9     8   ar
    15     9    35    1
    16    10     9   ar
    17    11    10   ar
    18    11     7   ar
    19    11    36    1
    20    12     6    1
    21    13    12   ar
    22    13    37    1
    23    14    13   ar
    24    14    38    1
    25    15    14   ar
    26    16    15    1
    27    17    15   ar
    28    17    39    1
    29    18    17   ar
    30    18    12   ar
    31    19    18    1
    32    20     5   ar
    33    21    20   ar
    34    21     3   ar
    35    22    21   ar
    36    22    40    1
    37    23    22   ar
    38    23    41    1
    39    24    23   ar
    40    25    24    1
    41    26    24   ar
    42    26    20   ar
    43    26    42    1
    44     6    33    1
    45     6     5    1
