@<TRIPOS>MOLECULE
>142.sdf
 45 48 0 0 0
SMALL
GASTEIGER

@<TRIPOS>ATOM
      1 C          10.2276   -6.4818    0.1254 C.3     1  UNL1        0.0790
      2 O          10.0841   -6.4923   -1.2920 O.3     1  UNL1       -0.4914
      3 C           8.9710   -5.8571   -1.7972 C.ar    1  UNL1        0.1632
      4 C           8.5259   -6.2579   -3.0811 C.ar    1  UNL1        0.1798
      5 O           9.2193   -7.3197   -3.6078 O.3     1  UNL1       -0.4901
      6 C           9.3462   -7.4342   -5.0160 C.3     1  UNL1        0.0790
      7 C           7.3947   -5.6257   -3.6230 C.ar    1  UNL1        0.0864
      8 CL          6.6425   -6.0366   -5.1252 Cl      1  UNL1       -0.0796
      9 C           6.7329   -4.6229   -2.8986 C.ar    1  UNL1       -0.0355
     10 C           7.1657   -4.2361   -1.6245 C.ar    1  UNL1       -0.0295
     11 C           8.3098   -4.8416   -1.0956 C.ar    1  UNL1       -0.0121
     12 C           6.3520   -3.2232   -0.8122 C.3     1  UNL1        0.0562
     13 C           5.8363   -3.8542    0.4719 C.2     1  UNL1        0.0981
     14 C           5.2427   -5.2381    0.2649 C.1     1  UNL1        0.1008
     15 N           4.7502   -6.3861    0.0932 N.1     1  UNL1       -0.1910
     16 C           5.9581   -3.2591    1.6709 C.2     1  UNL1        0.1987
     17 N           5.4486   -3.7350    2.8482 N.pl3   1  UNL1       -0.3284
     18 O           6.6612   -2.0553    1.7975 O.2     1  UNL1       -0.4370
     19 C           7.2855   -1.4846    0.6912 C.2     1  UNL1        0.1848
     20 C           7.1307   -1.9748   -0.5454 C.2     1  UNL1        0.0585
     21 C           7.7222   -1.2985   -1.7153 C.2     1  UNL1        0.1944
     22 O           7.2992   -1.4818   -2.8487 O.2     1  UNL1       -0.2868
     23 C           8.8500   -0.4032   -1.4654 C.ar    1  UNL1        0.0330
     24 C           9.0428    0.1230   -0.1928 C.ar    1  UNL1        0.0362
     25 C          10.0924    1.0223    0.0200 C.ar    1  UNL1       -0.0501
     26 C          10.9552    1.3492   -1.0311 C.ar    1  UNL1       -0.0610
     27 C          10.7772    0.7837   -2.2953 C.ar    1  UNL1       -0.0610
     28 C           9.7158   -0.0882   -2.5185 C.ar    1  UNL1       -0.0502
     29 C           8.1650   -0.3020    0.9235 C.2     1  UNL1        0.2291
     30 O           8.2104    0.2639    2.0078 O.2     1  UNL1       -0.2833
     31 H          10.5160   -5.4875    0.4832 H       1  UNL1        0.0660
     32 H           9.3130   -6.8261    0.6220 H       1  UNL1        0.0660
     33 H          11.0340   -7.1706    0.3917 H       1  UNL1        0.0660
     34 H           8.4548   -7.8885   -5.4548 H       1  UNL1        0.0660
     35 H           9.5972   -6.4785   -5.4870 H       1  UNL1        0.0660
     36 H          10.1669   -8.1301   -5.2178 H       1  UNL1        0.0660
     37 H           5.8502   -4.1517   -3.3312 H       1  UNL1        0.0636
     38 H           8.6589   -4.5282   -0.1169 H       1  UNL1        0.0658
     39 H           5.4640   -2.9379   -1.3956 H       1  UNL1        0.0457
     40 H           5.8833   -3.3496    3.6824 H       1  UNL1        0.1451
     41 H           5.2124   -4.7221    2.9010 H       1  UNL1        0.1451
     42 H          10.2506    1.4625    1.0033 H       1  UNL1        0.0625
     43 H          11.7764    2.0448   -0.8651 H       1  UNL1        0.0618
     44 H          11.4604    1.0236   -3.1074 H       1  UNL1        0.0618
     45 H           9.5705   -0.5289   -3.5035 H       1  UNL1        0.0625
@<TRIPOS>BOND
     1     1    31    1
     2     1    32    1
     3     1    33    1
     4     2     1    1
     5     3     2    1
     6     4     3   ar
     7     5     4    1
     8     6     5    1
     9     6    34    1
    10     6    35    1
    11     6    36    1
    12     7     4   ar
    13     8     7    1
    14     9     7   ar
    15     9    37    1
    16    10     9   ar
    17    11    10   ar
    18    11     3   ar
    19    11    38    1
    20    13    12    1
    21    14    13    1
    22    15    14    3
    23    16    13    2
    24    17    16    1
    25    17    40    1
    26    17    41    1
    27    18    16    1
    28    19    18    1
    29    20    19    2
    30    20    12    1
    31    21    20    1
    32    22    21    2
    33    23    21    1
    34    24    23   ar
    35    25    24   ar
    36    25    42    1
    37    26    25   ar
    38    26    43    1
    39    27    26   ar
    40    27    44    1
    41    28    27   ar
    42    28    23   ar
    43    28    45    1
    44    29    24    1
    45    29    19    1
    46    30    29    2
    47    12    39    1
    48    12    10    1
