@<TRIPOS>MOLECULE
>109.sdf
 22 24 0 0 0
SMALL
GASTEIGER

@<TRIPOS>ATOM
      1 O           2.5161   -1.4692   -6.6387 O.2     1  UNL1       -0.2456
      2 C           3.3905   -0.6541   -6.4242 C.2     1  UNL1        0.3327
      3 O           4.6709   -0.6682   -6.9115 O.3     1  UNL1       -0.4464
      4 C           5.4627    0.0983   -5.9672 C.3     1  UNL1        0.1755
      5 C           6.7554    0.8374   -6.4053 C.3     1  UNL1       -0.0008
      6 C           7.6130   -0.2815   -5.7974 C.3     1  UNL1       -0.0008
      7 C           6.3675   -0.8475   -5.0669 C.3     1  UNL1        0.1755
      8 O           6.2555   -0.6360   -3.6427 O.3     1  UNL1       -0.4464
      9 C           5.8573   -1.8243   -3.0760 C.2     1  UNL1        0.3327
     10 O           5.5348   -1.9985   -1.9201 O.2     1  UNL1       -0.2456
     11 C           5.9200   -2.8744   -4.1136 C.2     1  UNL1        0.0225
     12 C           6.2246   -2.3069   -5.2754 C.2     1  UNL1       -0.0300
     13 C           4.4885    1.0046   -5.3396 C.2     1  UNL1       -0.0300
     14 C           3.2594    0.5525   -5.5939 C.2     1  UNL1        0.0225
     15 H           6.8832    1.0155   -7.4604 H       1  UNL1        0.0310
     16 H           6.9220    1.7833   -5.8572 H       1  UNL1        0.0310
     17 H           8.4276    0.0404   -5.1479 H       1  UNL1        0.0310
     18 H           8.0294   -0.9388   -6.5702 H       1  UNL1        0.0310
     19 H           5.7588   -3.9153   -3.8967 H       1  UNL1        0.0687
     20 H           6.3682   -2.8258   -6.2131 H       1  UNL1        0.0615
     21 H           4.7149    1.9587   -4.8827 H       1  UNL1        0.0615
     22 H           2.3125    1.0000   -5.3400 H       1  UNL1        0.0687
@<TRIPOS>BOND
     1     3     2    1
     2     4     3    1
     3     5     4    1
     4     6     5    1
     5     7     6    1
     6     7     4    1
     7     8     7    1
     8     9     8    1
     9    11     9    1
    10    12    11    2
    11    12     7    1
    12    13     4    1
    13    14    13    2
    14    14     2    1
    15     2     1    2
    16     5    15    1
    17     5    16    1
    18     6    17    1
    19     6    18    1
    20    10     9    2
    21    11    19    1
    22    12    20    1
    23    13    21    1
    24    14    22    1
