@<TRIPOS>MOLECULE
>133.sdf
 34 36 0 0 0
SMALL
GASTEIGER

@<TRIPOS>ATOM
      1 O           3.3420   -0.4967    0.9949 O.3     1  UNL1       -0.4771
      2 C           2.5537   -0.0126    0.0076 C.2     1  UNL1        0.3375
      3 O           1.3383   -0.0125    0.0803 O.2     1  UNL1       -0.2451
      4 C           3.3201    0.5106   -1.1536 C.ar    1  UNL1        0.0700
      5 C           4.4318   -0.2214   -1.5780 C.ar    1  UNL1       -0.0217
      6 C           5.1641    0.2512   -2.6502 C.ar    1  UNL1        0.0654
      7 C           6.3556   -0.4836   -3.0976 C.2     1  UNL1       -0.0357
      8 C           7.1559   -0.0939   -4.1024 C.2     1  UNL1       -0.0512
      9 C           8.3028   -0.9084   -4.5216 C.ar    1  UNL1       -0.0066
     10 C           9.6031   -0.7321   -4.0194 C.ar    1  UNL1        0.0481
     11 CL          9.9669    0.4736   -2.8372 Cl      1  UNL1       -0.0829
     12 C          10.6482   -1.5484   -4.4679 C.ar    1  UNL1       -0.0428
     13 C          10.4075   -2.5468   -5.4098 C.ar    1  UNL1       -0.0603
     14 C           9.1191   -2.7360   -5.9047 C.ar    1  UNL1       -0.0611
     15 C           8.0739   -1.9225   -5.4642 C.ar    1  UNL1       -0.0532
     16 N           4.8160    1.3680   -3.3214 N.ar    1  UNL1       -0.2472
     17 C           3.7219    2.0546   -2.9426 C.ar    1  UNL1        0.0724
     18 C           3.3766    3.1805   -3.6804 C.ar    1  UNL1       -0.0357
     19 C           2.2647    3.9639   -3.3600 C.ar    1  UNL1       -0.0597
     20 C           1.4719    3.6160   -2.2795 C.ar    1  UNL1       -0.0611
     21 C           1.7965    2.4906   -1.5267 C.ar    1  UNL1       -0.0518
     22 C           2.9197    1.6801   -1.8461 C.ar    1  UNL1        0.0144
     23 H           4.7131   -1.1520   -1.0964 H       1  UNL1        0.0647
     24 H           6.5806   -1.4022   -2.5624 H       1  UNL1        0.0639
     25 H           6.9789    0.8206   -4.6633 H       1  UNL1        0.0625
     26 H          11.6564   -1.4074   -4.0826 H       1  UNL1        0.0632
     27 H          11.2224   -3.1771   -5.7568 H       1  UNL1        0.0618
     28 H           8.9266   -3.5167   -6.6381 H       1  UNL1        0.0618
     29 H           7.0726   -2.0827   -5.8648 H       1  UNL1        0.0624
     30 H           3.9940    3.4635   -4.5280 H       1  UNL1        0.0639
     31 H           2.0218    4.8372   -3.9625 H       1  UNL1        0.0618
     32 H           0.6013    4.2133   -2.0201 H       1  UNL1        0.0618
     33 H           1.1496    2.2402   -0.6859 H       1  UNL1        0.0624
     34 H           4.2960   -0.3124    0.9109 H       1  UNL1        0.2954
@<TRIPOS>BOND
     1     2     1    1
     2     3     2    2
     3     4     2    1
     4     5     4   ar
     5     5    23    1
     6     6     5   ar
     7     7     6    1
     8     7    24    1
     9     8     7    2
    10     8    25    1
    11     9     8    1
    12    10     9   ar
    13    11    10    1
    14    12    10   ar
    15    12    26    1
    16    13    12   ar
    17    13    27    1
    18    14    13   ar
    19    14    28    1
    20    15    14   ar
    21    15     9   ar
    22    15    29    1
    23    16     6   ar
    24    17    16   ar
    25    18    17   ar
    26    18    30    1
    27    19    18   ar
    28    19    31    1
    29    20    19   ar
    30    20    32    1
    31    21    20   ar
    32    21    33    1
    33    22    21   ar
    34    22     4   ar
    35    22    17   ar
    36     1    34    1
