@<TRIPOS>MOLECULE
>3.sdf
 44 48 0 0 0
SMALL
GASTEIGER

@<TRIPOS>ATOM
      1 C           1.0500    0.0460    0.0586 C.3     1  UNL1       -0.0396
      2 C           2.5471   -0.0434    0.0470 C.ar    1  UNL1       -0.0484
      3 C           3.3320    1.1158    0.0191 C.ar    1  UNL1       -0.0328
      4 C           4.7237    1.0818    0.0092 C.ar    1  UNL1        0.0725
      5 N           5.3581    2.2624   -0.0281 N.ar    1  UNL1       -0.2459
      6 C           6.7070    2.2882   -0.0254 C.ar    1  UNL1        0.0839
      7 C           7.4670    1.1167    0.0514 C.ar    1  UNL1        0.0598
      8 C           8.9212    1.3453    0.1429 C.2     1  UNL1        0.2356
      9 O           9.6670    0.7173    0.8771 O.2     1  UNL1       -0.2831
     10 C           9.4547    2.5207   -0.6458 C.2     1  UNL1        0.2336
     11 O          10.4318    2.4168   -1.3701 O.2     1  UNL1       -0.2832
     12 C           8.6898    3.7565   -0.4728 C.ar    1  UNL1        0.0347
     13 C           7.3353    3.6302   -0.1147 C.ar    1  UNL1        0.0120
     14 C           6.6344    4.8205    0.1318 C.ar    1  UNL1       -0.0519
     15 C           7.2678    6.0672    0.0311 C.ar    1  UNL1       -0.0611
     16 C           8.6082    6.1546   -0.3469 C.ar    1  UNL1       -0.0610
     17 C           9.3254    4.9943   -0.6150 C.ar    1  UNL1       -0.0502
     18 C           6.8399   -0.1568    0.0895 C.ar    1  UNL1        0.0043
     19 C           7.6415   -1.4225    0.2063 C.ar    1  UNL1       -0.0164
     20 C           7.2835   -2.4415    1.1152 C.ar    1  UNL1       -0.0518
     21 C           8.0452   -3.6075    1.2696 C.ar    1  UNL1       -0.0309
     22 C           9.2516   -3.7346    0.5809 C.ar    1  UNL1        0.1262
     23 C           9.6478   -2.7473   -0.3215 C.ar    1  UNL1       -0.0309
     24 C           8.8218   -1.6339   -0.5375 C.ar    1  UNL1       -0.0518
     25 N          10.1178   -4.8916    0.8342 N.pl3   1  UNL1        0.0564
     26 O           9.6809   -5.7861    1.5733 O.2     1  UNL1       -0.1261
     27 O          11.2341   -4.9075    0.2966 O.2     1  UNL1       -0.1261
     28 C           5.3992   -0.1645    0.0344 C.ar    1  UNL1        0.0088
     29 C           4.5835   -1.3288   -0.0015 C.ar    1  UNL1       -0.0517
     30 C           3.1884   -1.2731    0.0341 C.ar    1  UNL1       -0.0581
     31 H           0.7056    0.5979    0.9388 H       1  UNL1        0.0278
     32 H           0.6964    0.5489   -0.8468 H       1  UNL1        0.0278
     33 H           0.5909   -0.9484    0.0884 H       1  UNL1        0.0278
     34 H           2.8406    2.0884    0.0062 H       1  UNL1        0.0642
     35 H           5.5841    4.7876    0.4188 H       1  UNL1        0.0624
     36 H           6.7099    6.9753    0.2510 H       1  UNL1        0.0618
     37 H           9.0943    7.1247   -0.4200 H       1  UNL1        0.0618
     38 H          10.3740    5.0500   -0.9011 H       1  UNL1        0.0625
     39 H           6.3972   -2.3410    1.7401 H       1  UNL1        0.0624
     40 H           7.6992   -4.3804    1.9531 H       1  UNL1        0.0640
     41 H          10.5999   -2.8074   -0.8459 H       1  UNL1        0.0640
     42 H           9.1697   -0.8953   -1.2582 H       1  UNL1        0.0624
     43 H           5.0221   -2.3214   -0.0627 H       1  UNL1        0.0624
     44 H           2.6168   -2.1989    0.0459 H       1  UNL1        0.0620
@<TRIPOS>BOND
     1     1    31    1
     2     1    32    1
     3     1    33    1
     4     2     1    1
     5     3     2   ar
     6     3    34    1
     7     4     3   ar
     8     5     4   ar
     9     6     5   ar
    10     7     6   ar
    11     8     7    1
    12     9     8    2
    13    10     8    1
    14    11    10    2
    15    12    10    1
    16    13    12   ar
    17    13     6    1
    18    14    13   ar
    19    14    35    1
    20    15    14   ar
    21    15    36    1
    22    16    15   ar
    23    16    37    1
    24    17    16   ar
    25    17    12   ar
    26    17    38    1
    27    18     7   ar
    28    19    18    1
    29    20    19   ar
    30    20    39    1
    31    21    20   ar
    32    21    40    1
    33    22    21   ar
    34    23    22   ar
    35    23    41    1
    36    24    23   ar
    37    24    19   ar
    38    24    42    1
    39    25    22    1
    40    26    25    2
    41    27    25    2
    42    28    18   ar
    43    28     4   ar
    44    29    28   ar
    45    29    43    1
    46    30    29   ar
    47    30     2   ar
    48    30    44    1
