@<TRIPOS>MOLECULE
>136.sdf
 50 51 0 0 0
SMALL
GASTEIGER

@<TRIPOS>ATOM
      1 C           5.1013   -2.8874   -0.9587 C.3     1  UNL1       -0.0408
      2 N           4.5009   -1.5204   -0.5936 N.4     1  UNL1        0.2460
      3 C           5.0708   -0.4693   -1.5438 C.3     1  UNL1       -0.0408
      4 C           2.9574   -1.5643   -0.6386 C.3     1  UNL1        0.0208
      5 I           2.1220   -2.0975   -2.5100 I       1  UNL1       -0.0277
      6 C           4.9686   -1.2310    0.8536 C.3     1  UNL1       -0.0299
      7 C           4.5031    0.1162    1.4196 C.3     1  UNL1       -0.0122
      8 C           5.0625    0.3768    2.8292 C.3     1  UNL1       -0.0448
      9 C           6.5920    0.4511    2.8301 C.3     1  UNL1       -0.0337
     10 C           7.2003    0.6848    4.1803 C.2     1  UNL1       -0.0757
     11 C           8.5330    0.7175    4.4052 C.2     1  UNL1       -0.0147
     12 C           9.4897    0.5689    3.2867 C.ar    1  UNL1       -0.0176
     13 C           9.8966    1.6899    2.5520 C.ar    1  UNL1       -0.0540
     14 C          10.8237    1.5542    1.5174 C.ar    1  UNL1       -0.0612
     15 C          11.3482    0.2991    1.2107 C.ar    1  UNL1       -0.0617
     16 C          10.9455   -0.8220    1.9353 C.ar    1  UNL1       -0.0612
     17 C          10.0186   -0.6888    2.9705 C.ar    1  UNL1       -0.0540
     18 C           8.9909    0.8871    5.7964 C.ar    1  UNL1       -0.0176
     19 C           9.2139   -0.2352    6.6033 C.ar    1  UNL1       -0.0540
     20 C           9.7177   -0.0798    7.8945 C.ar    1  UNL1       -0.0612
     21 C           9.9963    1.1951    8.3850 C.ar    1  UNL1       -0.0617
     22 C           9.7627    2.3172    7.5907 C.ar    1  UNL1       -0.0612
     23 C           9.2594    2.1649    6.2986 C.ar    1  UNL1       -0.0540
     24 H           4.8997   -3.1105   -2.0081 H       1  UNL1        0.0778
     25 H           6.1845   -2.8379   -0.8073 H       1  UNL1        0.0778
     26 H           4.6606   -3.6443   -0.3029 H       1  UNL1        0.0778
     27 H           4.9413   -0.8072   -2.5748 H       1  UNL1        0.0778
     28 H           4.5433    0.4746   -1.3867 H       1  UNL1        0.0778
     29 H           6.1385   -0.3550   -1.3313 H       1  UNL1        0.0778
     30 H           2.6429   -2.2679    0.1403 H       1  UNL1        0.0930
     31 H           2.6031   -0.5661   -0.3668 H       1  UNL1        0.0930
     32 H           4.6034   -2.0535    1.4803 H       1  UNL1        0.0815
     33 H           6.0603   -1.2846    0.8180 H       1  UNL1        0.0815
     34 H           4.8076    0.9419    0.7682 H       1  UNL1        0.0317
     35 H           3.4108    0.1445    1.4887 H       1  UNL1        0.0317
     36 H           4.6495    1.3237    3.2000 H       1  UNL1        0.0270
     37 H           4.7168   -0.4088    3.5123 H       1  UNL1        0.0270
     38 H           6.9916   -0.4988    2.4631 H       1  UNL1        0.0308
     39 H           6.9020    1.2449    2.1410 H       1  UNL1        0.0308
     40 H           6.5202    0.8013    5.0231 H       1  UNL1        0.0578
     41 H           9.5108    2.6765    2.7977 H       1  UNL1        0.0624
     42 H          11.1553    2.4311    0.9667 H       1  UNL1        0.0618
     43 H          12.0897    0.1990    0.4215 H       1  UNL1        0.0618
     44 H          11.3736   -1.7956    1.7106 H       1  UNL1        0.0618
     45 H           9.7296   -1.5651    3.5450 H       1  UNL1        0.0624
     46 H           9.0174   -1.2345    6.2247 H       1  UNL1        0.0624
     47 H           9.9078   -0.9531    8.5126 H       1  UNL1        0.0618
     48 H          10.4052    1.3141    9.3852 H       1  UNL1        0.0618
     49 H           9.9857    3.3096    7.9735 H       1  UNL1        0.0618
     50 H           9.0974    3.0443    5.6811 H       1  UNL1        0.0624
@<TRIPOS>UNITY_ATOM_ATTR
2 1
charge 1
@<TRIPOS>BOND
     1     1    24    1
     2     1    25    1
     3     1    26    1
     4     2     1    1
     5     3     2    1
     6     3    27    1
     7     3    28    1
     8     3    29    1
     9     4     2    1
    10     4    30    1
    11     4    31    1
    12     5     4    1
    13     6     2    1
    14     6    32    1
    15     6    33    1
    16     7     6    1
    17     7    34    1
    18     7    35    1
    19     8     7    1
    20     8    36    1
    21     8    37    1
    22     9     8    1
    23     9    38    1
    24     9    39    1
    25    10     9    1
    26    10    40    1
    27    11    10    2
    28    12    11    1
    29    13    12   ar
    30    13    41    1
    31    14    13   ar
    32    14    42    1
    33    15    14   ar
    34    15    43    1
    35    16    15   ar
    36    16    44    1
    37    17    16   ar
    38    17    12   ar
    39    17    45    1
    40    18    11    1
    41    19    18   ar
    42    19    46    1
    43    20    19   ar
    44    20    47    1
    45    21    20   ar
    46    21    48    1
    47    22    21   ar
    48    22    49    1
    49    23    22   ar
    50    23    18   ar
    51    23    50    1
