@<TRIPOS>MOLECULE
>112.sdf
 39 41 0 0 0
SMALL
GASTEIGER

@<TRIPOS>ATOM
      1 N           3.1368   -1.8611    0.9449 N.am    1  UNL1       -0.3120
      2 C           2.4363   -1.3334   -0.0923 C.2     1  UNL1        0.3165
      3 O           1.2210   -1.1999   -0.0633 O.2     1  UNL1       -0.2513
      4 N           3.2086   -0.9726   -1.1694 N.am    1  UNL1       -0.1910
      5 N           4.5634   -1.1072   -1.1320 N.2     1  UNL1       -0.1865
      6 C           5.2119   -0.7586   -2.1936 C.2     1  UNL1        0.0528
      7 C           6.6811   -0.8902   -2.2175 C.ar    1  UNL1       -0.0052
      8 C           7.3411   -1.3990   -1.0932 C.ar    1  UNL1       -0.0496
      9 C           8.7296   -1.5165   -1.0847 C.ar    1  UNL1       -0.0187
     10 C           9.4643   -1.1520   -2.2144 C.ar    1  UNL1        0.1307
     11 O          10.8386   -1.1987   -2.2765 O.3     1  UNL1       -0.4309
     12 C          11.5736   -2.1089   -1.6030 C.ar    1  UNL1        0.3465
     13 N          11.0873   -3.3363   -1.3252 N.ar    1  UNL1        0.0405
     14 O          12.0952   -4.0363   -0.6393 O.2     1  UNL1       -0.0573
     15 N          13.1551   -3.2206   -0.5660 N.ar    1  UNL1        0.2421
     16 O          14.3109   -3.5808    0.1116 O.3     1  UNL1       -0.2395
     17 C          12.9234   -2.0029   -1.1706 C.ar    1  UNL1        0.3868
     18 C          13.8825   -0.9142   -1.2814 C.ar    1  UNL1        0.0617
     19 C          15.2603   -1.1741   -1.3649 C.ar    1  UNL1       -0.0478
     20 C          16.1795   -0.1296   -1.4746 C.ar    1  UNL1       -0.0610
     21 C          15.7346    1.1875   -1.5224 C.ar    1  UNL1       -0.0617
     22 C          14.3723    1.4627   -1.4513 C.ar    1  UNL1       -0.0610
     23 C          13.4491    0.4201   -1.3279 C.ar    1  UNL1       -0.0478
     24 C           8.8051   -0.6293   -3.3331 C.ar    1  UNL1       -0.0187
     25 C           7.4101   -0.5024   -3.3409 C.ar    1  UNL1       -0.0496
     26 H           2.6551   -1.9903    1.8201 H       1  UNL1        0.1465
     27 H           4.1255   -1.6507    0.9337 H       1  UNL1        0.1465
     28 H           2.7326   -0.5884   -1.9757 H       1  UNL1        0.1788
     29 H           4.7091   -0.3605   -3.0969 H       1  UNL1        0.0851
     30 H           6.7775   -1.7014   -0.2127 H       1  UNL1        0.0625
     31 H           9.2007   -1.8922   -0.1817 H       1  UNL1        0.0654
     32 H          14.0959   -4.4819    0.4129 H       1  UNL1        0.3885
     33 H          15.6625   -2.1832   -1.3664 H       1  UNL1        0.0626
     34 H          17.2453   -0.3425   -1.5337 H       1  UNL1        0.0618
     35 H          16.4522    2.0001   -1.6215 H       1  UNL1        0.0618
     36 H          14.0297    2.4955   -1.4928 H       1  UNL1        0.0618
     37 H          12.3954    0.6884   -1.2679 H       1  UNL1        0.0626
     38 H           9.3733   -0.3164   -4.2061 H       1  UNL1        0.0654
     39 H           6.9121   -0.0985   -4.2197 H       1  UNL1        0.0625
@<TRIPOS>UNITY_ATOM_ATTR
15 1
charge 1
@<TRIPOS>BOND
     1     1    26    1
     2     1    27    1
     3     2     1   am
     4     3     2    2
     5     4     2   am
     6     4    28    1
     7     5     4    1
     8     6     5    2
     9     6    29    1
    10     7     6    1
    11     8     7   ar
    12     8    30    1
    13     9     8   ar
    14     9    31    1
    15    10     9   ar
    16    11    10    1
    17    12    11    1
    18    13    12   ar
    19    14    13   ar
    20    15    14   ar
    21    16    15    1
    22    16    32    1
    23    17    15   ar
    24    17    12   ar
    25    18    17    1
    26    19    18   ar
    27    19    33    1
    28    20    19   ar
    29    20    34    1
    30    21    20   ar
    31    21    35    1
    32    22    21   ar
    33    22    36    1
    34    23    22   ar
    35    23    18   ar
    36    23    37    1
    37    24    10   ar
    38    24    38    1
    39    25    24   ar
    40    25     7   ar
    41    25    39    1
