@<TRIPOS>MOLECULE
>203.sdf
 35 36 0 0 0
SMALL
GASTEIGER

@<TRIPOS>ATOM
      1 N           3.6338   -1.2206    0.3648 N.am    1  UNL1       -0.3394
      2 C           2.7830   -0.2078    0.0882 C.2     1  UNL1        0.1473
      3 S           1.1396   -0.4313    0.0441 S.2     1  UNL1       -0.0174
      4 N           3.3598    1.0110   -0.1455 N.am    1  UNL1       -0.2180
      5 N           4.7177    1.1594   -0.1703 N.2     1  UNL1       -0.1806
      6 C           5.2337    2.3355   -0.3865 C.2     1  UNL1        0.0890
      7 C           4.4761    3.6177   -0.6262 C.2     1  UNL1       -0.0337
      8 C           4.9276    4.8160   -0.2135 C.2     1  UNL1       -0.0525
      9 C           4.3466    6.1209   -0.5776 C.ar    1  UNL1       -0.0250
     10 C           4.5788    7.2251    0.2557 C.ar    1  UNL1       -0.0546
     11 C           4.1329    8.5008   -0.1039 C.ar    1  UNL1       -0.0612
     12 C           3.4589    8.6907   -1.3074 C.ar    1  UNL1       -0.0617
     13 C           3.2367    7.6076   -2.1537 C.ar    1  UNL1       -0.0612
     14 C           3.6829    6.3320   -1.7942 C.ar    1  UNL1       -0.0546
     15 C           6.7361    2.4174   -0.4430 C.ar    1  UNL1        0.0019
     16 C           7.3849    3.3153   -1.3045 C.ar    1  UNL1       -0.0525
     17 C           8.7758    3.4157   -1.3053 C.ar    1  UNL1       -0.0611
     18 C           9.5313    2.5872   -0.4818 C.ar    1  UNL1       -0.0617
     19 C           8.9001    1.6480    0.3350 C.ar    1  UNL1       -0.0611
     20 C           7.5049    1.5625    0.3567 C.ar    1  UNL1       -0.0525
     21 H           3.3033   -2.1651    0.5160 H       1  UNL1        0.1440
     22 H           4.6231   -1.0213    0.3007 H       1  UNL1        0.1440
     23 H           2.7443    1.7901   -0.3371 H       1  UNL1        0.1762
     24 H           3.5537    3.5249   -1.1855 H       1  UNL1        0.0640
     25 H           5.8302    4.8847    0.3907 H       1  UNL1        0.0624
     26 H           5.1203    7.1072    1.1923 H       1  UNL1        0.0623
     27 H           4.3210    9.3472    0.5520 H       1  UNL1        0.0618
     28 H           3.1184    9.6834   -1.5916 H       1  UNL1        0.0618
     29 H           2.7278    7.7564   -3.1028 H       1  UNL1        0.0618
     30 H           3.5263    5.5164   -2.4951 H       1  UNL1        0.0623
     31 H           6.8200    3.9522   -1.9804 H       1  UNL1        0.0624
     32 H           9.2650    4.1435   -1.9483 H       1  UNL1        0.0618
     33 H          10.6152    2.6664   -0.4827 H       1  UNL1        0.0618
     34 H           9.4950    0.9864    0.9587 H       1  UNL1        0.0618
     35 H           7.0256    0.8322    1.0040 H       1  UNL1        0.0624
@<TRIPOS>BOND
     1     1    21    1
     2     1    22    1
     3     2     1    1
     4     3     2    2
     5     4     2    1
     6     4    23    1
     7     5     4    1
     8     6     5    2
     9     7     6    1
    10     7    24    1
    11     8     7    2
    12     8    25    1
    13     9     8    1
    14    10     9   ar
    15    10    26    1
    16    11    10   ar
    17    11    27    1
    18    12    11   ar
    19    12    28    1
    20    13    12   ar
    21    13    29    1
    22    14    13   ar
    23    14     9   ar
    24    14    30    1
    25    15     6    1
    26    16    15   ar
    27    16    31    1
    28    17    16   ar
    29    17    32    1
    30    18    17   ar
    31    18    33    1
    32    19    18   ar
    33    19    34    1
    34    20    19   ar
    35    20    15   ar
    36    20    35    1
