@<TRIPOS>MOLECULE
>35.sdf
 44 46 0 0 0
SMALL
GASTEIGER

@<TRIPOS>ATOM
      1 C           1.8668   -1.5658   -0.6320 C.3     1  UNL1       -0.0121
      2 S           2.4225   -0.0438    0.1762 S.3     1  UNL1       -0.1091
      3 C           3.0795   -0.7088    1.6998 C.ar    1  UNL1        0.1023
      4 C           3.5584    0.1717    2.6406 C.ar    1  UNL1       -0.0042
      5 C           4.0373   -0.3935    3.7984 C.ar    1  UNL1        0.0700
      6 C           4.5161    0.4748    4.8823 C.2     1  UNL1       -0.0356
      7 C           4.9895    0.0201    6.0538 C.2     1  UNL1       -0.0526
      8 C           5.4019    0.8801    7.1702 C.ar    1  UNL1       -0.0247
      9 C           4.7814    2.1044    7.4541 C.ar    1  UNL1       -0.0511
     10 C           5.1221    2.8279    8.6022 C.ar    1  UNL1       -0.0194
     11 C           6.0697    2.3255    9.4918 C.ar    1  UNL1        0.1210
     12 O           6.2513    3.0464   10.6455 O.3     1  UNL1       -0.4874
     13 C           6.7722    2.2755   11.7333 C.3     1  UNL1        0.1146
     14 C           6.4935    2.9061   13.0758 C.ar    1  UNL1       -0.0104
     15 C           6.2372    2.0701   14.1763 C.ar    1  UNL1       -0.0554
     16 C           6.0468    2.6038   15.4496 C.ar    1  UNL1       -0.0614
     17 C           6.1192    3.9803   15.6397 C.ar    1  UNL1       -0.0617
     18 C           6.3791    4.8213   14.5572 C.ar    1  UNL1       -0.0614
     19 C           6.5688    4.2881   13.2804 C.ar    1  UNL1       -0.0554
     20 C           6.7363    1.1384    9.1818 C.ar    1  UNL1       -0.0194
     21 C           6.3906    0.4118    8.0403 C.ar    1  UNL1       -0.0511
     22 N           4.0612   -1.7238    4.0014 N.ar    1  UNL1       -0.2152
     23 C           3.5947   -2.4930    3.0172 C.ar    1  UNL1        0.2141
     24 N           3.6074   -3.8581    3.2126 N.pl3   1  UNL1       -0.3274
     25 N           3.0789   -2.0405    1.8758 N.ar    1  UNL1       -0.2083
     26 H           2.6990   -2.2618   -0.7684 H       1  UNL1        0.0344
     27 H           1.0758   -2.0441   -0.0477 H       1  UNL1        0.0344
     28 H           1.4642   -1.3166   -1.6172 H       1  UNL1        0.0344
     29 H           3.5453    1.2412    2.4813 H       1  UNL1        0.0665
     30 H           4.4553    1.5431    4.6958 H       1  UNL1        0.0639
     31 H           5.0713   -1.0514    6.2299 H       1  UNL1        0.0624
     32 H           3.9976    2.4950    6.8106 H       1  UNL1        0.0625
     33 H           4.6126    3.7627    8.8214 H       1  UNL1        0.0654
     34 H           6.3093    1.2799   11.7378 H       1  UNL1        0.0748
     35 H           7.8584    2.1779   11.6201 H       1  UNL1        0.0748
     36 H           6.1879    0.9907   14.0460 H       1  UNL1        0.0621
     37 H           5.8489    1.9436   16.2899 H       1  UNL1        0.0618
     38 H           5.9771    4.3978   16.6329 H       1  UNL1        0.0618
     39 H           6.4393    5.8958   14.7105 H       1  UNL1        0.0618
     40 H           6.7817    4.9551   12.4475 H       1  UNL1        0.0621
     41 H           7.5155    0.7359    9.8204 H       1  UNL1        0.0654
     42 H           6.8932   -0.5336    7.8474 H       1  UNL1        0.0625
     43 H           2.8855   -4.2964    2.6590 H       1  UNL1        0.1452
     44 H           3.6271   -4.0658    4.2010 H       1  UNL1        0.1452
@<TRIPOS>BOND
     1     1    26    1
     2     1    27    1
     3     1    28    1
     4     2     1    1
     5     3     2    1
     6     4     3   ar
     7     4    29    1
     8     5     4   ar
     9     6     5    1
    10     6    30    1
    11     7     6    2
    12     7    31    1
    13     8     7    1
    14     9     8   ar
    15     9    32    1
    16    10     9   ar
    17    10    33    1
    18    11    10   ar
    19    12    11    1
    20    13    12    1
    21    13    34    1
    22    13    35    1
    23    14    13    1
    24    15    14   ar
    25    15    36    1
    26    16    15   ar
    27    16    37    1
    28    17    16   ar
    29    17    38    1
    30    18    17   ar
    31    18    39    1
    32    19    18   ar
    33    19    14   ar
    34    19    40    1
    35    20    11   ar
    36    20    41    1
    37    21    20   ar
    38    21     8   ar
    39    21    42    1
    40    22     5   ar
    41    23    22   ar
    42    24    23    1
    43    24    43    1
    44    24    44    1
    45    25    23   ar
    46    25     3   ar
