@<TRIPOS>MOLECULE
>3.sdf
 44 48 0 0 0
SMALL
GASTEIGER

@<TRIPOS>ATOM
      1 C           1.0394    0.0340    0.0509 C.3     1  UNL1       -0.0396
      2 C           2.5337   -0.0595    0.0413 C.ar    1  UNL1       -0.0484
      3 C           3.3238    1.0994    0.0163 C.ar    1  UNL1       -0.0328
      4 C           4.7134    1.0607    0.0030 C.ar    1  UNL1        0.0725
      5 N           5.3495    2.2457   -0.0369 N.ar    1  UNL1       -0.2459
      6 C           6.6995    2.2693   -0.0370 C.ar    1  UNL1        0.0839
      7 C           7.4572    1.0992    0.0395 C.ar    1  UNL1        0.0598
      8 C           8.9129    1.3259    0.1329 C.2     1  UNL1        0.2356
      9 O           9.6592    0.6995    0.8665 O.2     1  UNL1       -0.2831
     10 C           9.4471    2.4993   -0.6633 C.2     1  UNL1        0.2336
     11 O          10.4238    2.3957   -1.3836 O.2     1  UNL1       -0.2832
     12 C           8.6798    3.7382   -0.4864 C.ar    1  UNL1        0.0347
     13 C           7.3265    3.6105   -0.1270 C.ar    1  UNL1        0.0120
     14 C           6.6256    4.8008    0.1180 C.ar    1  UNL1       -0.0519
     15 C           7.2590    6.0488    0.0144 C.ar    1  UNL1       -0.0611
     16 C           8.5980    6.1349   -0.3650 C.ar    1  UNL1       -0.0610
     17 C           9.3151    4.9748   -0.6313 C.ar    1  UNL1       -0.0502
     18 C           6.8350   -0.1731    0.0820 C.ar    1  UNL1        0.0043
     19 C           7.6351   -1.4416    0.1956 C.ar    1  UNL1       -0.0164
     20 C           7.2818   -2.4627    1.1036 C.ar    1  UNL1       -0.0518
     21 C           8.0437   -3.6303    1.2489 C.ar    1  UNL1       -0.0309
     22 C           9.2434   -3.7588    0.5482 C.ar    1  UNL1        0.1262
     23 C           9.6360   -2.7672   -0.3507 C.ar    1  UNL1       -0.0309
     24 C           8.8110   -1.6511   -0.5554 C.ar    1  UNL1       -0.0518
     25 N          10.1037   -4.9250    0.7799 N.pl3   1  UNL1        0.0564
     26 O           9.6851   -5.8056    1.5458 O.2     1  UNL1       -0.1261
     27 O          11.1961   -4.9635    0.1964 O.2     1  UNL1       -0.1261
     28 C           5.3902   -0.1830    0.0272 C.ar    1  UNL1        0.0088
     29 C           4.5743   -1.3474   -0.0057 C.ar    1  UNL1       -0.0517
     30 C           3.1770   -1.2892    0.0299 C.ar    1  UNL1       -0.0581
     31 H           0.6973    0.5900    0.9294 H       1  UNL1        0.0278
     32 H           0.6874    0.5357   -0.8556 H       1  UNL1        0.0278
     33 H           0.5772   -0.9587    0.0842 H       1  UNL1        0.0278
     34 H           2.8327    2.0723   -0.0049 H       1  UNL1        0.0642
     35 H           5.5747    4.7686    0.4046 H       1  UNL1        0.0624
     36 H           6.7008    6.9566    0.2339 H       1  UNL1        0.0618
     37 H           9.0837    7.1055   -0.4432 H       1  UNL1        0.0618
     38 H          10.3627    5.0288   -0.9200 H       1  UNL1        0.0625
     39 H           6.3995   -2.3632    1.7343 H       1  UNL1        0.0624
     40 H           7.7021   -4.4047    1.9329 H       1  UNL1        0.0640
     41 H          10.5841   -2.8265   -0.8822 H       1  UNL1        0.0640
     42 H           9.1558   -0.9096   -1.2748 H       1  UNL1        0.0624
     43 H           5.0103   -2.3407   -0.0614 H       1  UNL1        0.0624
     44 H           2.6044   -2.2147    0.0418 H       1  UNL1        0.0620
@<TRIPOS>BOND
     1     1    31    1
     2     1    32    1
     3     1    33    1
     4     2     1    1
     5     3     2   ar
     6     3    34    1
     7     4     3   ar
     8     5     4   ar
     9     6     5   ar
    10     7     6   ar
    11     8     7    1
    12     9     8    2
    13    10     8    1
    14    11    10    2
    15    12    10    1
    16    13    12   ar
    17    13     6    1
    18    14    13   ar
    19    14    35    1
    20    15    14   ar
    21    15    36    1
    22    16    15   ar
    23    16    37    1
    24    17    16   ar
    25    17    12   ar
    26    17    38    1
    27    18     7   ar
    28    19    18    1
    29    20    19   ar
    30    20    39    1
    31    21    20   ar
    32    21    40    1
    33    22    21   ar
    34    23    22   ar
    35    23    41    1
    36    24    23   ar
    37    24    19   ar
    38    24    42    1
    39    25    22    1
    40    26    25    2
    41    27    25    2
    42    28    18   ar
    43    28     4   ar
    44    29    28   ar
    45    29    43    1
    46    30    29   ar
    47    30     2   ar
    48    30    44    1
