@<TRIPOS>MOLECULE
>214.sdf
 30 31 0 0 0
SMALL
GASTEIGER

@<TRIPOS>ATOM
      1 CL         -1.9734   -0.2919   -0.0176 Cl      1  UNL1       -0.0835
      2 C          -0.2643   -0.1043   -0.0031 C.ar    1  UNL1        0.0411
      3 C           0.2869    1.1668    0.0571 C.ar    1  UNL1       -0.0416
      4 C           1.6765    1.3198    0.0749 C.ar    1  UNL1       -0.0391
      5 C           2.5355    0.2139    0.0354 C.ar    1  UNL1        0.0349
      6 N           3.9529    0.3206    0.0614 N.am    1  UNL1       -0.2681
      7 C           4.6685    1.5054    0.1159 C.2     1  UNL1        0.3233
      8 O           4.1703    2.6269    0.1488 O.2     1  UNL1       -0.2507
      9 N           6.0512    1.3328    0.1263 N.am    1  UNL1       -0.1904
     10 N           6.7861    2.4807    0.1166 N.2     1  UNL1       -0.1834
     11 C           8.0738    2.4522    0.1110 C.2     1  UNL1        0.0880
     12 C           8.7507    3.7232    0.0601 C.ar    1  UNL1        0.1501
     13 C           8.2402    5.0134    0.0394 C.ar    1  UNL1       -0.0125
     14 C           9.3403    5.8971   -0.0548 C.ar    1  UNL1        0.0086
     15 C          10.4494    5.0869   -0.0818 C.ar    1  UNL1        0.2802
     16 O          10.1180    3.7651   -0.0061 O.2     1  UNL1       -0.4330
     17 N          11.8391    5.4002   -0.1879 N.pl3   1  UNL1        0.0926
     18 O          12.1255    6.6010   -0.2874 O.2     1  UNL1       -0.1231
     19 O          12.6453    4.4607   -0.1759 O.2     1  UNL1       -0.1231
     20 C           1.9619   -1.0632   -0.0302 C.ar    1  UNL1       -0.0391
     21 C           0.5668   -1.2213   -0.0493 C.ar    1  UNL1       -0.0416
     22 H          -0.3447    2.0508    0.0922 H       1  UNL1        0.0633
     23 H           2.0464    2.3387    0.1226 H       1  UNL1        0.0636
     24 H           4.4752   -0.5403    0.0324 H       1  UNL1        0.1564
     25 H           6.4982    0.4284    0.0842 H       1  UNL1        0.1788
     26 H           8.6671    1.5237    0.1325 H       1  UNL1        0.0883
     27 H           7.1868    5.2672    0.0770 H       1  UNL1        0.0656
     28 H           9.3242    6.9778   -0.1060 H       1  UNL1        0.0673
     29 H           2.5809   -1.9554   -0.0674 H       1  UNL1        0.0636
     30 H           0.1331   -2.2167   -0.0991 H       1  UNL1        0.0633
@<TRIPOS>BOND
     1     2     1    1
     2     3     2   ar
     3     3    22    1
     4     4     3   ar
     5     4    23    1
     6     5     4   ar
     7     6     5    1
     8     6    24    1
     9     7     6   am
    10     8     7    2
    11     9     7   am
    12     9    25    1
    13    10     9    1
    14    11    10    2
    15    11    26    1
    16    12    11    1
    17    13    12   ar
    18    13    27    1
    19    14    13   ar
    20    14    28    1
    21    15    14   ar
    22    16    15   ar
    23    16    12   ar
    24    17    15    1
    25    18    17    2
    26    19    17    2
    27    20     5   ar
    28    20    29    1
    29    21    20   ar
    30    21     2   ar
    31    21    30    1
