@<TRIPOS>MOLECULE
>152.sdf
 26 27 0 0 0
SMALL
GASTEIGER

@<TRIPOS>ATOM
      1 O           1.9055   -1.0625   -0.1518 O.3     1  UNL1       -0.3805
      2 C           0.6599   -0.7193    0.4183 C.3     1  UNL1        0.1549
      3 C          -0.4357   -1.5961   -0.1317 C.3     1  UNL1        0.0212
      4 C          -1.6870   -0.7484    0.0398 C.3     1  UNL1        0.1100
      5 C          -2.7018   -1.0441   -1.0738 C.3     1  UNL1        0.0097
      6 C          -3.9883   -0.2557   -0.9832 C.ar    1  UNL1       -0.0439
      7 C          -4.0924    1.0028   -1.5961 C.ar    1  UNL1       -0.0585
      8 C          -5.2878    1.7228   -1.5437 C.ar    1  UNL1       -0.0615
      9 C          -6.3929    1.1934   -0.8837 C.ar    1  UNL1       -0.0617
     10 C          -6.3023   -0.0568   -0.2719 C.ar    1  UNL1       -0.0615
     11 C          -5.1038   -0.7759   -0.3163 C.ar    1  UNL1       -0.0585
     12 O          -1.2318    0.6100   -0.0463 O.3     1  UNL1       -0.4591
     13 C           0.1228    0.6684    0.1025 C.2     1  UNL1        0.3364
     14 O           0.7874    1.6782   -0.0404 O.2     1  UNL1       -0.2479
     15 H           1.9764   -0.6012   -1.0080 H       1  UNL1        0.2105
     16 H           0.7355   -0.8154    1.5065 H       1  UNL1        0.0711
     17 H          -0.5036   -2.5582    0.3862 H       1  UNL1        0.0331
     18 H          -0.2401   -1.8215   -1.1883 H       1  UNL1        0.0331
     19 H          -2.1319   -0.8965    1.0321 H       1  UNL1        0.0738
     20 H          -2.2491   -0.8319   -2.0511 H       1  UNL1        0.0349
     21 H          -2.9422   -2.1148   -1.0748 H       1  UNL1        0.0349
     22 H          -3.2446    1.4272   -2.1286 H       1  UNL1        0.0620
     23 H          -5.3553    2.6957   -2.0236 H       1  UNL1        0.0618
     24 H          -7.3241    1.7507   -0.8486 H       1  UNL1        0.0618
     25 H          -7.1681   -0.4748    0.2323 H       1  UNL1        0.0618
     26 H          -5.0581   -1.7523    0.1602 H       1  UNL1        0.0620
@<TRIPOS>BOND
     1     1    15    1
     2     2     1    1
     3     2    16    1
     4     3     2    1
     5     3    17    1
     6     3    18    1
     7     4     3    1
     8     4    19    1
     9     5     4    1
    10     5    20    1
    11     5    21    1
    12     6     5    1
    13     7     6   ar
    14     7    22    1
    15     8     7   ar
    16     8    23    1
    17     9     8   ar
    18     9    24    1
    19    10     9   ar
    20    10    25    1
    21    11    10   ar
    22    11     6   ar
    23    11    26    1
    24    12     4    1
    25    13    12    1
    26    13     2    1
    27    14    13    2
