@<TRIPOS>MOLECULE
>202.sdf
 45 47 0 0 0
SMALL
GASTEIGER

@<TRIPOS>ATOM
      1 C           1.0630    0.3344   -0.3838 C.3     1  UNL1        0.0790
      2 O           2.3693   -0.0035    0.0680 O.3     1  UNL1       -0.4913
      3 C           3.0591   -0.9447   -0.6535 C.ar    1  UNL1        0.1657
      4 C           2.7554   -1.2255   -1.9938 C.ar    1  UNL1       -0.0089
      5 C           3.5181   -2.1256   -2.7481 C.ar    1  UNL1       -0.0177
      6 C           3.2122   -2.4206   -4.1575 C.2     1  UNL1       -0.0476
      7 C           2.6496   -1.5344   -4.9932 C.2     1  UNL1        0.0235
      8 C           2.5120   -1.8401   -6.4340 C.2     1  UNL1        0.3372
      9 O           2.8443   -2.8788   -6.9789 O.2     1  UNL1       -0.2452
     10 O           2.0504   -0.6888   -7.0444 O.3     1  UNL1       -0.4227
     11 C           2.8016   -0.2783   -8.1565 C.ar    1  UNL1        0.1327
     12 C           4.1985   -0.3023   -8.1285 C.ar    1  UNL1       -0.0049
     13 C           4.8549    0.2736   -9.1975 C.ar    1  UNL1        0.0688
     14 C           4.1906    0.8639  -10.2516 C.ar    1  UNL1        0.0039
     15 C           5.1875    1.4199  -11.1887 C.3     1  UNL1        0.1186
     16 O           6.4515    1.0767  -10.5797 O.3     1  UNL1       -0.4564
     17 C           6.2901    0.4082   -9.3982 C.2     1  UNL1        0.3400
     18 O           7.1641    0.0131   -8.6576 O.2     1  UNL1       -0.2449
     19 C           2.8053    0.8901  -10.2885 C.ar    1  UNL1       -0.0511
     20 C           2.1031    0.3177   -9.2203 C.ar    1  UNL1       -0.0188
     21 C           4.6001   -2.7645   -2.1371 C.ar    1  UNL1       -0.0089
     22 C           4.9398   -2.4797   -0.8078 C.ar    1  UNL1        0.1657
     23 O           5.9995   -3.0805   -0.1681 O.3     1  UNL1       -0.4913
     24 C           7.1258   -3.3745   -0.9886 C.3     1  UNL1        0.0790
     25 C           4.1531   -1.5887   -0.0472 C.ar    1  UNL1        0.2035
     26 O           4.5877   -1.3754    1.2411 O.3     1  UNL1       -0.4885
     27 C           3.5886   -1.1377    2.2248 C.3     1  UNL1        0.0791
     28 H           1.1010    0.9015   -1.3197 H       1  UNL1        0.0660
     29 H           0.4388   -0.5599   -0.4870 H       1  UNL1        0.0660
     30 H           0.6037    0.9804    0.3694 H       1  UNL1        0.0660
     31 H           1.9230   -0.7263   -2.4752 H       1  UNL1        0.0661
     32 H           3.5237   -3.3972   -4.5264 H       1  UNL1        0.0626
     33 H           2.3724   -0.5321   -4.6901 H       1  UNL1        0.0689
     34 H           4.7646   -0.7242   -7.3061 H       1  UNL1        0.0662
     35 H           5.1353    0.9568  -12.1787 H       1  UNL1        0.0749
     36 H           5.1224    2.5088  -11.2613 H       1  UNL1        0.0749
     37 H           2.2704    1.3590  -11.1095 H       1  UNL1        0.0623
     38 H           1.0162    0.3487   -9.2064 H       1  UNL1        0.0654
     39 H           5.1808   -3.4827   -2.7086 H       1  UNL1        0.0661
     40 H           6.9519   -4.2821   -1.5751 H       1  UNL1        0.0660
     41 H           7.3860   -2.5317   -1.6390 H       1  UNL1        0.0660
     42 H           7.9798   -3.5644   -0.3313 H       1  UNL1        0.0660
     43 H           3.3061   -0.0812    2.2437 H       1  UNL1        0.0660
     44 H           2.7143   -1.7852    2.0953 H       1  UNL1        0.0660
     45 H           4.0244   -1.3637    3.2034 H       1  UNL1        0.0660
@<TRIPOS>BOND
     1     1    28    1
     2     1    29    1
     3     1    30    1
     4     2     1    1
     5     3     2    1
     6     4     3   ar
     7     4    31    1
     8     5     4   ar
     9     6     5    1
    10     6    32    1
    11     7     6    2
    12     7    33    1
    13     8     7    1
    14     9     8    2
    15    10     8    1
    16    11    10    1
    17    12    11   ar
    18    12    34    1
    19    13    12   ar
    20    14    13   ar
    21    15    14    1
    22    15    35    1
    23    15    36    1
    24    16    15    1
    25    17    16    1
    26    17    13    1
    27    18    17    2
    28    19    14   ar
    29    19    37    1
    30    20    19   ar
    31    20    11   ar
    32    20    38    1
    33    21     5   ar
    34    21    39    1
    35    22    21   ar
    36    23    22    1
    37    24    23    1
    38    24    40    1
    39    24    41    1
    40    24    42    1
    41    25    22   ar
    42    25     3   ar
    43    26    25    1
    44    27    26    1
    45    27    43    1
    46    27    44    1
    47    27    45    1
