@<TRIPOS>MOLECULE
>28.sdf
 18 19 0 0 0
SMALL
GASTEIGER

@<TRIPOS>ATOM
      1 O          -1.7093    2.0429    0.0104 O.3     1  UNL1       -0.5046
      2 C          -1.3203    0.7229    0.0078 C.ar    1  UNL1        0.1427
      3 C          -2.3059   -0.2695    0.0102 C.ar    1  UNL1       -0.0180
      4 C          -1.9318   -1.6082    0.0048 C.ar    1  UNL1       -0.0576
      5 C          -0.5802   -1.9462    0.0005 C.ar    1  UNL1       -0.0523
      6 C           0.4088   -0.9451    0.0029 C.ar    1  UNL1        0.0040
      7 C           0.0494    0.4213    0.0043 C.ar    1  UNL1        0.1122
      8 N           0.9909    1.3940    0.0037 N.ar    1  UNL1       -0.2513
      9 C           2.2921    1.0390    0.0052 C.ar    1  UNL1        0.0284
     10 C           2.7299   -0.2691    0.0074 C.ar    1  UNL1       -0.0430
     11 C           1.7718   -1.2746    0.0052 C.ar    1  UNL1       -0.0510
     12 H          -2.6767    2.0949    0.0001 H       1  UNL1        0.2922
     13 H          -3.3604   -0.0123    0.0172 H       1  UNL1        0.0655
     14 H          -2.6893   -2.3879    0.0048 H       1  UNL1        0.0619
     15 H          -0.2998   -2.9975   -0.0038 H       1  UNL1        0.0624
     16 H           2.9931    1.8682    0.0050 H       1  UNL1        0.0830
     17 H           3.7887   -0.4993    0.0114 H       1  UNL1        0.0633
     18 H           2.0926   -2.3131    0.0074 H       1  UNL1        0.0625
@<TRIPOS>BOND
     1     1    12    1
     2     2     1    1
     3     3     2   ar
     4     3    13    1
     5     4     3   ar
     6     4    14    1
     7     5     4   ar
     8     5    15    1
     9     6     5   ar
    10     7     6   ar
    11     7     2   ar
    12     8     7   ar
    13     9     8   ar
    14     9    16    1
    15    10     9   ar
    16    10    17    1
    17    11    10   ar
    18    11     6   ar
    19    11    18    1
