@<TRIPOS>MOLECULE
>154.sdf
 47 48 0 0 0
SMALL
GASTEIGER

@<TRIPOS>ATOM
      1 C           0.8117   -0.0987   -0.1457 C.3     1  UNL1        0.0788
      2 O           2.2318   -0.1538   -0.1774 O.3     1  UNL1       -0.4944
      3 C           2.9332    1.0246   -0.1141 C.ar    1  UNL1        0.1307
      4 C           2.3141    2.2743   -0.0661 C.ar    1  UNL1        0.0224
      5 C           3.0645    3.4567   -0.0462 C.ar    1  UNL1        0.1243
      6 O           2.3639    4.6288   -0.0021 O.3     1  UNL1       -0.5063
      7 C           4.4663    3.4472   -0.0859 C.ar    1  UNL1        0.0042
      8 C           5.0759    2.1620   -0.1187 C.ar    1  UNL1       -0.0436
      9 C           4.3408    0.9523   -0.1111 C.ar    1  UNL1        0.0173
     10 C           5.1082   -0.3203   -0.1174 C.2     1  UNL1       -0.0475
     11 C           4.6921   -1.4271    0.5204 C.2     1  UNL1       -0.0137
     12 C           5.4674   -2.6983    0.5842 C.2     1  UNL1        0.1861
     13 O           6.3486   -2.9804   -0.2183 O.2     1  UNL1       -0.2873
     14 C           5.0787   -3.6358    1.6789 C.ar    1  UNL1        0.0219
     15 C           5.2062   -5.0172    1.4932 C.ar    1  UNL1       -0.0475
     16 C           4.8225   -5.8996    2.5119 C.ar    1  UNL1       -0.0195
     17 C           4.3230   -5.3923    3.7095 C.ar    1  UNL1        0.1169
     18 O           3.9344   -6.2077    4.7299 O.3     1  UNL1       -0.5068
     19 C           4.2079   -4.0238    3.9104 C.ar    1  UNL1       -0.0195
     20 C           4.5950   -3.1443    2.9012 C.ar    1  UNL1       -0.0475
     21 C           5.3598    4.7178   -0.1386 C.3     1  UNL1        0.0113
     22 C           6.1992    4.6714   -1.4423 C.3     1  UNL1       -0.0522
     23 C           4.5949    6.0654   -0.1834 C.3     1  UNL1       -0.0522
     24 C           6.3449    4.8676    1.0291 C.2     1  UNL1       -0.0811
     25 C           6.4775    4.1329    2.1417 C.2     1  UNL1       -0.1018
     26 H           0.4518    0.3765    0.7732 H       1  UNL1        0.0660
     27 H           0.4211    0.4065   -1.0347 H       1  UNL1        0.0660
     28 H           0.4359   -1.1262   -0.1527 H       1  UNL1        0.0660
     29 H           1.2336    2.3505   -0.0539 H       1  UNL1        0.0691
     30 H           1.4104    4.4506    0.0144 H       1  UNL1        0.2921
     31 H           6.1650    2.1021   -0.1291 H       1  UNL1        0.0629
     32 H           6.0734   -0.3129   -0.6192 H       1  UNL1        0.0626
     33 H           3.7435   -1.4415    1.0410 H       1  UNL1        0.0656
     34 H           5.5930   -5.4125    0.5551 H       1  UNL1        0.0626
     35 H           4.9170   -6.9700    2.3545 H       1  UNL1        0.0654
     36 H           4.1061   -7.1296    4.4784 H       1  UNL1        0.2921
     37 H           3.8244   -3.6392    4.8513 H       1  UNL1        0.0654
     38 H           4.5222   -2.0774    3.0916 H       1  UNL1        0.0626
     39 H           5.5521    4.6221   -2.3262 H       1  UNL1        0.0241
     40 H           6.8267    5.5663   -1.5463 H       1  UNL1        0.0241
     41 H           6.8750    3.8099   -1.4767 H       1  UNL1        0.0241
     42 H           3.9984    6.2262    0.7229 H       1  UNL1        0.0241
     43 H           5.2794    6.9204   -0.2552 H       1  UNL1        0.0241
     44 H           3.9376    6.1284   -1.0589 H       1  UNL1        0.0241
     45 H           7.0181    5.7233    0.9389 H       1  UNL1        0.0575
     46 H           5.8590    3.2701    2.3568 H       1  UNL1        0.0532
     47 H           7.2309    4.3975    2.8796 H       1  UNL1        0.0532
@<TRIPOS>BOND
     1     1    26    1
     2     1    27    1
     3     1    28    1
     4     2     1    1
     5     3     2    1
     6     4     3   ar
     7     4    29    1
     8     5     4   ar
     9     6     5    1
    10     6    30    1
    11     7     5   ar
    12     8     7   ar
    13     8    31    1
    14     9     8   ar
    15     9     3   ar
    16    10     9    1
    17    10    32    1
    18    11    10    2
    19    11    33    1
    20    12    11    1
    21    13    12    2
    22    14    12    1
    23    15    14   ar
    24    15    34    1
    25    16    15   ar
    26    16    35    1
    27    17    16   ar
    28    18    17    1
    29    18    36    1
    30    19    17   ar
    31    19    37    1
    32    20    19   ar
    33    20    14   ar
    34    20    38    1
    35    21     7    1
    36    22    21    1
    37    22    39    1
    38    22    40    1
    39    22    41    1
    40    23    21    1
    41    23    42    1
    42    23    43    1
    43    23    44    1
    44    24    21    1
    45    24    45    1
    46    25    24    2
    47    25    46    1
    48    25    47    1
