@<TRIPOS>MOLECULE
>36.sdf
 46 51 0 0 0
SMALL
GASTEIGER

@<TRIPOS>ATOM
      1 C           1.3496   -0.0663   -0.0595 C.ar    1  UNL1       -0.0617
      2 C           0.5164   -1.1010    0.3477 C.ar    1  UNL1       -0.0611
      3 C          -0.8672   -0.9570    0.2383 C.ar    1  UNL1       -0.0524
      4 C          -1.4436    0.2387   -0.2253 C.ar    1  UNL1        0.0043
      5 C          -0.5923    1.2583   -0.6635 C.ar    1  UNL1       -0.0524
      6 C           0.7982    1.1032   -0.5825 C.ar    1  UNL1       -0.0611
      7 C          -2.8865    0.4314   -0.2074 C.ar    1  UNL1        0.1203
      8 C          -3.7564   -0.0673    0.7419 C.ar    1  UNL1        0.0970
      9 C          -3.6562   -0.8537    1.9075 C.ar    1  UNL1       -0.0332
     10 C          -4.7659   -1.2212    2.5522 C.ar    1  UNL1       -0.0469
     11 C          -6.0863   -0.7080    2.1596 C.ar    1  UNL1        0.0454
     12 C          -6.2255    0.0427    0.9877 C.ar    1  UNL1        0.1678
     13 N          -7.4108    0.4817    0.4954 N.ar    1  UNL1       -0.2062
     14 C          -8.5022    0.1588    1.2170 C.ar    1  UNL1        0.1810
     15 N          -8.4524   -0.5039    2.3934 N.ar    1  UNL1       -0.2252
     16 C          -7.2596   -0.9146    2.8769 C.ar    1  UNL1        0.0855
     17 C          -7.3447   -1.5743    4.1990 C.ar    1  UNL1        0.0192
     18 C          -8.4283   -2.3946    4.5442 C.ar    1  UNL1       -0.0497
     19 C          -8.4714   -3.0361    5.7831 C.ar    1  UNL1       -0.0430
     20 C          -7.4169   -2.8500    6.6583 C.ar    1  UNL1        0.0276
     21 N          -6.3703   -2.0449    6.3973 N.ar    1  UNL1       -0.2626
     22 C          -6.3838   -1.4079    5.2007 C.ar    1  UNL1        0.0367
     23 C          -9.8494    0.5071    0.6887 C.ar    1  UNL1        0.1079
     24 C         -10.0293    1.1950   -0.5134 C.ar    1  UNL1       -0.0326
     25 C         -11.3181    1.4544   -0.9713 C.ar    1  UNL1       -0.0582
     26 C         -12.4139    1.0313   -0.2242 C.ar    1  UNL1       -0.0436
     27 C         -12.1674    0.3604    0.9599 C.ar    1  UNL1        0.0284
     28 N         -10.9262    0.0931    1.4225 N.ar    1  UNL1       -0.2518
     29 N          -5.0052    0.3499    0.3186 N.ar    1  UNL1       -0.1935
     30 N          -4.8921    1.1004   -0.8018 N.ar    1  UNL1       -0.0582
     31 N          -3.5998    1.1669   -1.1215 N.ar    1  UNL1       -0.1285
     32 H           2.4281   -0.1760    0.0221 H       1  UNL1        0.0618
     33 H           0.9358   -2.0194    0.7508 H       1  UNL1        0.0618
     34 H          -1.4867   -1.8015    0.5263 H       1  UNL1        0.0624
     35 H          -1.0004    2.1886   -1.0534 H       1  UNL1        0.0624
     36 H           1.4534    1.9034   -0.9178 H       1  UNL1        0.0618
     37 H          -2.6921   -1.1960    2.2678 H       1  UNL1        0.0640
     38 H          -4.6719   -1.9162    3.3788 H       1  UNL1        0.0626
     39 H          -9.2541   -2.5302    3.8470 H       1  UNL1        0.0625
     40 H          -9.3115   -3.6644    6.0557 H       1  UNL1        0.0633
     41 H          -7.3911   -3.3455    7.6243 H       1  UNL1        0.0829
     42 H          -5.5457   -0.7264    5.0770 H       1  UNL1        0.0836
     43 H          -9.1748    1.5220   -1.0981 H       1  UNL1        0.0640
     44 H         -11.4763    1.9820   -1.9091 H       1  UNL1        0.0619
     45 H         -13.4312    1.2128   -0.5546 H       1  UNL1        0.0633
     46 H         -12.9794    0.0075    1.5873 H       1  UNL1        0.0830
@<TRIPOS>BOND
     1     1    32    1
     2     2     1   ar
     3     2    33    1
     4     3     2   ar
     5     3    34    1
     6     4     3   ar
     7     5     4   ar
     8     5    35    1
     9     6     5   ar
    10     6     1   ar
    11     6    36    1
    12     7     4    1
    13     8     7   ar
    14     9     8   ar
    15     9    37    1
    16    10     9   ar
    17    10    38    1
    18    11    10   ar
    19    12    11   ar
    20    13    12   ar
    21    14    13   ar
    22    15    14   ar
    23    16    15   ar
    24    16    11   ar
    25    17    16    1
    26    18    17   ar
    27    18    39    1
    28    19    18   ar
    29    19    40    1
    30    20    19   ar
    31    20    41    1
    32    21    20   ar
    33    22    21   ar
    34    22    17   ar
    35    22    42    1
    36    23    14    1
    37    24    23   ar
    38    24    43    1
    39    25    24   ar
    40    25    44    1
    41    26    25   ar
    42    26    45    1
    43    27    26   ar
    44    27    46    1
    45    28    27   ar
    46    28    23   ar
    47    29    12   ar
    48    29     8   ar
    49    30    29   ar
    50    31    30   ar
    51    31     7   ar
