@<TRIPOS>MOLECULE
>107.sdf
 34 36 0 0 0
SMALL
GASTEIGER

@<TRIPOS>ATOM
      1 C           0.9775   -0.0587    0.2416 C.3     1  UNL1       -0.0193
      2 C           0.3796    1.2581   -0.2466 C.3     1  UNL1        0.0121
      3 N          -0.9954    1.0592   -0.7104 N.pl3   1  UNL1       -0.3271
      4 C          -1.5768    2.2572   -1.2123 C.ar    1  UNL1        0.1490
      5 N          -0.8425    3.3983   -1.2179 N.ar    1  UNL1       -0.1338
      6 N          -1.3493    4.5705   -1.6882 N.ar    1  UNL1       -0.1553
      7 C          -2.5988    4.5869   -2.1793 C.ar    1  UNL1        0.0578
      8 C          -3.4102    3.4619   -2.2273 C.ar    1  UNL1        0.0053
      9 C          -4.7057    3.5266   -2.7705 C.ar    1  UNL1       -0.0524
     10 C          -5.5085    2.3897   -2.8239 C.ar    1  UNL1       -0.0611
     11 C          -5.0274    1.1817   -2.3314 C.ar    1  UNL1       -0.0611
     12 C          -3.7392    1.1086   -1.7904 C.ar    1  UNL1       -0.0506
     13 C          -2.8966    2.2466   -1.7258 C.ar    1  UNL1        0.0251
     14 C           2.4105    0.1633    0.7297 C.3     1  UNL1        0.0256
     15 N           3.0082   -1.0633    1.2176 N.ar    1  UNL1       -0.3368
     16 C           2.9531   -1.5347    2.4984 C.ar    1  UNL1        0.0240
     17 C           3.5965   -2.7497    2.4528 C.ar    1  UNL1        0.0454
     18 N           4.0723   -3.0017    1.1917 N.ar    1  UNL1       -0.2441
     19 C           3.7161   -1.9613    0.4724 C.ar    1  UNL1        0.0959
     20 H           0.9658   -0.7987   -0.5672 H       1  UNL1        0.0297
     21 H           0.3644   -0.4719    1.0508 H       1  UNL1        0.0297
     22 H           0.4018    1.9863    0.5737 H       1  UNL1        0.0462
     23 H           1.0017    1.6346   -1.0684 H       1  UNL1        0.0462
     24 H          -1.6066    0.6965    0.0173 H       1  UNL1        0.1475
     25 H          -2.9285    5.5537   -2.5427 H       1  UNL1        0.0854
     26 H          -5.0948    4.4629   -3.1651 H       1  UNL1        0.0624
     27 H          -6.5050    2.4470   -3.2556 H       1  UNL1        0.0618
     28 H          -5.6508    0.2919   -2.3764 H       1  UNL1        0.0618
     29 H          -3.3854    0.1446   -1.4285 H       1  UNL1        0.0625
     30 H           3.0493    0.5420   -0.0778 H       1  UNL1        0.0492
     31 H           2.4385    0.8908    1.5485 H       1  UNL1        0.0492
     32 H           2.4677   -1.0011    3.3030 H       1  UNL1        0.0825
     33 H           3.7445   -3.4548    3.2604 H       1  UNL1        0.0845
     34 H           3.9336   -1.8179   -0.5783 H       1  UNL1        0.1029
@<TRIPOS>BOND
     1     1    20    1
     2     1    21    1
     3     2     1    1
     4     2    22    1
     5     2    23    1
     6     3     2    1
     7     3    24    1
     8     4     3    1
     9     5     4   ar
    10     6     5   ar
    11     7     6   ar
    12     7    25    1
    13     8     7   ar
    14     9     8   ar
    15     9    26    1
    16    10     9   ar
    17    10    27    1
    18    11    10   ar
    19    11    28    1
    20    12    11   ar
    21    12    29    1
    22    13    12   ar
    23    13     4   ar
    24    13     8   ar
    25    14     1    1
    26    14    30    1
    27    14    31    1
    28    15    14    1
    29    16    15   ar
    30    16    32    1
    31    17    16   ar
    32    17    33    1
    33    18    17   ar
    34    19    18   ar
    35    19    15   ar
    36    19    34    1
