@<TRIPOS>MOLECULE
>22.sdf
 42 45 0 0 0
SMALL
GASTEIGER

@<TRIPOS>ATOM
      1 C           1.2544   -0.4747   -0.5404 C.3     1  UNL1        0.0018
      2 N           2.4766    0.1194   -0.0246 N.pl3   1  UNL1       -0.3184
      3 C           2.8800    1.3716   -0.6466 C.3     1  UNL1        0.0018
      4 C           3.2636   -0.5128    0.9412 C.ar    1  UNL1        0.1642
      5 N           2.9072   -1.7130    1.3626 N.ar    1  UNL1       -0.2353
      6 C           3.6602   -2.3583    2.3198 C.ar    1  UNL1        0.0463
      7 C           4.7754   -1.8617    2.8664 C.ar    1  UNL1        0.0300
      8 N           5.2070   -0.6140    2.4512 N.ar    1  UNL1       -0.2944
      9 C           4.4763    0.0846    1.5206 C.ar    1  UNL1        0.1793
     10 N           4.9858    1.2766    1.2893 N.ar    1  UNL1       -0.2239
     11 C           6.1079    1.3548    2.0866 C.ar    1  UNL1        0.0979
     12 C           6.2581    0.1945    2.8425 C.ar    1  UNL1        0.0841
     13 C           7.2796   -0.1331    3.8701 C.ar    1  UNL1        0.0384
     14 C           7.8632    0.7558    4.7420 C.ar    1  UNL1        0.0344
     15 N           8.7779    0.0414    5.4566 N.ar    1  UNL1       -0.2738
     16 C           9.6873    0.5555    6.4512 C.3     1  UNL1        0.0302
     17 N           8.8023   -1.2656    5.1373 N.ar    1  UNL1       -0.1792
     18 C           7.8806   -1.3704    4.1749 C.ar    1  UNL1        0.0586
     19 C           6.9722    2.5297    2.0347 C.ar    1  UNL1        0.0026
     20 C           6.4024    3.7953    1.8220 C.ar    1  UNL1       -0.0498
     21 C           7.2005    4.9438    1.8127 C.ar    1  UNL1       -0.0258
     22 C           8.5691    4.8289    2.0223 C.ar    1  UNL1        0.1234
     23 F           9.3295    5.9305    2.0554 F       1  UNL1       -0.2055
     24 C           9.1611    3.5856    2.1918 C.ar    1  UNL1       -0.0258
     25 C           8.3670    2.4372    2.1613 C.ar    1  UNL1       -0.0498
     26 H           0.4250    0.2357   -0.4480 H       1  UNL1        0.0428
     27 H           1.3760   -0.7255   -1.5992 H       1  UNL1        0.0428
     28 H           0.9544   -1.3858   -0.0143 H       1  UNL1        0.0428
     29 H           2.8734    2.1867    0.0838 H       1  UNL1        0.0428
     30 H           3.8771    1.2803   -1.0901 H       1  UNL1        0.0428
     31 H           2.1977    1.6574   -1.4552 H       1  UNL1        0.0428
     32 H           3.2852   -3.3322    2.6296 H       1  UNL1        0.0845
     33 H           5.3327   -2.3828    3.6287 H       1  UNL1        0.0829
     34 H           7.7181    1.8149    4.9072 H       1  UNL1        0.0833
     35 H           9.5759   -0.0362    7.3625 H       1  UNL1        0.0473
     36 H          10.7046    0.4766    6.0594 H       1  UNL1        0.0473
     37 H           9.4468    1.6022    6.6544 H       1  UNL1        0.0473
     38 H           7.7280   -2.3361    3.7121 H       1  UNL1        0.0854
     39 H           5.3294    3.8909    1.6640 H       1  UNL1        0.0625
     40 H           6.7617    5.9227    1.6503 H       1  UNL1        0.0646
     41 H          10.2327    3.5122    2.3464 H       1  UNL1        0.0646
     42 H           8.8545    1.4700    2.2562 H       1  UNL1        0.0625
@<TRIPOS>BOND
     1     1    26    1
     2     1    27    1
     3     1    28    1
     4     2     1    1
     5     3     2    1
     6     3    29    1
     7     3    30    1
     8     3    31    1
     9     4     2    1
    10     5     4   ar
    11     6     5   ar
    12     6    32    1
    13     7     6   ar
    14     7    33    1
    15     8     7   ar
    16     9     8   ar
    17     9     4   ar
    18    10     9   ar
    19    11    10   ar
    20    12    11   ar
    21    12     8   ar
    22    13    12    1
    23    14    13   ar
    24    14    34    1
    25    15    14   ar
    26    16    15    1
    27    16    35    1
    28    16    36    1
    29    16    37    1
    30    17    15   ar
    31    18    17   ar
    32    18    13   ar
    33    18    38    1
    34    19    11    1
    35    20    19   ar
    36    20    39    1
    37    21    20   ar
    38    21    40    1
    39    22    21   ar
    40    23    22    1
    41    24    22   ar
    42    24    41    1
    43    25    24   ar
    44    25    19   ar
    45    25    42    1
