@<TRIPOS>MOLECULE
>7.sdf
 21 21 0 0 0
SMALL
GASTEIGER

@<TRIPOS>ATOM
      1 N           3.1719   -1.9079    1.0367 N.am    1  UNL1       -0.3394
      2 C           2.4583   -1.4704   -0.0285 C.2     1  UNL1        0.1473
      3 S           0.8048   -1.3622    0.0031 S.2     1  UNL1       -0.0174
      4 N           3.1994   -1.1298   -1.1282 N.am    1  UNL1       -0.2186
      5 N           4.5606   -1.2188   -1.1010 N.2     1  UNL1       -0.1884
      6 C           5.1672   -0.8822   -2.1958 C.2     1  UNL1        0.0542
      7 C           6.6456   -0.9230   -2.2785 C.ar    1  UNL1        0.0129
      8 C           7.3664   -1.3637   -1.1561 C.ar    1  UNL1       -0.0503
      9 C           8.7610   -1.3965   -1.1781 C.ar    1  UNL1       -0.0427
     10 C           9.4409   -0.9899   -2.3236 C.ar    1  UNL1        0.0424
     11 CL         11.1594   -1.0181   -2.3456 Cl      1  UNL1       -0.0835
     12 C           8.7383   -0.5587   -3.4478 C.ar    1  UNL1       -0.0244
     13 C           7.3392   -0.5252   -3.4287 C.ar    1  UNL1        0.0510
     14 CL          6.5426    0.0229   -4.8602 Cl      1  UNL1       -0.0828
     15 H           2.7300   -2.1517    1.9101 H       1  UNL1        0.1440
     16 H           4.1802   -1.8878    0.9483 H       1  UNL1        0.1440
     17 H           2.7133   -0.7911   -1.9532 H       1  UNL1        0.1762
     18 H           4.5991   -0.5552   -3.0834 H       1  UNL1        0.0852
     19 H           6.8472   -1.6819   -0.2540 H       1  UNL1        0.0625
     20 H           9.3057   -1.7357   -0.3002 H       1  UNL1        0.0632
     21 H           9.2825   -0.2462   -4.3357 H       1  UNL1        0.0647
@<TRIPOS>BOND
     1     1    15    1
     2     1    16    1
     3     2     1    1
     4     3     2    2
     5     4     2    1
     6     4    17    1
     7     5     4    1
     8     6     5    2
     9     6    18    1
    10     7     6    1
    11     8     7   ar
    12     8    19    1
    13     9     8   ar
    14     9    20    1
    15    10     9   ar
    16    11    10    1
    17    12    10   ar
    18    12    21    1
    19    13    12   ar
    20    13     7   ar
    21    14    13    1
