@<TRIPOS>MOLECULE
>54.sdf
 22 23 0 0 0
SMALL
GASTEIGER

@<TRIPOS>ATOM
      1 C           1.6485   -0.3740    1.1796 C.3     1  UNL1        0.0614
      2 S           2.8777   -0.0277   -0.0515 S.O2    1  UNL1        0.0140
      3 O           2.2005    0.6324   -1.1530 O.2     1  UNL1       -0.1681
      4 O           4.0010    0.5904    0.6282 O.2     1  UNL1       -0.1681
      5 C           3.4057   -1.6004   -0.6241 C.ar    1  UNL1        0.2137
      6 N           2.7937   -2.6621   -0.0261 N.ar    1  UNL1       -0.2244
      7 C           3.1610   -3.8736   -0.4752 C.ar    1  UNL1        0.0915
      8 C           4.1305   -4.0200   -1.5037 C.ar    1  UNL1        0.0920
      9 C           4.4647   -5.2939   -1.9403 C.ar    1  UNL1       -0.0202
     10 C           3.8575   -6.4190   -1.3858 C.ar    1  UNL1        0.0200
     11 BR          4.3139   -8.1408   -2.0138 Br      1  UNL1       -0.0502
     12 C           2.9120   -6.2814   -0.3769 C.ar    1  UNL1       -0.0456
     13 C           2.5738   -5.0049    0.0725 C.ar    1  UNL1       -0.0331
     14 N           4.7240   -2.9475   -2.0671 N.ar    1  UNL1       -0.2302
     15 C           4.3477   -1.7255   -1.6171 C.ar    1  UNL1        0.1732
     16 CL          5.1498   -0.4368   -2.4075 Cl      1  UNL1       -0.0583
     17 H           1.2698    0.5785    1.5566 H       1  UNL1        0.0468
     18 H           0.8301   -0.9366    0.7255 H       1  UNL1        0.0468
     19 H           2.1048   -0.9356    1.9976 H       1  UNL1        0.0468
     20 H           5.2059   -5.4012   -2.7288 H       1  UNL1        0.0650
     21 H           2.4314   -7.1521    0.0626 H       1  UNL1        0.0629
     22 H           1.8328   -4.8934    0.8606 H       1  UNL1        0.0640
@<TRIPOS>BOND
     1     1    17    1
     2     1    18    1
     3     1    19    1
     4     2     1    1
     5     3     2    2
     6     4     2    2
     7     5     2    1
     8     6     5   ar
     9     7     6   ar
    10     8     7   ar
    11     9     8   ar
    12     9    20    1
    13    10     9   ar
    14    11    10    1
    15    12    10   ar
    16    12    21    1
    17    13    12   ar
    18    13     7   ar
    19    13    22    1
    20    14     8   ar
    21    15    14   ar
    22    15     5   ar
    23    16    15    1
