@<TRIPOS>MOLECULE
>19.sdf
 34 37 0 0 0
SMALL
GASTEIGER

@<TRIPOS>ATOM
      1 C           0.4647   -3.1426   -1.6209 C.3     1  UNL1        0.0000
      2 SE          0.3254   -2.2220    0.0989 Se      1  UNL1        0.0000
      3 SE         -1.9430   -1.5393   -0.2781 Se      1  UNL1        0.0000
      4 C          -2.6487   -3.3560   -0.1120 C.3     1  UNL1        0.0000
      5 N          -4.1095   -3.3583   -0.0407 N.ar    1  UNL1        0.0000
      6 N          -4.8066   -3.8855    0.9625 N.ar    1  UNL1        0.0000
      7 N          -6.1161   -3.7800    0.7394 N.ar    1  UNL1        0.0000
      8 C          -6.2412   -3.1621   -0.4483 C.ar    1  UNL1        0.0000
      9 C          -7.4019   -2.8202   -1.1365 C.ar    1  UNL1        0.0000
     10 C          -7.2508   -2.1679   -2.3758 C.ar    1  UNL1        0.0000
     11 C          -5.9604   -1.8857   -2.8859 C.ar    1  UNL1        0.0000
     12 C          -4.8078   -2.2569   -2.1637 C.ar    1  UNL1        0.0000
     13 C          -4.9991   -2.8962   -0.9379 C.ar    1  UNL1        0.0000
     14 N           1.8453   -3.5289   -1.9104 N.ar    1  UNL1        0.0000
     15 N           2.5122   -3.1530   -2.9989 N.ar    1  UNL1        0.0000
     16 N           3.7330   -3.6869   -3.0172 N.ar    1  UNL1        0.0000
     17 C           3.8321   -4.4241   -1.8960 C.ar    1  UNL1        0.0000
     18 C           4.9045   -5.1882   -1.4469 C.ar    1  UNL1        0.0000
     19 C           4.7460   -5.8680   -0.2231 C.ar    1  UNL1        0.0000
     20 C           3.5341   -5.7679    0.5020 C.ar    1  UNL1        0.0000
     21 C           2.4657   -4.9909    0.0100 C.ar    1  UNL1        0.0000
     22 C           2.6633   -4.3294   -1.2049 C.ar    1  UNL1        0.0000
     23 H           0.1018   -2.4675   -2.4251 H       1  UNL1        0.0000
     24 H          -0.1504   -4.0627   -1.5894 H       1  UNL1        0.0000
     25 H          -2.3464   -3.9438   -1.0002 H       1  UNL1        0.0000
     26 H          -2.2403   -3.8213    0.8107 H       1  UNL1        0.0000
     27 H          -8.3822   -3.0446   -0.7360 H       1  UNL1        0.0000
     28 H          -8.1277   -1.8807   -2.9419 H       1  UNL1        0.0000
     29 H          -5.8591   -1.3813   -3.8379 H       1  UNL1        0.0000
     30 H          -3.8200   -2.0464   -2.5494 H       1  UNL1        0.0000
     31 H           5.8243   -5.2588   -2.0123 H       1  UNL1        0.0000
     32 H           5.5571   -6.4714    0.1653 H       1  UNL1        0.0000
     33 H           3.4268   -6.2939    1.4417 H       1  UNL1        0.0000
     34 H           1.5374   -4.9135    0.5559 H       1  UNL1        0.0000
@<TRIPOS>BOND
     1     1    23    1
     2     1    24    1
     3     2     1    1
     4     3     2    1
     5     4     3    1
     6     4    25    1
     7     4    26    1
     8     5     4    1
     9     6     5   ar
    10     7     6   ar
    11     8     7   ar
    12     9     8   ar
    13     9    27    1
    14    10     9   ar
    15    10    28    1
    16    11    10   ar
    17    11    29    1
    18    12    11   ar
    19    12    30    1
    20    13    12   ar
    21    13     5   ar
    22    13     8   ar
    23    14     1    1
    24    15    14   ar
    25    16    15   ar
    26    17    16   ar
    27    18    17   ar
    28    18    31    1
    29    19    18   ar
    30    19    32    1
    31    20    19   ar
    32    20    33    1
    33    21    20   ar
    34    21    34    1
    35    22    21   ar
    36    22    14   ar
    37    22    17   ar
