@<TRIPOS>MOLECULE
>84.sdf
 38 40 0 0 0
SMALL
GASTEIGER

@<TRIPOS>ATOM
      1 F           3.3943    0.6570   -0.4543 F       1  UNL1       -0.1707
      2 C           2.4022   -0.0076    0.1757 C.3     1  UNL1        0.3917
      3 F           1.8837    0.8224    1.1055 F       1  UNL1       -0.1707
      4 F           1.4375   -0.2593   -0.7337 F       1  UNL1       -0.1707
      5 C           2.8905   -1.2887    0.8100 C.3     1  UNL1        0.0626
      6 C           4.3803   -1.4966    0.5762 C.3     1  UNL1        0.0808
      7 S           4.9305   -3.0103    1.3195 S.O2    1  UNL1        0.0179
      8 O           4.6600   -2.9651    2.7417 O.2     1  UNL1       -0.1678
      9 O           4.5328   -4.1344    0.5001 O.2     1  UNL1       -0.1678
     10 C           6.6569   -2.9591    1.1922 C.ar    1  UNL1        0.2263
     11 C           7.4418   -3.4606    0.1847 C.ar    1  UNL1        0.2455
     12 N           8.7534   -3.2775    0.5502 N.ar    1  UNL1       -0.2771
     13 C           9.9557   -3.6054   -0.0827 C.ar    1  UNL1        0.0317
     14 C          11.1145   -3.2974    0.5193 C.ar    1  UNL1        0.0582
     15 CL         12.6300   -3.6740   -0.1904 Cl      1  UNL1       -0.0820
     16 C          11.0967   -2.6308    1.8129 C.ar    1  UNL1       -0.0307
     17 C           9.9405   -2.2942    2.4290 C.ar    1  UNL1        0.0265
     18 C           8.7003   -2.6177    1.7855 C.ar    1  UNL1        0.1493
     19 N           7.4581   -2.3965    2.1643 N.ar    1  UNL1       -0.2069
     20 C          10.0381   -1.6259    3.7400 C.ar    1  UNL1       -0.0115
     21 C          10.1195   -0.2350    3.8252 C.ar    1  UNL1       -0.0358
     22 C          10.2540    0.3389    5.0788 C.ar    1  UNL1        0.0281
     23 N          10.3104   -0.3691    6.2265 N.ar    1  UNL1       -0.2632
     24 C          10.2105   -1.7112    6.1200 C.ar    1  UNL1        0.0281
     25 C          10.0756   -2.3797    4.9145 C.ar    1  UNL1       -0.0358
     26 N           7.0572   -4.0171   -1.0417 N.pl3   1  UNL1        0.0774
     27 O           6.4215   -3.2690   -1.7910 O.2     1  UNL1       -0.1245
     28 O           7.4383   -5.1671   -1.2797 O.2     1  UNL1       -0.1245
     29 H           2.6814   -1.2637    1.8865 H       1  UNL1        0.0368
     30 H           2.3255   -2.1393    0.4114 H       1  UNL1        0.0368
     31 H           4.6050   -1.5523   -0.4932 H       1  UNL1        0.0507
     32 H           4.9548   -0.6812    1.0273 H       1  UNL1        0.0507
     33 H           9.9157   -4.1072   -1.0428 H       1  UNL1        0.0829
     34 H          12.0581   -2.4127    2.2742 H       1  UNL1        0.0640
     35 H          10.0796    0.3941    2.9429 H       1  UNL1        0.0639
     36 H          10.3261    1.4164    5.1981 H       1  UNL1        0.0830
     37 H          10.2468   -2.2536    7.0605 H       1  UNL1        0.0830
     38 H          10.0004   -3.4616    4.8997 H       1  UNL1        0.0639
@<TRIPOS>BOND
     1     2     1    1
     2     3     2    1
     3     4     2    1
     4     5     2    1
     5     5    29    1
     6     5    30    1
     7     6     5    1
     8     6    31    1
     9     6    32    1
    10     7     6    1
    11     8     7    2
    12     9     7    2
    13    10     7    1
    14    11    10   ar
    15    12    11   ar
    16    13    12   ar
    17    13    33    1
    18    14    13   ar
    19    15    14    1
    20    16    14   ar
    21    16    34    1
    22    17    16   ar
    23    18    17   ar
    24    18    12   ar
    25    19    18   ar
    26    19    10   ar
    27    20    17    1
    28    21    20   ar
    29    21    35    1
    30    22    21   ar
    31    22    36    1
    32    23    22   ar
    33    24    23   ar
    34    24    37    1
    35    25    24   ar
    36    25    20   ar
    37    25    38    1
    38    26    11    1
    39    27    26    2
    40    28    26    2
