@<TRIPOS>MOLECULE
>103.sdf
 33 35 0 0 0
SMALL
GASTEIGER

@<TRIPOS>ATOM
      1 C           1.7862    0.4730   -0.7744 C.3     1  UNL1        0.0128
      2 C           3.1014    0.1316   -0.1122 C.2     1  UNL1        0.2186
      3 O           3.7246    1.0468    0.4227 O.2     1  UNL1       -0.2755
      4 N           3.5448   -1.1901   -0.1646 N.am    1  UNL1       -0.2411
      5 C           2.8581   -2.2686   -0.8826 C.3     1  UNL1        0.1129
      6 C           2.8695   -2.1826   -2.4157 C.3     1  UNL1        0.0020
      7 C           4.2223   -2.1393   -3.0590 C.ar    1  UNL1       -0.0201
      8 C           4.9908   -1.0161   -3.2962 C.ar    1  UNL1        0.0060
      9 N           6.1458   -1.4079   -3.9219 N.ar    1  UNL1       -0.3604
     10 C           6.1544   -2.7720   -4.0932 C.ar    1  UNL1        0.0467
     11 C           7.1273   -3.6059   -4.6586 C.ar    1  UNL1       -0.0378
     12 C           6.8552   -4.9763   -4.7128 C.ar    1  UNL1       -0.0598
     13 C           5.6504   -5.4869   -4.2385 C.ar    1  UNL1       -0.0611
     14 C           4.6893   -4.6389   -3.6788 C.ar    1  UNL1       -0.0523
     15 C           4.9484   -3.2557   -3.5875 C.ar    1  UNL1        0.0029
     16 C           3.5975   -3.4975   -0.3893 C.2     1  UNL1        0.2398
     17 O           3.2956   -4.6582   -0.6259 O.2     1  UNL1       -0.2734
     18 N           4.6264   -3.0968    0.3910 N.am    1  UNL1       -0.2658
     19 C           4.6192   -1.7464    0.5771 C.2     1  UNL1        0.1462
     20 S           5.7244   -1.0360    1.5947 S.2     1  UNL1       -0.0179
     21 H           1.1692    1.0219   -0.0571 H       1  UNL1        0.0323
     22 H           1.9880    1.1111   -1.6395 H       1  UNL1        0.0323
     23 H           1.1998   -0.3839   -1.0989 H       1  UNL1        0.0323
     24 H           1.8308   -2.3317   -0.5052 H       1  UNL1        0.0604
     25 H           2.3161   -3.0413   -2.8177 H       1  UNL1        0.0337
     26 H           2.3171   -1.2984   -2.7522 H       1  UNL1        0.0337
     27 H           4.8186    0.0312   -3.0830 H       1  UNL1        0.0810
     28 H           6.8865   -0.7886   -4.2219 H       1  UNL1        0.1653
     29 H           8.0637   -3.2114   -5.0393 H       1  UNL1        0.0638
     30 H           7.5947   -5.6534   -5.1340 H       1  UNL1        0.0618
     31 H           5.4521   -6.5544   -4.2962 H       1  UNL1        0.0618
     32 H           3.7558   -5.0548   -3.3099 H       1  UNL1        0.0624
     33 H           5.2703   -3.7282    0.8482 H       1  UNL1        0.1566
@<TRIPOS>BOND
     1     1    21    1
     2     1    22    1
     3     1    23    1
     4     2     1    1
     5     3     2    2
     6     4     2   am
     7     5     4    1
     8     6    25    1
     9     6    26    1
    10     7     6    1
    11     8     7   ar
    12     8    27    1
    13     9     8   ar
    14     9    28    1
    15    10     9   ar
    16    11    10   ar
    17    11    29    1
    18    12    11   ar
    19    12    30    1
    20    13    12   ar
    21    13    31    1
    22    14    13   ar
    23    14    32    1
    24    15    14   ar
    25    15     7   ar
    26    15    10   ar
    27    16     5    1
    28    17    16    2
    29    18    16   am
    30    18    33    1
    31    19    18    1
    32    19     4    1
    33    20    19    2
    34     5     6    1
    35     5    24    1
