@<TRIPOS>MOLECULE
>82.sdf
 54 59 0 0 0
SMALL
GASTEIGER

@<TRIPOS>ATOM
      1 N          -1.5203   -0.2062   -2.1784 N.pl3   1  UNL1       -0.3430
      2 C          -0.6066    0.1632   -1.2542 C.ar    1  UNL1        0.1227
      3 C          -0.2138    1.4262   -0.8903 C.ar    1  UNL1       -0.0022
      4 C           0.7697    1.2134    0.0865 C.ar    1  UNL1        0.0517
      5 N           1.0229   -0.0622    0.3112 N.ar    1  UNL1       -0.1707
      6 N           0.1616   -0.7365   -0.5015 N.ar    1  UNL1       -0.1861
      7 C           0.1162   -2.1363   -0.5478 C.2     1  UNL1        0.2521
      8 O          -0.7661   -2.6492   -1.2396 O.2     1  UNL1       -0.2705
      9 C           1.3629   -2.9348   -0.1453 C.3     1  UNL1        0.0403
     10 C           2.5809   -2.8922    0.7985 C.3     1  UNL1       -0.0367
     11 C           3.6525   -3.9551    0.2712 C.3     1  UNL1        0.0050
     12 C           3.4152   -4.3470   -1.2295 C.3     1  UNL1        0.2059
     13 C           2.0126   -4.9784   -1.3663 C.3     1  UNL1        0.0050
     14 C           1.0670   -4.4384   -0.3039 C.3     1  UNL1       -0.0367
     15 O           3.5421   -3.1677   -2.0315 O.3     1  UNL1       -0.1965
     16 O           4.9741   -3.0501   -2.2065 O.3     1  UNL1       -0.1960
     17 C           5.3751   -4.4090   -2.3556 C.3     1  UNL1        0.2114
     18 O           4.3603   -5.2483   -1.7806 O.3     1  UNL1       -0.3112
     19 C           5.6204   -4.6862   -3.8623 C.3     1  UNL1        0.0168
     20 C           6.7870   -3.8018   -4.3707 C.3     1  UNL1       -0.0424
     21 C           8.0634   -4.0919   -3.5558 C.3     1  UNL1       -0.0400
     22 C           8.4433   -5.5765   -3.7059 C.3     1  UNL1       -0.0473
     23 C           7.2808   -6.4711   -3.2358 C.3     1  UNL1       -0.0400
     24 C           6.0195   -6.1557   -4.0658 C.3     1  UNL1       -0.0424
     25 C           7.0178   -6.1760   -1.7459 C.3     1  UNL1       -0.0424
     26 C           6.6570   -4.6844   -1.5616 C.3     1  UNL1        0.0168
     27 C           7.7909   -3.7892   -2.0727 C.3     1  UNL1       -0.0424
     28 H          -1.6522   -1.1943   -2.4160 H       1  UNL1        0.1437
     29 H          -1.9808    0.4468   -2.7991 H       1  UNL1        0.1437
     30 H          -0.5952    2.3620   -1.2759 H       1  UNL1        0.0667
     31 H           1.3164    1.9696    0.6382 H       1  UNL1        0.0848
     32 H           1.8652   -2.5697   -1.0390 H       1  UNL1        0.0397
     33 H           2.3216   -3.1537    1.8351 H       1  UNL1        0.0274
     34 H           3.0541   -1.9059    0.8375 H       1  UNL1        0.0274
     35 H           3.6012   -4.8723    0.8777 H       1  UNL1        0.0318
     36 H           4.6617   -3.5629    0.4361 H       1  UNL1        0.0318
     37 H           2.0549   -6.0692   -1.2811 H       1  UNL1        0.0318
     38 H           1.5943   -4.7421   -2.3518 H       1  UNL1        0.0318
     39 H           1.2312   -4.9622    0.6560 H       1  UNL1        0.0274
     40 H           0.0210   -4.6769   -0.5426 H       1  UNL1        0.0274
     41 H           4.7225   -4.4622   -4.4497 H       1  UNL1        0.0354
     42 H           6.9775   -4.0004   -5.4334 H       1  UNL1        0.0272
     43 H           6.5256   -2.7387   -4.2960 H       1  UNL1        0.0272
     44 H           8.8849   -3.4616   -3.9105 H       1  UNL1        0.0301
     45 H           8.6858   -5.8002   -4.7545 H       1  UNL1        0.0271
     46 H           9.3373   -5.7945   -3.1111 H       1  UNL1        0.0271
     47 H           7.5425   -7.5265   -3.3591 H       1  UNL1        0.0301
     48 H           5.1915   -6.8147   -3.7803 H       1  UNL1        0.0272
     49 H           6.2190   -6.3448   -5.1288 H       1  UNL1        0.0272
     50 H           6.2045   -6.8175   -1.3790 H       1  UNL1        0.0272
     51 H           7.9012   -6.4251   -1.1499 H       1  UNL1        0.0272
     52 H           6.4941   -4.4861   -0.4965 H       1  UNL1        0.0354
     53 H           8.6925   -3.9610   -1.4760 H       1  UNL1        0.0272
     54 H           7.5262   -2.7313   -1.9467 H       1  UNL1        0.0272
@<TRIPOS>BOND
     1     1    28    1
     2     1    29    1
     3     2     1    1
     4     3     2   ar
     5     3    30    1
     6     4     3   ar
     7     4    31    1
     8     5     4   ar
     9     6     5   ar
    10     6     2   ar
    11     7     6   am
    12     8     7    2
    13    10     9    1
    14    10    33    1
    15    10    34    1
    16    11    10    1
    17    11    35    1
    18    11    36    1
    19    12    11    1
    20    13    12    1
    21    13    37    1
    22    13    38    1
    23    14    13    1
    24    14     9    1
    25    14    39    1
    26    14    40    1
    27    15    12    1
    28    16    15    1
    29    17    16    1
    30    18    17    1
    31    18    12    1
    32    19    17    1
    33    19    41    1
    34    20    19    1
    35    20    42    1
    36    20    43    1
    37    21    20    1
    38    21    44    1
    39    22    21    1
    40    22    45    1
    41    22    46    1
    42    23    22    1
    43    23    47    1
    44    24    23    1
    45    24    19    1
    46    24    48    1
    47    24    49    1
    48    25    23    1
    49    25    50    1
    50    25    51    1
    51    26    25    1
    52    26    17    1
    53    26    52    1
    54    27    26    1
    55    27    21    1
    56    27    53    1
    57    27    54    1
    58     9    32    1
    59     9     7    1
