@<TRIPOS>MOLECULE
>2.sdf
 42 46 0 0 0
SMALL
GASTEIGER

@<TRIPOS>ATOM
      1 C           1.0563    0.1659    0.0193 C.3     1  UNL1       -0.0396
      2 C           2.5534    0.0765    0.0055 C.ar    1  UNL1       -0.0484
      3 C           3.3389    1.2359   -0.0177 C.ar    1  UNL1       -0.0328
      4 C           4.7327    1.2019   -0.0205 C.ar    1  UNL1        0.0725
      5 N           5.3655    2.3830   -0.0574 N.ar    1  UNL1       -0.2459
      6 C           6.7160    2.4080   -0.0548 C.ar    1  UNL1        0.0839
      7 C           7.4715    1.2348    0.0205 C.ar    1  UNL1        0.0598
      8 C           8.9276    1.4636    0.1131 C.2     1  UNL1        0.2356
      9 O           9.6694    0.8539    0.8580 O.2     1  UNL1       -0.2831
     10 C           9.4613    2.6337   -0.6874 C.2     1  UNL1        0.2336
     11 O          10.4364    2.5299   -1.4092 O.2     1  UNL1       -0.2832
     12 C           8.6977    3.8741   -0.5096 C.ar    1  UNL1        0.0347
     13 C           7.3441    3.7494   -0.1479 C.ar    1  UNL1        0.0120
     14 C           6.6459    4.9411    0.1002 C.ar    1  UNL1       -0.0519
     15 C           7.2819    6.1868    0.0004 C.ar    1  UNL1       -0.0611
     16 C           8.6223    6.2714   -0.3782 C.ar    1  UNL1       -0.0610
     17 C           9.3362    5.1101   -0.6494 C.ar    1  UNL1       -0.0502
     18 C           6.8489   -0.0363    0.0601 C.ar    1  UNL1        0.0043
     19 C           7.6501   -1.3035    0.1679 C.ar    1  UNL1       -0.0164
     20 C           7.2911   -2.3368    1.0566 C.ar    1  UNL1       -0.0529
     21 C           8.0439   -3.5120    1.1792 C.ar    1  UNL1       -0.0472
     22 C           9.2375   -3.6386    0.4819 C.ar    1  UNL1        0.0179
     23 BR         10.3223   -5.1636    0.7362 Br      1  UNL1       -0.0503
     24 C           9.6424   -2.6331   -0.3847 C.ar    1  UNL1       -0.0472
     25 C           8.8314   -1.5066   -0.5765 C.ar    1  UNL1       -0.0529
     26 C           5.4063   -0.0444    0.0048 C.ar    1  UNL1        0.0088
     27 C           4.5907   -1.2076   -0.0389 C.ar    1  UNL1       -0.0517
     28 C           3.1952   -1.1517   -0.0091 C.ar    1  UNL1       -0.0581
     29 H           0.7138    0.7171    0.9007 H       1  UNL1        0.0278
     30 H           0.6997    0.6692   -0.8846 H       1  UNL1        0.0278
     31 H           0.5958   -0.8280    0.0518 H       1  UNL1        0.0278
     32 H           2.8489    2.2080   -0.0280 H       1  UNL1        0.0642
     33 H           5.5956    4.9105    0.3888 H       1  UNL1        0.0624
     34 H           6.7264    7.0960    0.2214 H       1  UNL1        0.0618
     35 H           9.1110    7.2405   -0.4496 H       1  UNL1        0.0618
     36 H          10.3850    5.1629   -0.9351 H       1  UNL1        0.0625
     37 H           6.4057   -2.2474    1.6853 H       1  UNL1        0.0624
     38 H           7.7028   -4.3024    1.8423 H       1  UNL1        0.0629
     39 H          10.5946   -2.6975   -0.9058 H       1  UNL1        0.0629
     40 H           9.1891   -0.7566   -1.2777 H       1  UNL1        0.0624
     41 H           5.0291   -2.1998   -0.1018 H       1  UNL1        0.0624
     42 H           2.6237   -2.0786    0.0015 H       1  UNL1        0.0620
@<TRIPOS>BOND
     1     1    29    1
     2     1    30    1
     3     1    31    1
     4     2     1    1
     5     3     2   ar
     6     3    32    1
     7     4     3   ar
     8     5     4   ar
     9     6     5   ar
    10     7     6   ar
    11     8     7    1
    12     9     8    2
    13    10     8    1
    14    11    10    2
    15    12    10    1
    16    13    12   ar
    17    13     6    1
    18    14    13   ar
    19    14    33    1
    20    15    14   ar
    21    15    34    1
    22    16    15   ar
    23    16    35    1
    24    17    16   ar
    25    17    12   ar
    26    17    36    1
    27    18     7   ar
    28    19    18    1
    29    20    19   ar
    30    20    37    1
    31    21    20   ar
    32    21    38    1
    33    22    21   ar
    34    23    22    1
    35    24    22   ar
    36    24    39    1
    37    25    24   ar
    38    25    19   ar
    39    25    40    1
    40    26    18   ar
    41    26     4   ar
    42    27    26   ar
    43    27    41    1
    44    28    27   ar
    45    28     2   ar
    46    28    42    1
