@<TRIPOS>MOLECULE
>114.sdf
 47 50 0 0 0
SMALL
GASTEIGER

@<TRIPOS>ATOM
      1 O           0.3728   -0.7782   -2.2985 O.3     1  UNL1       -0.5049
      2 C          -0.1702   -0.5047   -1.0674 C.ar    1  UNL1        0.1378
      3 C           0.1479   -1.3347    0.0307 C.ar    1  UNL1        0.0718
      4 C          -0.3425   -0.9466    1.2791 C.ar    1  UNL1       -0.0371
      5 C          -1.1408    0.2010    1.4095 C.ar    1  UNL1       -0.0598
      6 C          -1.4530    0.9829    0.2955 C.ar    1  UNL1       -0.0582
      7 C          -0.9626    0.6290   -0.9549 C.ar    1  UNL1       -0.0183
      8 N           0.9471   -2.4578   -0.1900 N.pl3   1  UNL1       -0.3241
      9 C           1.7799   -3.0172    0.8971 C.3     1  UNL1        0.0281
     10 C           2.8909   -3.9083    0.2725 C.3     1  UNL1        0.0280
     11 N           2.3187   -4.9295   -0.6527 N.pl3   1  UNL1       -0.3256
     12 C           1.4061   -4.3504   -1.6703 C.3     1  UNL1        0.0280
     13 C           0.2952   -3.5379   -0.9748 C.3     1  UNL1        0.0281
     14 C           2.7710   -6.2482   -0.7201 C.ar    1  UNL1        0.0579
     15 C           3.2463   -6.8937   -1.8102 C.ar    1  UNL1        0.1569
     16 C           3.4507   -6.2345   -3.0544 C.1     1  UNL1        0.1082
     17 N           3.5925   -5.6635   -4.0548 N.1     1  UNL1       -0.1906
     18 C           3.6023   -8.3272   -1.7543 C.ar    1  UNL1        0.3567
     19 O           4.0133   -8.9282   -2.7421 O.2     1  UNL1       -0.2437
     20 O           3.4459   -8.9763   -0.5634 O.2     1  UNL1       -0.4212
     21 C           2.9876   -8.2882    0.5744 C.ar    1  UNL1        0.1409
     22 C           2.6509   -6.9958    0.5162 C.ar    1  UNL1        0.0039
     23 C           2.9538   -9.0945    1.8058 C.ar    1  UNL1        0.0175
     24 C           2.6355  -10.4592    1.7530 C.ar    1  UNL1       -0.0511
     25 C           2.7189  -11.2552    2.8981 C.ar    1  UNL1       -0.0611
     26 C           3.1204  -10.6956    4.1089 C.ar    1  UNL1       -0.0617
     27 C           3.4166   -9.3373    4.1824 C.ar    1  UNL1       -0.0611
     28 C           3.3317   -8.5414    3.0390 C.ar    1  UNL1       -0.0511
     29 H           1.0746   -1.4247   -2.0920 H       1  UNL1        0.2922
     30 H          -0.1312   -1.5303    2.1692 H       1  UNL1        0.0637
     31 H          -1.5207    0.4872    2.3870 H       1  UNL1        0.0618
     32 H          -2.0657    1.8736    0.4025 H       1  UNL1        0.0619
     33 H          -1.1690    1.2361   -1.8304 H       1  UNL1        0.0655
     34 H           2.2540   -2.2207    1.4823 H       1  UNL1        0.0479
     35 H           1.1651   -3.6231    1.5762 H       1  UNL1        0.0479
     36 H           3.5780   -3.2731   -0.3016 H       1  UNL1        0.0479
     37 H           3.4782   -4.3747    1.0718 H       1  UNL1        0.0479
     38 H           1.9818   -3.6975   -2.3385 H       1  UNL1        0.0479
     39 H           0.9392   -5.1362   -2.2734 H       1  UNL1        0.0479
     40 H          -0.2807   -4.1891   -0.3027 H       1  UNL1        0.0479
     41 H          -0.3981   -3.1584   -1.7323 H       1  UNL1        0.0479
     42 H           2.2644   -6.4777    1.3889 H       1  UNL1        0.0673
     43 H           2.3350  -10.9217    0.8144 H       1  UNL1        0.0625
     44 H           2.4882  -12.3159    2.8391 H       1  UNL1        0.0618
     45 H           3.2125  -11.3204    4.9934 H       1  UNL1        0.0618
     46 H           3.7360   -8.8992    5.1243 H       1  UNL1        0.0618
     47 H           3.6015   -7.4914    3.1198 H       1  UNL1        0.0625
@<TRIPOS>BOND
     1     1    29    1
     2     2     1    1
     3     3     2   ar
     4     4     3   ar
     5     4    30    1
     6     5     4   ar
     7     5    31    1
     8     6     5   ar
     9     6    32    1
    10     7     6   ar
    11     7     2   ar
    12     7    33    1
    13     8     3    1
    14     9     8    1
    15     9    34    1
    16     9    35    1
    17    10     9    1
    18    10    36    1
    19    10    37    1
    20    11    10    1
    21    12    11    1
    22    12    38    1
    23    12    39    1
    24    13    12    1
    25    13     8    1
    26    13    40    1
    27    13    41    1
    28    14    11    1
    29    15    14   ar
    30    16    15    1
    31    17    16    3
    32    18    15   ar
    33    19    18    2
    34    20    18   ar
    35    21    20   ar
    36    22    21   ar
    37    22    14   ar
    38    22    42    1
    39    23    21    1
    40    24    23   ar
    41    24    43    1
    42    25    24   ar
    43    25    44    1
    44    26    25   ar
    45    26    45    1
    46    27    26   ar
    47    27    46    1
    48    28    27   ar
    49    28    23   ar
    50    28    47    1
