@<TRIPOS>MOLECULE
>222.sdf
 41 44 0 0 0
SMALL
GASTEIGER

@<TRIPOS>ATOM
      1 C          -3.5165    0.1393    1.6990 C.3     1  UNL1       -0.0215
      2 C          -3.3711    0.0248    0.1744 C.3     1  UNL1        0.1235
      3 C          -4.7149    0.3397   -0.4920 C.3     1  UNL1       -0.0215
      4 O          -2.4621    1.0531   -0.2778 O.3     1  UNL1       -0.4814
      5 C          -1.1284    0.7415   -0.2327 C.ar    1  UNL1        0.1359
      6 C          -0.2538    1.8243   -0.1959 C.ar    1  UNL1        0.0231
      7 C           1.1179    1.6000   -0.1084 C.ar    1  UNL1        0.1347
      8 O           1.9569    2.6733   -0.0628 O.3     1  UNL1       -0.5058
      9 C           1.6173    0.2898   -0.0626 C.ar    1  UNL1        0.1061
     10 C           3.0632    0.0049    0.0758 C.ar    1  UNL1        0.1966
     11 O           3.9377    0.8529    0.1905 O.2     1  UNL1       -0.2869
     12 C           3.4501   -1.4107    0.0951 C.ar    1  UNL1        0.0288
     13 C           2.5157   -2.3653    0.0299 C.ar    1  UNL1        0.1393
     14 O           1.1630   -2.1051   -0.1027 O.2     1  UNL1       -0.4538
     15 C           0.7336   -0.7959   -0.1406 C.ar    1  UNL1        0.1534
     16 C          -0.6511   -0.5752   -0.2403 C.ar    1  UNL1        0.0597
     17 C          -1.6231   -1.6611   -0.3793 C.2     1  UNL1       -0.0478
     18 C          -2.9158   -1.3693   -0.1935 C.2     1  UNL1       -0.0408
     19 C           2.8776   -3.7978    0.0786 C.ar    1  UNL1        0.0176
     20 C           3.9945   -4.2440    0.8080 C.ar    1  UNL1       -0.0476
     21 C           4.3480   -5.5953    0.8354 C.ar    1  UNL1       -0.0195
     22 C           3.5720   -6.5151    0.1455 C.ar    1  UNL1        0.1169
     23 O           3.8822   -7.8418    0.1459 O.3     1  UNL1       -0.5068
     24 C           2.4518   -6.1068   -0.5653 C.ar    1  UNL1       -0.0195
     25 C           2.1020   -4.7531   -0.5962 C.ar    1  UNL1       -0.0476
     26 H          -4.2371   -0.5844    2.0946 H       1  UNL1        0.0271
     27 H          -2.5572   -0.0291    2.2042 H       1  UNL1        0.0271
     28 H          -3.8385    1.1467    1.9860 H       1  UNL1        0.0271
     29 H          -4.6262    0.3233   -1.5845 H       1  UNL1        0.0271
     30 H          -5.4963   -0.3684   -0.1962 H       1  UNL1        0.0271
     31 H          -5.0505    1.3496   -0.2262 H       1  UNL1        0.0271
     32 H          -0.6587    2.8305   -0.2215 H       1  UNL1        0.0691
     33 H           1.4538    3.5015   -0.1133 H       1  UNL1        0.2922
     34 H           4.5157   -1.5988    0.1708 H       1  UNL1        0.0693
     35 H          -1.2871   -2.6653   -0.6102 H       1  UNL1        0.0624
     36 H          -3.6601   -2.1569   -0.2581 H       1  UNL1        0.0611
     37 H           4.6084   -3.5465    1.3739 H       1  UNL1        0.0626
     38 H           5.2255   -5.9009    1.3985 H       1  UNL1        0.0654
     39 H           4.6770   -7.9747    0.6884 H       1  UNL1        0.2921
     40 H           1.8516   -6.8381   -1.0994 H       1  UNL1        0.0654
     41 H           1.2247   -4.4548   -1.1654 H       1  UNL1        0.0626
@<TRIPOS>BOND
     1     1    26    1
     2     1    27    1
     3     1    28    1
     4     2     1    1
     5     3     2    1
     6     3    29    1
     7     3    30    1
     8     3    31    1
     9     4     2    1
    10     5     4    1
    11     6     5   ar
    12     6    32    1
    13     7     6   ar
    14     8     7    1
    15     8    33    1
    16     9     7   ar
    17    10     9   ar
    18    11    10    2
    19    12    10   ar
    20    12    34    1
    21    13    12   ar
    22    14    13   ar
    23    15    14   ar
    24    15     9   ar
    25    16    15   ar
    26    16     5   ar
    27    17    16    1
    28    17    35    1
    29    18    17    2
    30    18     2    1
    31    18    36    1
    32    19    13    1
    33    20    19   ar
    34    20    37    1
    35    21    20   ar
    36    21    38    1
    37    22    21   ar
    38    23    22    1
    39    23    39    1
    40    24    22   ar
    41    24    40    1
    42    25    24   ar
    43    25    19   ar
    44    25    41    1
