@<TRIPOS>MOLECULE
>226.sdf
 35 38 0 0 0
SMALL
GASTEIGER

@<TRIPOS>ATOM
      1 CL          6.2305   -5.5827    0.2636 Cl      1  UNL1       -0.0835
      2 C           5.5880   -3.9885    0.1906 C.ar    1  UNL1        0.0410
      3 C           6.4519   -2.8975    0.1547 C.ar    1  UNL1       -0.0430
      4 C           5.9315   -1.6031    0.0955 C.ar    1  UNL1       -0.0536
      5 C           4.5412   -1.3865    0.0825 C.ar    1  UNL1       -0.0048
      6 C           3.6865   -2.4991    0.1165 C.ar    1  UNL1       -0.0536
      7 C           4.2090   -3.7951    0.1680 C.ar    1  UNL1       -0.0430
      8 C           3.9685    0.0281    0.0484 C.3     1  UNL1        0.1546
      9 O           4.5596    0.6441   -1.1112 O.3     1  UNL1       -0.4809
     10 C           4.2960    1.9760   -1.2397 C.ar    1  UNL1        0.1320
     11 C           4.3992    2.5085   -2.5244 C.ar    1  UNL1       -0.0192
     12 C           4.2131    3.8766   -2.7337 C.ar    1  UNL1       -0.0583
     13 C           3.9335    4.7170   -1.6565 C.ar    1  UNL1       -0.0609
     14 C           3.8258    4.1868   -0.3716 C.ar    1  UNL1       -0.0477
     15 C           4.0050    2.8136   -0.1679 C.ar    1  UNL1        0.0613
     16 C           3.9542    2.2548    1.1941 C.2     1  UNL1        0.1949
     17 O           3.7592    3.0085    2.1452 O.2     1  UNL1       -0.2895
     18 C           4.2770    0.7888    1.3452 C.3     1  UNL1        0.1574
     19 N           3.5818    0.2466    2.4987 N.ar    1  UNL1       -0.2372
     20 C           4.0574    0.1019    3.7703 C.ar    1  UNL1        0.0464
     21 C           2.9931   -0.4233    4.4599 C.ar    1  UNL1        0.0693
     22 N           1.9398   -0.6030    3.6083 N.ar    1  UNL1       -0.1379
     23 N           2.3091   -0.1829    2.4062 N.ar    1  UNL1       -0.0649
     24 H           7.5283   -3.0470    0.1688 H       1  UNL1        0.0632
     25 H           6.6230   -0.7638    0.0504 H       1  UNL1        0.0622
     26 H           2.6050   -2.3688    0.1122 H       1  UNL1        0.0622
     27 H           3.5342   -4.6469    0.1948 H       1  UNL1        0.0632
     28 H           2.8868   -0.0243   -0.1406 H       1  UNL1        0.0811
     29 H           4.6250    1.8590   -3.3669 H       1  UNL1        0.0654
     30 H           4.2950    4.2888   -3.7369 H       1  UNL1        0.0619
     31 H           3.8067    5.7855   -1.8158 H       1  UNL1        0.0618
     32 H           3.6217    4.8481    0.4689 H       1  UNL1        0.0626
     33 H           5.3515    0.7469    1.5692 H       1  UNL1        0.0669
     34 H           5.0507    0.4009    4.0685 H       1  UNL1        0.0842
     35 H           2.9226   -0.6717    5.5089 H       1  UNL1        0.0864
@<TRIPOS>BOND
     1     2     1    1
     2     3     2   ar
     3     3    24    1
     4     4     3   ar
     5     4    25    1
     6     5     4   ar
     7     6     5   ar
     8     6    26    1
     9     7     6   ar
    10     7     2   ar
    11     7    27    1
    12     9     8    1
    13    10     9    1
    14    11    10   ar
    15    11    29    1
    16    12    11   ar
    17    12    30    1
    18    13    12   ar
    19    13    31    1
    20    14    13   ar
    21    14    32    1
    22    15    14   ar
    23    15    10   ar
    24    16    15    1
    25    17    16    2
    26    18    16    1
    27    18     8    1
    28    18    33    1
    29    19    18    1
    30    20    19   ar
    31    20    34    1
    32    21    20   ar
    33    21    35    1
    34    22    21   ar
    35    23    22   ar
    36    23    19   ar
    37     8    28    1
    38     8     5    1
