@<TRIPOS>MOLECULE
>167.sdf
 34 35 0 0 0
SMALL
GASTEIGER

@<TRIPOS>ATOM
      1 C          -0.2754    1.3485   -2.3552 C.3     1  UNL1        0.0191
      2 N          -0.2275    0.5423   -1.1560 N.ar    1  UNL1       -0.2708
      3 C           0.1592    0.9705    0.1067 C.ar    1  UNL1        0.1522
      4 C           0.5838    2.3691    0.4588 C.3     1  UNL1        0.1472
      5 O           1.8095    2.6331   -0.2225 O.3     1  UNL1       -0.4843
      6 C           2.4216    3.8327    0.0301 C.ar    1  UNL1        0.1212
      7 C           1.9785    4.8241    0.9105 C.ar    1  UNL1       -0.0181
      8 C           2.6898    6.0271    1.0373 C.ar    1  UNL1       -0.0334
      9 C           3.8519    6.2316    0.2879 C.ar    1  UNL1        0.0881
     10 C           4.3096    5.2430   -0.5833 C.ar    1  UNL1       -0.0334
     11 C           3.5950    4.0474   -0.7020 C.ar    1  UNL1       -0.0181
     12 S           4.6671    7.8147    0.3281 S.O2    1  UNL1       -0.0059
     13 C           5.8347    7.6839    1.6538 C.3     1  UNL1        0.0596
     14 O           5.4112    7.9495   -0.9102 O.2     1  UNL1       -0.1696
     15 O           3.6708    8.8006    0.7027 O.2     1  UNL1       -0.1696
     16 N           0.0634   -0.0193    0.9828 N.ar    1  UNL1       -0.2299
     17 C          -0.3753   -1.1119    0.2839 C.ar    1  UNL1        0.1257
     18 C          -0.5648   -0.7856   -1.0333 C.ar    1  UNL1        0.3677
     19 N          -1.0248   -1.6369   -2.0782 N.pl3   1  UNL1        0.1004
     20 O          -1.1611   -1.1504   -3.2055 O.co2   1  UNL1       -0.5747
     21 O          -1.2631   -2.8092   -1.7667 O.2     1  UNL1        0.0431
     22 H           0.3817    0.9001   -3.1051 H       1  UNL1        0.0458
     23 H          -1.3104    1.3839   -2.7065 H       1  UNL1        0.0458
     24 H           0.0606    2.3651   -2.1511 H       1  UNL1        0.0458
     25 H          -0.1934    3.0817    0.1612 H       1  UNL1        0.0779
     26 H           0.7365    2.4172    1.5441 H       1  UNL1        0.0779
     27 H           1.0756    4.7068    1.5021 H       1  UNL1        0.0655
     28 H           2.3136    6.8047    1.7001 H       1  UNL1        0.0638
     29 H           5.1971    5.3990   -1.1928 H       1  UNL1        0.0638
     30 H           3.9458    3.2815   -1.3908 H       1  UNL1        0.0655
     31 H           6.5383    6.8787    1.4373 H       1  UNL1        0.0468
     32 H           6.3728    8.6337    1.7199 H       1  UNL1        0.0468
     33 H           5.3010    7.4996    2.5873 H       1  UNL1        0.0468
     34 H          -0.5361   -2.0658    0.7705 H       1  UNL1        0.0917
@<TRIPOS>UNITY_ATOM_ATTR
19 1
charge 1
20 1
charge -1
@<TRIPOS>BOND
     1     1    22    1
     2     1    23    1
     3     1    24    1
     4     2     1    1
     5     3     2   ar
     6     4     3    1
     7     4    25    1
     8     4    26    1
     9     5     4    1
    10     6     5    1
    11     7     6   ar
    12     7    27    1
    13     8     7   ar
    14     8    28    1
    15     9     8   ar
    16    10     9   ar
    17    10    29    1
    18    11    10   ar
    19    11     6   ar
    20    11    30    1
    21    12     9    1
    22    13    12    1
    23    13    31    1
    24    13    32    1
    25    13    33    1
    26    14    12    2
    27    15    12    2
    28    16     3   ar
    29    17    16   ar
    30    17    34    1
    31    18    17   ar
    32    18     2   ar
    33    19    18    1
    34    20    19    1
    35    21    19    2
