@<TRIPOS>MOLECULE
>105.sdf
 59 63 0 0 0
SMALL
GASTEIGER

@<TRIPOS>ATOM
      1 C           5.6227   -2.6618    0.5659 C.3     1  UNL1       -0.0648
      2 C           4.7430   -1.5333    0.0462 C.3     1  UNL1       -0.0476
      3 C           5.5544   -0.6199   -0.8608 C.3     1  UNL1        0.0256
      4 C           4.7855    0.5904   -1.3732 C.2     1  UNL1        0.2353
      5 O           3.8597    1.0962   -0.7422 O.2     1  UNL1       -0.2738
      6 N           5.2957    1.1366   -2.5434 N.am    1  UNL1       -0.1850
      7 N           6.3282    0.5429   -3.2253 N.2     1  UNL1       -0.1809
      8 C           6.7443    1.3943   -4.1087 C.2     1  UNL1        0.0688
      9 C           6.0630    2.7324   -4.0744 C.3     1  UNL1        0.0165
     10 C           4.9955    2.4875   -3.0111 C.3     1  UNL1        0.0828
     11 C           3.6156    2.6300   -3.5746 C.ar    1  UNL1        0.0210
     12 C           2.8464    1.6609   -4.1898 C.ar    1  UNL1        0.0369
     13 N           1.6320    2.2250   -4.4887 N.ar    1  UNL1       -0.2390
     14 N           1.6262    3.5495   -4.2125 N.ar    1  UNL1       -0.1660
     15 C           2.7998    3.8077   -3.6136 C.ar    1  UNL1        0.0981
     16 C           3.0831    5.1562   -3.0920 C.ar    1  UNL1        0.0024
     17 C           2.0389    5.9440   -2.5856 C.ar    1  UNL1       -0.0525
     18 C           2.2910    7.2047   -2.0338 C.ar    1  UNL1       -0.0611
     19 C           3.5936    7.6955   -1.9752 C.ar    1  UNL1       -0.0617
     20 C           4.6380    6.9390   -2.4933 C.ar    1  UNL1       -0.0611
     21 C           4.3794    5.6899   -3.0650 C.ar    1  UNL1       -0.0525
     22 C           0.4735    1.5775   -5.0084 C.ar    1  UNL1        0.0655
     23 C           0.4493    0.1887   -5.2075 C.ar    1  UNL1       -0.0349
     24 C          -0.7149   -0.4346   -5.6695 C.ar    1  UNL1       -0.0414
     25 C          -1.8518    0.3238   -5.9395 C.ar    1  UNL1        0.0411
     26 CL         -3.2849   -0.4537   -6.4887 Cl      1  UNL1       -0.0835
     27 C          -1.8358    1.7048   -5.7595 C.ar    1  UNL1       -0.0414
     28 C          -0.6760    2.3329   -5.2937 C.ar    1  UNL1       -0.0349
     29 C           7.8286    1.0990   -5.0702 C.ar    1  UNL1       -0.0022
     30 C           8.4332   -0.1639   -5.0427 C.ar    1  UNL1       -0.0528
     31 C           9.4475   -0.4740   -5.9506 C.ar    1  UNL1       -0.0611
     32 C           9.8596    0.4756   -6.8841 C.ar    1  UNL1       -0.0617
     33 C           9.2647    1.7356   -6.9104 C.ar    1  UNL1       -0.0611
     34 C           8.2521    2.0502   -6.0038 C.ar    1  UNL1       -0.0528
     35 H           5.0407   -3.3543    1.1800 H       1  UNL1        0.0230
     36 H           6.0637   -3.2278   -0.2620 H       1  UNL1        0.0230
     37 H           6.4408   -2.2660    1.1772 H       1  UNL1        0.0230
     38 H           3.8995   -1.9532   -0.5141 H       1  UNL1        0.0267
     39 H           4.3228   -0.9752    0.8904 H       1  UNL1        0.0267
     40 H           6.4154   -0.2217   -0.3091 H       1  UNL1        0.0359
     41 H           5.9366   -1.2175   -1.6939 H       1  UNL1        0.0359
     42 H           5.6584    2.9980   -5.0561 H       1  UNL1        0.0351
     43 H           6.7850    3.4876   -3.7487 H       1  UNL1        0.0351
     44 H           5.1220    3.1570   -2.1533 H       1  UNL1        0.0576
     45 H           3.0667    0.6229   -4.3860 H       1  UNL1        0.0834
     46 H           1.0156    5.5731   -2.6097 H       1  UNL1        0.0624
     47 H           1.4689    7.7980   -1.6433 H       1  UNL1        0.0618
     48 H           3.7921    8.6673   -1.5319 H       1  UNL1        0.0618
     49 H           5.6562    7.3193   -2.4573 H       1  UNL1        0.0618
     50 H           5.2168    5.1586   -3.4946 H       1  UNL1        0.0624
     51 H           1.3069   -0.4415   -4.9931 H       1  UNL1        0.0639
     52 H          -0.7294   -1.5133   -5.8047 H       1  UNL1        0.0633
     53 H          -2.7218    2.2981   -5.9695 H       1  UNL1        0.0633
     54 H          -0.6861    3.4124   -5.1503 H       1  UNL1        0.0639
     55 H           8.1179   -0.9155   -4.3211 H       1  UNL1        0.0624
     56 H           9.9160   -1.4539   -5.9350 H       1  UNL1        0.0618
     57 H          10.6468    0.2326   -7.5931 H       1  UNL1        0.0618
     58 H           9.5885    2.4732   -7.6387 H       1  UNL1        0.0618
     59 H           7.8087    3.0402   -6.0490 H       1  UNL1        0.0624
@<TRIPOS>BOND
     1     1    35    1
     2     1    36    1
     3     1    37    1
     4     2     1    1
     5     2    38    1
     6     2    39    1
     7     3     2    1
     8     3    40    1
     9     3    41    1
    10     4     3    1
    11     5     4    2
    12     6     4   am
    13     7     6    1
    14     8     7    2
    15     9     8    1
    16     9    42    1
    17     9    43    1
    18    10     9    1
    19    10     6    1
    20    12    11   ar
    21    12    45    1
    22    13    12   ar
    23    14    13   ar
    24    15    14   ar
    25    15    11   ar
    26    16    15    1
    27    17    16   ar
    28    17    46    1
    29    18    17   ar
    30    18    47    1
    31    19    18   ar
    32    19    48    1
    33    20    19   ar
    34    20    49    1
    35    21    20   ar
    36    21    16   ar
    37    21    50    1
    38    22    13    1
    39    23    22   ar
    40    23    51    1
    41    24    23   ar
    42    24    52    1
    43    25    24   ar
    44    26    25    1
    45    27    25   ar
    46    27    53    1
    47    28    27   ar
    48    28    22   ar
    49    28    54    1
    50    29     8    1
    51    30    29   ar
    52    30    55    1
    53    31    30   ar
    54    31    56    1
    55    32    31   ar
    56    32    57    1
    57    33    32   ar
    58    33    58    1
    59    34    33   ar
    60    34    29   ar
    61    34    59    1
    62    10    11    1
    63    10    44    1
