@<TRIPOS>MOLECULE
>119.sdf
 43 46 0 0 0
SMALL
GASTEIGER

@<TRIPOS>ATOM
      1 C           0.7738    0.3291   -0.3700 C.3     1  UNL1        0.0788
      2 O           2.1245    0.7198   -0.6021 O.3     1  UNL1       -0.4951
      3 C           2.7415    1.3836    0.4222 C.ar    1  UNL1        0.1201
      4 C           2.0958    2.0091    1.4864 C.ar    1  UNL1       -0.0194
      5 C           2.8358    2.4973    2.5687 C.ar    1  UNL1       -0.0503
      6 C           4.2193    2.2691    2.6315 C.ar    1  UNL1       -0.0090
      7 C           4.8759    1.8304    1.4717 C.ar    1  UNL1       -0.0503
      8 C           4.1355    1.3855    0.3751 C.ar    1  UNL1       -0.0194
      9 C           4.9391    2.0612    3.9389 C.ar    1  UNL1        0.0883
     10 C           5.0699    0.7393    4.2407 C.ar    1  UNL1        0.0568
     11 N           6.0715    0.1559    5.0110 N.pl3   1  UNL1       -0.3133
     12 C           7.0988   -0.6276    4.3972 C.ar    1  UNL1        0.0315
     13 C           7.0637   -1.0136    3.0546 C.ar    1  UNL1       -0.0378
     14 C           8.0936   -1.7886    2.5080 C.ar    1  UNL1       -0.0247
     15 C           9.1417   -2.2089    3.3112 C.ar    1  UNL1        0.1235
     16 F          10.1210   -2.9570    2.7854 F       1  UNL1       -0.2055
     17 C           9.1803   -1.8749    4.6572 C.ar    1  UNL1       -0.0247
     18 C           8.1562   -1.0890    5.1999 C.ar    1  UNL1       -0.0378
     19 C           3.7121    0.1965    4.5331 C.ar    1  UNL1        0.0393
     20 C           2.9082    0.9952    5.3625 C.ar    1  UNL1        0.1409
     21 O           3.4510    2.1926    5.8864 O.2     1  UNL1       -0.4216
     22 C           4.4899    2.7977    5.1624 C.ar    1  UNL1        0.3469
     23 O           5.0009    3.8565    5.5066 O.2     1  UNL1       -0.2444
     24 C           1.5393    0.7880    5.4880 C.ar    1  UNL1       -0.0186
     25 C           0.9471   -0.2060    4.7099 C.ar    1  UNL1       -0.0582
     26 C           1.7313   -1.0099    3.8706 C.ar    1  UNL1       -0.0609
     27 C           3.1181   -0.8291    3.7973 C.ar    1  UNL1       -0.0493
     28 H           0.6493   -0.1821    0.5926 H       1  UNL1        0.0660
     29 H           0.1120    1.1970   -0.4412 H       1  UNL1        0.0660
     30 H           0.4874   -0.3787   -1.1542 H       1  UNL1        0.0660
     31 H           1.0133    2.0597    1.5454 H       1  UNL1        0.0654
     32 H           2.2865    2.8881    3.4215 H       1  UNL1        0.0625
     33 H           5.9572    1.7044    1.4636 H       1  UNL1        0.0625
     34 H           4.6481    0.9478   -0.4775 H       1  UNL1        0.0654
     35 H           6.5406    0.8414    5.6080 H       1  UNL1        0.1522
     36 H           6.2555   -0.7109    2.4023 H       1  UNL1        0.0637
     37 H           8.0805   -2.0616    1.4543 H       1  UNL1        0.0647
     38 H          10.0004   -2.2195    5.2816 H       1  UNL1        0.0647
     39 H           8.1907   -0.8426    6.2609 H       1  UNL1        0.0637
     40 H           0.9324    1.4524    6.0952 H       1  UNL1        0.0654
     41 H          -0.1342   -0.3242    4.7165 H       1  UNL1        0.0619
     42 H           1.2501   -1.7445    3.2278 H       1  UNL1        0.0618
     43 H           3.7009   -1.4081    3.0860 H       1  UNL1        0.0625
@<TRIPOS>BOND
     1     1    28    1
     2     1    29    1
     3     1    30    1
     4     2     1    1
     5     3     2    1
     6     4     3   ar
     7     4    31    1
     8     5     4   ar
     9     5    32    1
    10     6     5   ar
    11     7     6   ar
    12     7    33    1
    13     8     7   ar
    14     8     3   ar
    15     8    34    1
    16     9     6    1
    17    10     9   ar
    18    11    10    1
    19    11    35    1
    20    12    11    1
    21    13    12   ar
    22    13    36    1
    23    14    13   ar
    24    14    37    1
    25    15    14   ar
    26    16    15    1
    27    17    15   ar
    28    17    38    1
    29    18    17   ar
    30    18    12   ar
    31    18    39    1
    32    19    10   ar
    33    20    19   ar
    34    21    20   ar
    35    22    21   ar
    36    22     9   ar
    37    23    22    2
    38    24    20   ar
    39    24    40    1
    40    25    24   ar
    41    25    41    1
    42    26    25   ar
    43    26    42    1
    44    27    26   ar
    45    27    19   ar
    46    27    43    1
