@<TRIPOS>MOLECULE
>21.sdf
 43 46 0 0 0
SMALL
GASTEIGER

@<TRIPOS>ATOM
      1 F           2.1329   -0.2330    0.1034 F       1  UNL1       -0.2055
      2 C           0.7978   -0.1333    0.1158 C.ar    1  UNL1        0.1234
      3 C           0.1911    0.9920   -0.4206 C.ar    1  UNL1       -0.0258
      4 C          -1.2028    1.0965   -0.4066 C.ar    1  UNL1       -0.0498
      5 C          -2.0054    0.0563    0.0885 C.ar    1  UNL1        0.0031
      6 C          -1.3628   -1.0588    0.6567 C.ar    1  UNL1       -0.0498
      7 C           0.0337   -1.1517    0.6738 C.ar    1  UNL1       -0.0258
      8 C          -3.4677    0.1116    0.0348 C.ar    1  UNL1        0.1033
      9 C          -4.2716    0.6259   -0.9724 C.ar    1  UNL1        0.1126
     10 I          -3.7533    1.3706   -2.8268 I       1  UNL1       -0.0212
     11 N          -5.5647    0.4173   -0.5616 N.ar    1  UNL1       -0.2900
     12 C          -6.7957    0.7001   -1.1262 C.ar    1  UNL1        0.0304
     13 C          -7.8969    0.2086   -0.5388 C.ar    1  UNL1        0.0464
     14 N          -7.8776   -0.6064    0.5769 N.ar    1  UNL1       -0.2353
     15 C          -6.7288   -0.8046    1.1907 C.ar    1  UNL1        0.1658
     16 N          -6.7384   -1.6155    2.3006 N.pl3   1  UNL1       -0.2883
     17 C          -7.8391   -2.4457    2.6490 C.3     1  UNL1        0.0370
     18 N          -7.8921   -3.5084    1.6058 N.4     1  UNL1        0.2518
     19 C          -6.6202   -4.3434    1.5530 C.3     1  UNL1       -0.0063
     20 C          -6.7393   -5.4300    0.4837 C.3     1  UNL1        0.0878
     21 O          -7.8910   -6.2449    0.7165 O.3     1  UNL1       -0.3693
     22 C          -9.0953   -5.4757    0.6371 C.3     1  UNL1        0.0878
     23 C          -9.1231   -4.3845    1.7163 C.3     1  UNL1       -0.0063
     24 C          -5.4995   -0.2745    0.6208 C.ar    1  UNL1        0.1795
     25 N          -4.2613   -0.4844    1.0177 N.ar    1  UNL1       -0.2234
     26 H           0.8008    1.7834   -0.8459 H       1  UNL1        0.0646
     27 H          -1.6424    2.0118   -0.7906 H       1  UNL1        0.0625
     28 H          -1.9467   -1.8685    1.0893 H       1  UNL1        0.0625
     29 H           0.5348   -2.0122    1.1063 H       1  UNL1        0.0646
     30 H          -6.8298    1.3097   -2.0202 H       1  UNL1        0.0829
     31 H          -8.8793    0.4387   -0.9473 H       1  UNL1        0.0845
     32 H          -6.0603   -1.3842    3.0215 H       1  UNL1        0.1525
     33 H          -7.6985   -2.9304    3.6202 H       1  UNL1        0.1040
     34 H          -8.7949   -1.9071    2.6485 H       1  UNL1        0.1040
     35 H          -7.9657   -2.9734    0.7298 H       1  UNL1        0.2052
     36 H          -6.4946   -4.7825    2.5481 H       1  UNL1        0.0838
     37 H          -5.7792   -3.6842    1.3197 H       1  UNL1        0.0838
     38 H          -5.8568   -6.0768    0.5209 H       1  UNL1        0.0613
     39 H          -6.7929   -4.9976   -0.5223 H       1  UNL1        0.0613
     40 H          -9.1857   -5.0485   -0.3686 H       1  UNL1        0.0613
     41 H          -9.9345   -6.1629    0.7832 H       1  UNL1        0.0613
     42 H         -10.0023   -3.7432    1.6012 H       1  UNL1        0.0838
     43 H          -9.1039   -4.8285    2.7171 H       1  UNL1        0.0838
@<TRIPOS>UNITY_ATOM_ATTR
18 1
charge 1
@<TRIPOS>BOND
     1     2     1    1
     2     3     2   ar
     3     3    26    1
     4     4     3   ar
     5     4    27    1
     6     5     4   ar
     7     6     5   ar
     8     6    28    1
     9     7     6   ar
    10     7     2   ar
    11     7    29    1
    12     8     5    1
    13     9     8   ar
    14    10     9    1
    15    11     9   ar
    16    12    11   ar
    17    12    30    1
    18    13    12   ar
    19    13    31    1
    20    14    13   ar
    21    15    14   ar
    22    16    15    1
    23    16    32    1
    24    17    16    1
    25    17    33    1
    26    17    34    1
    27    18    17    1
    28    18    35    1
    29    19    18    1
    30    19    36    1
    31    19    37    1
    32    20    19    1
    33    20    38    1
    34    20    39    1
    35    21    20    1
    36    22    21    1
    37    22    40    1
    38    22    41    1
    39    23    22    1
    40    23    18    1
    41    23    42    1
    42    23    43    1
    43    24    15   ar
    44    24    11   ar
    45    25    24   ar
    46    25     8   ar
