@<TRIPOS>MOLECULE
>26.sdf
 37 39 0 0 0
SMALL
GASTEIGER

@<TRIPOS>ATOM
      1 C           2.5048    0.5231   -0.2559 C.3     1  UNL1       -0.0397
      2 C           1.0543    0.6560    0.1057 C.ar    1  UNL1       -0.0503
      3 C           0.3566   -0.4292    0.6449 C.ar    1  UNL1       -0.0569
      4 C          -0.9813   -0.2899    1.0068 C.ar    1  UNL1       -0.0332
      5 C          -1.6285    0.9404    0.8288 C.ar    1  UNL1        0.1281
      6 C          -0.9487    2.0314    0.2900 C.ar    1  UNL1       -0.0332
      7 C           0.3928    1.8824   -0.0733 C.ar    1  UNL1       -0.0569
      8 S          -3.3000    1.1316    1.4223 S.O2    1  UNL1        0.1510
      9 O          -3.6877   -0.2031    1.8542 O.2     1  UNL1       -0.1314
     10 O          -3.2705    2.2539    2.3395 O.2     1  UNL1       -0.1314
     11 O          -4.1801    1.5404    0.1047 O.3     1  UNL1       -0.3396
     12 C          -5.5582    1.7768    0.1331 C.ar    1  UNL1        0.1916
     13 C          -6.4509    1.1682    0.9528 C.ar    1  UNL1        0.1355
     14 N          -6.2069    0.2515    1.9585 N.pl3   1  UNL1       -0.3508
     15 C          -7.9298    1.4658    0.7800 C.ar    1  UNL1        0.2737
     16 O          -8.7745    0.8454    1.4239 O.2     1  UNL1       -0.2658
     17 N          -8.2954    2.4211   -0.1120 N.ar    1  UNL1       -0.3204
     18 C          -7.3927    3.1229   -0.8955 C.ar    1  UNL1        0.0529
     19 C          -6.0247    2.8099   -0.8335 C.ar    1  UNL1        0.0449
     20 C          -5.1566    3.5510   -1.6485 C.ar    1  UNL1       -0.0490
     21 C          -5.6425    4.5884   -2.4587 C.ar    1  UNL1       -0.0610
     22 C          -7.0036    4.8899   -2.4831 C.ar    1  UNL1       -0.0598
     23 C          -7.8854    4.1436   -1.7129 C.ar    1  UNL1       -0.0376
     24 H           2.6494    0.7397   -1.3185 H       1  UNL1        0.0278
     25 H           3.1058    1.2154    0.3421 H       1  UNL1        0.0278
     26 H           2.8749   -0.4904   -0.0664 H       1  UNL1        0.0278
     27 H           0.8529   -1.3844    0.8068 H       1  UNL1        0.0621
     28 H          -1.4964   -1.1389    1.4522 H       1  UNL1        0.0638
     29 H          -1.4362    2.9968    0.1823 H       1  UNL1        0.0638
     30 H           0.9343    2.7352   -0.4780 H       1  UNL1        0.0621
     31 H          -5.3776   -0.3373    1.8633 H       1  UNL1        0.1426
     32 H          -7.0464   -0.2629    2.2309 H       1  UNL1        0.1426
     33 H          -9.2901    2.5969   -0.1705 H       1  UNL1        0.1690
     34 H          -4.0878    3.3546   -1.6511 H       1  UNL1        0.0625
     35 H          -4.9546    5.1768   -3.0617 H       1  UNL1        0.0618
     36 H          -7.3761    5.7093   -3.0928 H       1  UNL1        0.0618
     37 H          -8.9466    4.3790   -1.7310 H       1  UNL1        0.0638
@<TRIPOS>BOND
     1     1    24    1
     2     1    25    1
     3     1    26    1
     4     2     1    1
     5     3     2   ar
     6     3    27    1
     7     4     3   ar
     8     4    28    1
     9     5     4   ar
    10     6     5   ar
    11     6    29    1
    12     7     6   ar
    13     7     2   ar
    14     7    30    1
    15     8     5    1
    16     9     8    2
    17    10     8    2
    18    11     8    1
    19    12    11    1
    20    13    12   ar
    21    14    13    1
    22    14    31    1
    23    14    32    1
    24    15    13   ar
    25    16    15    2
    26    17    15   ar
    27    17    33    1
    28    18    17   ar
    29    19    18   ar
    30    19    12   ar
    31    20    19   ar
    32    20    34    1
    33    21    20   ar
    34    21    35    1
    35    22    21   ar
    36    22    36    1
    37    23    22   ar
    38    23    18   ar
    39    23    37    1
