@<TRIPOS>MOLECULE
>223.sdf
 74 77 0 0 0
SMALL
GASTEIGER

@<TRIPOS>ATOM
      1 N          11.4937    6.2074    4.7725 N.pl3   1  UNL1        0.3300
      2 C          11.3043    5.6513    3.5690 C.cat   1  UNL1        0.0000
      3 N          11.1823    6.3986    2.3423 N.pl3   1  UNL1        0.3300
      4 C          10.3440    7.5797    2.2960 C.3     1  UNL1        0.0000
      5 C           9.2129    7.3557    1.3340 C.3     1  UNL1        0.0000
      6 C           8.3748    8.6021    1.1710 C.3     1  UNL1        0.0000
      7 C           9.2217    9.7825    0.7549 C.3     1  UNL1        0.0000
      8 C          10.3325   10.0145    1.7504 C.3     1  UNL1        0.0000
      9 C          11.1752    8.7709    1.9317 C.3     1  UNL1        0.0000
     10 N          11.5512    4.1903    3.4203 N.pl3   1  UNL1        0.3300
     11 C          11.0052    3.4290    2.3238 C.ar    1  UNL1        0.0000
     12 C          11.6349    2.2552    1.9222 C.ar    1  UNL1        0.0000
     13 C          11.1120    1.4428    0.9264 C.ar    1  UNL1        0.0000
     14 C           9.9226    1.7418    0.3231 C.ar    1  UNL1        0.0000
     15 SE          9.2375    0.7477   -1.2090 Se      1  UNL1        0.0000
     16 SE          9.9948   -1.5343   -0.9811 Se      1  UNL1        0.0000
     17 C          11.9166   -1.5118   -1.0101 C.ar    1  UNL1        0.0000
     18 C          12.5662   -2.0282    0.0420 C.ar    1  UNL1        0.0000
     19 C          13.8223   -2.1712   -0.0765 C.ar    1  UNL1        0.0000
     20 C          14.7129   -1.8191   -1.0938 C.ar    1  UNL1        0.0000
     21 N          16.1739   -1.8569   -1.0565 N.pl3   1  UNL1        0.3300
     22 C          16.8991   -2.2874    0.1234 C.cat   1  UNL1        0.0000
     23 N          16.2434   -2.6627    1.1611 N.pl3   1  UNL1        0.3300
     24 N          18.3527   -2.1911    0.1840 N.pl3   1  UNL1        0.3300
     25 C          19.1615   -3.1136    1.0042 C.3     1  UNL1        0.0000
     26 C          19.9188   -2.3057    2.0147 C.3     1  UNL1        0.0000
     27 C          20.7990   -3.1753    2.8827 C.3     1  UNL1        0.0000
     28 C          21.7828   -3.9767    2.0590 C.3     1  UNL1        0.0000
     29 C          21.0646   -4.8247    1.0608 C.3     1  UNL1        0.0000
     30 C          20.1748   -3.9550    0.1980 C.3     1  UNL1        0.0000
     31 C          14.0260   -1.3850   -2.1780 C.ar    1  UNL1        0.0000
     32 C          12.6508   -1.1108   -2.1098 C.ar    1  UNL1        0.0000
     33 C           9.2380    2.8664    0.7765 C.ar    1  UNL1        0.0000
     34 C           9.8254    3.7767    1.6629 C.ar    1  UNL1        0.0000
     35 H          11.2181    7.1282    4.3512 H       1  UNL1        0.0000
     36 H          11.6159    6.1068    1.4378 H       1  UNL1        0.0000
     37 H           9.8613    7.8467    3.2381 H       1  UNL1        0.0000
     38 H           9.6512    7.0942    0.3739 H       1  UNL1        0.0000
     39 H           8.5675    6.5418    1.6811 H       1  UNL1        0.0000
     40 H           7.6215    8.4175    0.4014 H       1  UNL1        0.0000
     41 H           7.8834    8.8327    2.1218 H       1  UNL1        0.0000
     42 H           9.6559    9.5862   -0.2299 H       1  UNL1        0.0000
     43 H           8.5943   10.6803    0.6884 H       1  UNL1        0.0000
     44 H          10.9734   10.8235    1.3877 H       1  UNL1        0.0000
     45 H           9.8955   10.2984    2.7132 H       1  UNL1        0.0000
     46 H          11.9106    8.9597    2.7245 H       1  UNL1        0.0000
     47 H          11.6855    8.5446    0.9975 H       1  UNL1        0.0000
     48 H          12.0727    3.6231    4.1389 H       1  UNL1        0.0000
     49 H          12.5666    2.0118    2.3553 H       1  UNL1        0.0000
     50 H          11.6130    0.5538    0.6735 H       1  UNL1        0.0000
     51 H          12.0651   -2.2909    0.9591 H       1  UNL1        0.0000
     52 H          13.9881   -2.5872    0.7075 H       1  UNL1        0.0000
     53 H          16.7010   -1.5096   -1.8853 H       1  UNL1        0.0000
     54 H          16.6292   -2.8027    1.9841 H       1  UNL1        0.0000
     55 H          18.8417   -1.4512   -0.3480 H       1  UNL1        0.0000
     56 H          18.5067   -3.8696    1.4148 H       1  UNL1        0.0000
     57 H          20.5560   -1.5782    1.4901 H       1  UNL1        0.0000
     58 H          19.2009   -1.7701    2.6379 H       1  UNL1        0.0000
     59 H          21.3554   -2.5357    3.5690 H       1  UNL1        0.0000
     60 H          20.1630   -3.8643    3.4441 H       1  UNL1        0.0000
     61 H          22.4660   -3.2905    1.5444 H       1  UNL1        0.0000
     62 H          22.3653   -4.6315    2.7098 H       1  UNL1        0.0000
     63 H          21.7856   -5.3132    0.3911 H       1  UNL1        0.0000
     64 H          20.4355   -5.5538    1.5415 H       1  UNL1        0.0000
     65 H          19.6038   -4.6587   -0.4386 H       1  UNL1        0.0000
     66 H          20.8999   -3.2687   -0.2709 H       1  UNL1        0.0000
     67 H          14.5564   -1.2999   -3.0643 H       1  UNL1        0.0000
     68 H          12.1604   -0.5797   -2.9135 H       1  UNL1        0.0000
     69 H           8.2514    2.9930    0.4420 H       1  UNL1        0.0000
     70 H           9.3662    4.7278    1.8496 H       1  UNL1        0.0000
     71 H          11.4969    5.4265    5.2632 H       1  UNL1        0.0000
     72 H          15.4770   -3.2029    1.3300 H       1  UNL1        0.0000
     73 H          11.2213    6.7221    5.6627 H       1  UNL1        0.0000
     74 H          15.6951   -1.8753    1.0993 H       1  UNL1        0.0000
@<TRIPOS>BOND
     1     1    35    1
     2     1    71    1
     3     2     1    2
     4     3     2    1
     5     3    36    1
     6     4     3    1
     7     4    37    1
     8     5     4    1
     9     5    38    1
    10     5    39    1
    11     6     5    1
    12     6    40    1
    13     6    41    1
    14     7     6    1
    15     7    42    1
    16     7    43    1
    17     8     7    1
    18     8    44    1
    19     8    45    1
    20     9     8    1
    21     9     4    1
    22     9    46    1
    23     9    47    1
    24    10     2    1
    25    10    48    1
    26    11    10    1
    27    12    11   ar
    28    12    49    1
    29    13    12   ar
    30    13    50    1
    31    14    13   ar
    32    15    14    1
    33    16    15    1
    34    17    16    1
    35    18    17   ar
    36    18    51    1
    37    19    18   ar
    38    19    52    1
    39    20    19   ar
    40    21    20    1
    41    21    53    1
    42    22    21    1
    43    23    22    2
    44    23    54    1
    45    23    72    1
    46    24    22    1
    47    24    55    1
    48    25    24    1
    49    25    56    1
    50    26    25    1
    51    26    57    1
    52    26    58    1
    53    27    26    1
    54    27    59    1
    55    27    60    1
    56    28    27    1
    57    28    61    1
    58    28    62    1
    59    29    28    1
    60    29    63    1
    61    29    64    1
    62    30    29    1
    63    30    25    1
    64    30    65    1
    65    30    66    1
    66    31    20   ar
    67    31    67    1
    68    32    31   ar
    69    32    17   ar
    70    32    68    1
    71    33    14   ar
    72    33    69    1
    73    34    33   ar
    74    34    11   ar
    75    34    70    1
    76     1    73    1
    77    23    74    1
