@<TRIPOS>MOLECULE
>142_2.sdf
 45 48 0 0 0
SMALL
GASTEIGER

@<TRIPOS>ATOM
      1 C           3.1929   -0.6271    0.7983 C.3     1  UNL1        0.0790
      2 O           2.5044    0.3575    0.0275 O.3     1  UNL1       -0.4914
      3 C           3.2576    1.0188   -0.9197 C.ar    1  UNL1        0.1632
      4 C           2.8121    2.2955   -1.3495 C.ar    1  UNL1        0.1798
      5 O           1.6479    2.6896   -0.7414 O.3     1  UNL1       -0.4901
      6 C           1.0726    3.9501   -1.0289 C.3     1  UNL1        0.0790
      7 C           3.5868    2.9838   -2.3027 C.ar    1  UNL1        0.0864
      8 CL          3.2557    4.5517   -2.9590 Cl      1  UNL1       -0.0796
      9 C           4.7566    2.4035   -2.8127 C.ar    1  UNL1       -0.0355
     10 C           5.1723    1.1339   -2.4098 C.ar    1  UNL1       -0.0295
     11 C           4.4069    0.4457   -1.4673 C.ar    1  UNL1       -0.0121
     12 C           6.4228    0.5110   -3.0051 C.3     1  UNL1        0.0562
     13 C           6.0710   -0.7859   -3.6821 C.2     1  UNL1        0.0981
     14 C           5.3401   -0.5933   -5.0008 C.1     1  UNL1        0.1008
     15 N           4.7338   -0.4336   -6.0949 N.1     1  UNL1       -0.1910
     16 C           6.5134   -1.9773   -3.2448 C.2     1  UNL1        0.1987
     17 N           6.2912   -3.1823   -3.8566 N.pl3   1  UNL1       -0.3284
     18 O           7.2938   -2.0502   -2.0836 O.2     1  UNL1       -0.4370
     19 C           7.8691   -0.8876   -1.5696 C.2     1  UNL1        0.1848
     20 C           7.5051    0.3313   -1.9919 C.2     1  UNL1        0.0585
     21 C           8.1825    1.5618   -1.5533 C.2     1  UNL1        0.1944
     22 O           7.9029    2.6496   -2.0396 O.2     1  UNL1       -0.2868
     23 C           9.2316    1.4400   -0.5382 C.ar    1  UNL1        0.0330
     24 C           9.5867    0.1896   -0.0330 C.ar    1  UNL1        0.0362
     25 C          10.5930    0.1068    0.9332 C.ar    1  UNL1       -0.0501
     26 C          11.2342    1.2697    1.3758 C.ar    1  UNL1       -0.0610
     27 C          10.8777    2.5138    0.8589 C.ar    1  UNL1       -0.0610
     28 C           9.8716    2.6042   -0.0981 C.ar    1  UNL1       -0.0502
     29 C           8.9175   -1.0412   -0.5214 C.2     1  UNL1        0.2291
     30 O           9.2138   -2.1405   -0.0714 O.2     1  UNL1       -0.2833
     31 H           3.3986   -1.5238    0.2028 H       1  UNL1        0.0660
     32 H           4.1189   -0.2229    1.2246 H       1  UNL1        0.0660
     33 H           2.5470   -0.9300    1.6266 H       1  UNL1        0.0660
     34 H           1.7388    4.7645   -0.7293 H       1  UNL1        0.0660
     35 H           0.7660    4.0173   -2.0770 H       1  UNL1        0.0660
     36 H           0.1638    4.0485   -0.4282 H       1  UNL1        0.0660
     37 H           5.3536    2.9549   -3.5397 H       1  UNL1        0.0636
     38 H           4.7117   -0.5560   -1.1814 H       1  UNL1        0.0658
     39 H           6.8168    1.1711   -3.7935 H       1  UNL1        0.0457
     40 H           6.3577   -3.9787   -3.2279 H       1  UNL1        0.1451
     41 H           5.5038   -3.2308   -4.5000 H       1  UNL1        0.1451
     42 H          10.8859   -0.8565    1.3411 H       1  UNL1        0.0625
     43 H          12.0205    1.2029    2.1242 H       1  UNL1        0.0618
     44 H          11.3809    3.4182    1.1959 H       1  UNL1        0.0618
     45 H           9.5947    3.5769   -0.5034 H       1  UNL1        0.0625
@<TRIPOS>BOND
     1     1    31    1
     2     1    32    1
     3     1    33    1
     4     2     1    1
     5     3     2    1
     6     4     3   ar
     7     5     4    1
     8     6     5    1
     9     6    34    1
    10     6    35    1
    11     6    36    1
    12     7     4   ar
    13     8     7    1
    14     9     7   ar
    15     9    37    1
    16    10     9   ar
    17    11    10   ar
    18    11     3   ar
    19    11    38    1
    20    12    10    1
    21    12    39    1
    22    13    12    1
    23    14    13    1
    24    15    14    3
    25    16    13    2
    26    17    16    1
    27    17    40    1
    28    17    41    1
    29    18    16    1
    30    19    18    1
    31    20    19    2
    32    20    12    1
    33    21    20    1
    34    22    21    2
    35    23    21    1
    36    24    23   ar
    37    25    24   ar
    38    25    42    1
    39    26    25   ar
    40    26    43    1
    41    27    26   ar
    42    27    44    1
    43    28    27   ar
    44    28    23   ar
    45    28    45    1
    46    29    24    1
    47    29    19    1
    48    30    29    2
