@<TRIPOS>MOLECULE
>124.sdf
 46 47 0 0 0
SMALL
GASTEIGER

@<TRIPOS>ATOM
      1 C           2.2669   -3.0665   -0.0983 C.3     1  UNL1        0.0788
      2 O           3.5327   -3.3701    0.4770 O.3     1  UNL1       -0.4951
      3 C           3.9604   -2.5797    1.5075 C.ar    1  UNL1        0.1202
      4 C           3.2761   -1.4863    2.0433 C.ar    1  UNL1       -0.0181
      5 C           3.8350   -0.7517    3.0985 C.ar    1  UNL1       -0.0316
      6 C           5.0802   -1.1178    3.6246 C.ar    1  UNL1        0.1087
      7 C           5.7728   -2.2060    3.0910 C.ar    1  UNL1       -0.0316
      8 C           5.2070   -2.9331    2.0370 C.ar    1  UNL1       -0.0181
      9 S           5.7898   -0.1492    4.9493 S.O2    1  UNL1        0.0725
     10 O           7.0648   -0.7322    5.2992 O.2     1  UNL1       -0.1500
     11 O           5.6529    1.2451    4.5829 O.2     1  UNL1       -0.1500
     12 N           4.6631   -0.4282    6.2047 N.pl3   1  UNL1       -0.2126
     13 C           5.1822   -0.3286    7.5512 C.ar    1  UNL1        0.0931
     14 C           5.3736    0.9512    8.0991 C.ar    1  UNL1        0.0078
     15 C           5.7657    1.1226    9.4385 C.ar    1  UNL1        0.1432
     16 O           5.6927    2.3390   10.0622 O.3     1  UNL1       -0.4932
     17 C           5.9973    3.4832    9.2761 C.3     1  UNL1        0.0789
     18 C           6.0475   -0.0026   10.2307 C.ar    1  UNL1        0.0792
     19 N           6.5309    0.0237   11.5645 N.am    1  UNL1       -0.2815
     20 C           7.2801    1.0178   12.1812 C.2     1  UNL1        0.2319
     21 O           7.6650    2.0713   11.6799 O.2     1  UNL1       -0.2742
     22 C           7.6243    0.7215   13.6349 C.3     1  UNL1        0.0992
     23 CL          8.0049   -1.0003   13.8789 Cl      1  UNL1       -0.1156
     24 C           5.8076   -1.2747    9.6880 C.ar    1  UNL1        0.0067
     25 C           5.3829   -1.4547    8.3603 C.ar    1  UNL1        0.1443
     26 O           5.1052   -2.7643    8.0690 O.3     1  UNL1       -0.4932
     27 C           5.2974   -3.1987    6.7326 C.3     1  UNL1        0.0789
     28 H           1.4650   -3.1489    0.6427 H       1  UNL1        0.0660
     29 H           2.2721   -2.0768   -0.5670 H       1  UNL1        0.0660
     30 H           2.0686   -3.8041   -0.8829 H       1  UNL1        0.0660
     31 H           2.3118   -1.1735    1.6584 H       1  UNL1        0.0655
     32 H           3.2969    0.1042    3.4951 H       1  UNL1        0.0638
     33 H           6.7469   -2.4984    3.4779 H       1  UNL1        0.0638
     34 H           5.7451   -3.7796    1.6145 H       1  UNL1        0.0655
     35 H           3.9244    0.2675    6.0782 H       1  UNL1        0.1738
     36 H           5.1511    1.8213    7.4888 H       1  UNL1        0.0675
     37 H           6.8283    3.3047    8.5861 H       1  UNL1        0.0660
     38 H           5.1042    3.8145    8.7375 H       1  UNL1        0.0660
     39 H           6.2933    4.2868    9.9576 H       1  UNL1        0.0660
     40 H           6.5569   -0.8713   12.0439 H       1  UNL1        0.1549
     41 H           8.5114    1.2952   13.9197 H       1  UNL1        0.0525
     42 H           6.7878    0.9957   14.2827 H       1  UNL1        0.0525
     43 H           5.9527   -2.1645   10.2982 H       1  UNL1        0.0674
     44 H           4.4795   -2.8715    6.0867 H       1  UNL1        0.0660
     45 H           6.2761   -2.8998    6.3505 H       1  UNL1        0.0660
     46 H           5.2738   -4.2925    6.7330 H       1  UNL1        0.0660
@<TRIPOS>BOND
     1     1    28    1
     2     1    29    1
     3     1    30    1
     4     2     1    1
     5     3     2    1
     6     4     3   ar
     7     4    31    1
     8     5     4   ar
     9     5    32    1
    10     6     5   ar
    11     7     6   ar
    12     7    33    1
    13     8     7   ar
    14     8     3   ar
    15     8    34    1
    16     9     6    1
    17    10     9    2
    18    11     9    2
    19    12     9    1
    20    12    35    1
    21    13    12    1
    22    14    13   ar
    23    14    36    1
    24    15    14   ar
    25    16    15    1
    26    17    16    1
    27    17    37    1
    28    17    38    1
    29    17    39    1
    30    18    15   ar
    31    19    18    1
    32    19    40    1
    33    20    19   am
    34    21    20    2
    35    22    20    1
    36    22    41    1
    37    22    42    1
    38    23    22    1
    39    24    18   ar
    40    24    43    1
    41    25    24   ar
    42    25    13   ar
    43    26    25    1
    44    27    26    1
    45    27    44    1
    46    27    45    1
    47    27    46    1
