@<TRIPOS>MOLECULE
>175.sdf
 30 32 0 0 0
SMALL
GASTEIGER

@<TRIPOS>ATOM
      1 O           2.0448   -0.2237    0.8717 O.3     1  UNL1       -0.5068
      2 C           0.7293   -0.1482    0.5236 C.ar    1  UNL1        0.1169
      3 C          -0.0919    0.8618    1.0131 C.ar    1  UNL1       -0.0195
      4 C          -1.4420    0.8801    0.6554 C.ar    1  UNL1       -0.0476
      5 C          -1.9666   -0.1122   -0.1851 C.ar    1  UNL1        0.0176
      6 C          -1.1216   -1.1085   -0.6871 C.ar    1  UNL1       -0.0476
      7 C           0.2289   -1.1236   -0.3329 C.ar    1  UNL1       -0.0195
      8 C          -3.3967   -0.1134   -0.5072 C.ar    1  UNL1        0.1392
      9 C          -3.8766    0.6408   -1.5036 C.ar    1  UNL1        0.0288
     10 C          -5.3289    0.6603   -1.7266 C.ar    1  UNL1        0.1966
     11 O          -5.8357    1.3498   -2.6066 O.2     1  UNL1       -0.2869
     12 C          -6.1550   -0.1756   -0.8442 C.ar    1  UNL1        0.1055
     13 C          -7.5472   -0.2178   -0.9632 C.ar    1  UNL1        0.1347
     14 O          -8.2397    0.5280   -1.8786 O.3     1  UNL1       -0.5058
     15 C          -8.2940   -1.0434   -0.1267 C.ar    1  UNL1        0.0223
     16 C          -7.6432   -1.8253    0.8240 C.ar    1  UNL1        0.1239
     17 O          -8.4088   -2.6374    1.6073 O.3     1  UNL1       -0.5065
     18 C          -6.2582   -1.7782    0.9668 C.ar    1  UNL1        0.0231
     19 C          -5.5153   -0.9443    0.1284 C.ar    1  UNL1        0.1462
     20 O          -4.1553   -0.9214    0.3180 O.2     1  UNL1       -0.4544
     21 H           2.2259    0.4470    1.5506 H       1  UNL1        0.2921
     22 H           0.2942    1.6332    1.6718 H       1  UNL1        0.0654
     23 H          -2.0859    1.6636    1.0495 H       1  UNL1        0.0626
     24 H          -1.5085   -1.8831   -1.3443 H       1  UNL1        0.0626
     25 H           0.8860   -1.9007   -0.7119 H       1  UNL1        0.0654
     26 H          -3.2621    1.2597   -2.1456 H       1  UNL1        0.0693
     27 H          -7.5926    1.0528   -2.4019 H       1  UNL1        0.2922
     28 H          -9.3758   -1.0808   -0.2194 H       1  UNL1        0.0691
     29 H          -7.8312   -3.1731    2.1759 H       1  UNL1        0.2921
     30 H          -5.7486   -2.3754    1.7162 H       1  UNL1        0.0691
@<TRIPOS>BOND
     1     1    21    1
     2     2     1    1
     3     3     2   ar
     4     3    22    1
     5     4     3   ar
     6     4    23    1
     7     5     4   ar
     8     6     5   ar
     9     6    24    1
    10     7     6   ar
    11     7     2   ar
    12     7    25    1
    13     8     5    1
    14     9     8   ar
    15     9    26    1
    16    10     9   ar
    17    11    10    2
    18    12    10   ar
    19    13    12   ar
    20    14    13    1
    21    14    27    1
    22    15    13   ar
    23    15    28    1
    24    16    15   ar
    25    17    16    1
    26    17    29    1
    27    18    16   ar
    28    18    30    1
    29    19    18   ar
    30    19    12   ar
    31    20    19   ar
    32    20     8   ar
