@<TRIPOS>MOLECULE
>38.sdf
 48 50 0 0 0
SMALL
GASTEIGER

@<TRIPOS>ATOM
      1 C           3.4035    1.8788   -0.9928 C.3     1  UNL1        0.0790
      2 O           4.0944    0.7904   -0.3855 O.3     1  UNL1       -0.4913
      3 C           3.9756   -0.4376   -0.9848 C.ar    1  UNL1        0.1672
      4 C           3.6679   -0.5628   -2.3449 C.ar    1  UNL1        0.0094
      5 C           3.5874   -1.8189   -2.9566 C.ar    1  UNL1        0.0742
      6 C           3.8291   -2.9724   -2.2076 C.ar    1  UNL1        0.0094
      7 C           4.1985   -2.8620   -0.8629 C.ar    1  UNL1        0.1672
      8 O           4.4866   -3.9593   -0.0840 O.3     1  UNL1       -0.4913
      9 C           5.0732   -5.0612   -0.7706 C.3     1  UNL1        0.0790
     10 C           4.2475   -1.5969   -0.2335 C.ar    1  UNL1        0.2036
     11 O           4.6377   -1.6199    1.0854 O.3     1  UNL1       -0.4885
     12 C           4.1118   -0.6102    1.9353 C.3     1  UNL1        0.0791
     13 N           3.2960   -1.9189   -4.3396 N.ar    1  UNL1       -0.2193
     14 C           3.1206   -0.8994   -5.2422 C.ar    1  UNL1        0.0591
     15 C           2.9360   -1.5275   -6.4486 C.ar    1  UNL1        0.1131
     16 N           2.9846   -2.8788   -6.2656 N.ar    1  UNL1       -0.1292
     17 N           3.1929   -3.1106   -4.9755 N.ar    1  UNL1       -0.0602
     18 C           2.7941   -0.8694   -7.7311 C.ar    1  UNL1        0.0073
     19 C           3.1869   -1.5438   -8.8957 C.ar    1  UNL1       -0.0070
     20 C           3.1056   -0.9371  -10.1593 C.ar    1  UNL1        0.1621
     21 O           3.4833   -1.5764  -11.3106 O.3     1  UNL1       -0.4914
     22 C           3.9894   -2.9020  -11.2090 C.3     1  UNL1        0.0790
     23 C           2.6229    0.3804  -10.2501 C.ar    1  UNL1        0.1615
     24 O           2.4787    1.1729  -11.3577 O.3     1  UNL1       -0.4915
     25 C           2.8370    0.6483  -12.6258 C.3     1  UNL1        0.0790
     26 C           2.2197    1.0473   -9.0827 C.ar    1  UNL1       -0.0157
     27 C           2.2999    0.4315   -7.8348 C.ar    1  UNL1       -0.0488
     28 H           3.9061    2.1983   -1.9119 H       1  UNL1        0.0660
     29 H           2.3537    1.6293   -1.1840 H       1  UNL1        0.0660
     30 H           3.4255    2.7229   -0.2979 H       1  UNL1        0.0660
     31 H           3.5133    0.3323   -2.9326 H       1  UNL1        0.0677
     32 H           3.7396   -3.9500   -2.6731 H       1  UNL1        0.0677
     33 H           4.3049   -5.6471   -1.2852 H       1  UNL1        0.0660
     34 H           5.8526   -4.7385   -1.4705 H       1  UNL1        0.0660
     35 H           5.5440   -5.7099   -0.0261 H       1  UNL1        0.0660
     36 H           4.7130    0.3015    1.8704 H       1  UNL1        0.0660
     37 H           3.0531   -0.4104    1.7367 H       1  UNL1        0.0660
     38 H           4.1908   -0.9701    2.9659 H       1  UNL1        0.0660
     39 H           3.1892    0.1442   -4.9843 H       1  UNL1        0.0853
     40 H           3.5743   -2.5525   -8.7834 H       1  UNL1        0.0662
     41 H           4.9295   -2.9208  -10.6468 H       1  UNL1        0.0660
     42 H           3.2491   -3.5792  -10.7716 H       1  UNL1        0.0660
     43 H           4.2013   -3.2556  -12.2224 H       1  UNL1        0.0660
     44 H           3.8970    0.3788  -12.6641 H       1  UNL1        0.0660
     45 H           2.1860   -0.1863  -12.9037 H       1  UNL1        0.0660
     46 H           2.6830    1.4408  -13.3649 H       1  UNL1        0.0660
     47 H           1.8398    2.0638   -9.1534 H       1  UNL1        0.0655
     48 H           1.9685    0.9845   -6.9601 H       1  UNL1        0.0625
@<TRIPOS>BOND
     1     1    28    1
     2     1    29    1
     3     1    30    1
     4     2     1    1
     5     3     2    1
     6     4     3   ar
     7     4    31    1
     8     5     4   ar
     9     6     5   ar
    10     6    32    1
    11     7     6   ar
    12     8     7    1
    13     9     8    1
    14     9    33    1
    15     9    34    1
    16     9    35    1
    17    10     7   ar
    18    10     3   ar
    19    11    10    1
    20    12    11    1
    21    12    36    1
    22    12    37    1
    23    12    38    1
    24    13     5    1
    25    14    13   ar
    26    14    39    1
    27    15    14   ar
    28    16    15   ar
    29    17    16   ar
    30    17    13   ar
    31    18    15    1
    32    19    18   ar
    33    19    40    1
    34    20    19   ar
    35    21    20    1
    36    22    21    1
    37    22    41    1
    38    22    42    1
    39    22    43    1
    40    23    20   ar
    41    24    23    1
    42    25    24    1
    43    25    44    1
    44    25    45    1
    45    25    46    1
    46    26    23   ar
    47    26    47    1
    48    27    26   ar
    49    27    18   ar
    50    27    48    1
