@<TRIPOS>MOLECULE
>81.sdf
 81 82 0 0 0
SMALL
GASTEIGER

@<TRIPOS>ATOM
      1 C           8.3314    9.1054  -16.0293 C.3     1  UNL1       -0.0653
      2 C           8.4568    7.6463  -15.6276 C.3     1  UNL1       -0.0559
      3 C           9.1873    7.5069  -14.2964 C.3     1  UNL1       -0.0533
      4 C           9.3158    6.0424  -13.8917 C.3     1  UNL1       -0.0531
      5 C          10.0473    5.9195  -12.5600 C.3     1  UNL1       -0.0531
      6 C          10.1824    4.4594  -12.1535 C.3     1  UNL1       -0.0531
      7 C          10.9039    4.3368  -10.8171 C.3     1  UNL1       -0.0531
      8 C          11.0192    2.8722  -10.4283 C.3     1  UNL1       -0.0531
      9 C          11.7257    2.7042   -9.0890 C.3     1  UNL1       -0.0531
     10 C          11.8045    1.2223   -8.7563 C.3     1  UNL1       -0.0530
     11 C          12.4928    0.9697   -7.4196 C.3     1  UNL1       -0.0500
     12 C          12.6231   -0.5230   -7.1156 C.3     1  UNL1       -0.0186
     13 C          13.4123   -1.2754   -8.1834 C.3     1  UNL1        0.0898
     14 O          14.6910   -0.6430   -8.3825 O.3     1  UNL1       -0.4883
     15 C          15.2774   -0.8707   -9.5958 C.ar    1  UNL1        0.1619
     16 C          16.2221    0.0350  -10.1072 C.ar    1  UNL1        0.1619
     17 O          16.6902    1.2150   -9.6239 O.3     1  UNL1       -0.4914
     18 C          16.5591    1.5619   -8.2613 C.3     1  UNL1        0.0790
     19 C          16.7969   -0.2283  -11.3514 C.ar    1  UNL1       -0.0081
     20 C          16.3949   -1.2755  -12.1761 C.ar    1  UNL1        0.0008
     21 C          17.0287   -1.4757  -13.5315 C.3     1  UNL1       -0.0043
     22 N          16.7973   -0.4131  -14.6508 N.4     1  UNL1        0.2444
     23 C          15.2925   -0.2353  -14.8817 C.3     1  UNL1       -0.0410
     24 C          17.3582    0.9643  -14.2705 C.3     1  UNL1       -0.0410
     25 C          17.4732   -0.8186  -15.9849 C.3     1  UNL1       -0.0192
     26 C          16.9425   -2.1118  -16.6000 C.3     1  UNL1       -0.0096
     27 C          18.0657   -2.6087  -17.5095 C.3     1  UNL1       -0.0478
     28 C          19.3164   -1.8083  -17.1552 C.3     1  UNL1       -0.0478
     29 C          18.9817   -1.0510  -15.8793 C.3     1  UNL1       -0.0096
     30 C          15.4788   -2.1907  -11.6534 C.ar    1  UNL1       -0.0499
     31 C          14.9618   -2.0053  -10.3674 C.ar    1  UNL1       -0.0158
     32 H           7.8073    9.1909  -16.9855 H       1  UNL1        0.0230
     33 H           7.7686    9.6695  -15.2786 H       1  UNL1        0.0230
     34 H           9.3179    9.5678  -16.1372 H       1  UNL1        0.0230
     35 H           7.4571    7.2030  -15.5520 H       1  UNL1        0.0263
     36 H           8.9972    7.0989  -16.4085 H       1  UNL1        0.0263
     37 H          10.1856    7.9551  -14.3729 H       1  UNL1        0.0265
     38 H           8.6454    8.0563  -13.5169 H       1  UNL1        0.0265
     39 H           8.3199    5.5898  -13.8101 H       1  UNL1        0.0265
     40 H           9.8606    5.4884  -14.6660 H       1  UNL1        0.0265
     41 H          11.0427    6.3730  -12.6392 H       1  UNL1        0.0265
     42 H           9.5007    6.4689  -11.7841 H       1  UNL1        0.0265
     43 H           9.1883    4.0011  -12.0802 H       1  UNL1        0.0265
     44 H          10.7350    3.9087  -12.9249 H       1  UNL1        0.0265
     45 H          11.9029    4.7841  -10.8877 H       1  UNL1        0.0265
     46 H          10.3542    4.8847  -10.0427 H       1  UNL1        0.0265
     47 H          10.0181    2.4263  -10.3733 H       1  UNL1        0.0265
     48 H          11.5690    2.3286  -11.2071 H       1  UNL1        0.0265
     49 H          12.7356    3.1285   -9.1442 H       1  UNL1        0.0265
     50 H          11.1835    3.2407   -8.3021 H       1  UNL1        0.0265
     51 H          10.7981    0.7876   -8.7354 H       1  UNL1        0.0265
     52 H          12.3493    0.7315   -9.5707 H       1  UNL1        0.0265
     53 H          13.4832    1.4323   -7.4190 H       1  UNL1        0.0266
     54 H          11.9260    1.4507   -6.6139 H       1  UNL1        0.0266
     55 H          13.1229   -0.6397   -6.1486 H       1  UNL1        0.0298
     56 H          11.6244   -0.9704   -7.0241 H       1  UNL1        0.0298
     57 H          13.5554   -2.3143   -7.8650 H       1  UNL1        0.0696
     58 H          12.8233   -1.2810   -9.1095 H       1  UNL1        0.0696
     59 H          15.5281    1.8083   -8.0119 H       1  UNL1        0.0660
     60 H          16.9788    0.7960   -7.6049 H       1  UNL1        0.0660
     61 H          17.1467    2.4764   -8.1187 H       1  UNL1        0.0660
     62 H          17.5984    0.4433  -11.6547 H       1  UNL1        0.0660
     63 H          18.1066   -1.5632  -13.3768 H       1  UNL1        0.0868
     64 H          16.6631   -2.4244  -13.9304 H       1  UNL1        0.0868
     65 H          14.8431    0.2046  -13.9867 H       1  UNL1        0.0778
     66 H          15.1522    0.4362  -15.7341 H       1  UNL1        0.0778
     67 H          14.8499   -1.2125  -15.0916 H       1  UNL1        0.0778
     68 H          18.4397    0.8847  -14.1380 H       1  UNL1        0.0778
     69 H          17.1199    1.6698  -15.0733 H       1  UNL1        0.0778
     70 H          16.8787    1.3239  -13.3623 H       1  UNL1        0.0778
     71 H          17.2876    0.0073  -16.6868 H       1  UNL1        0.0852
     72 H          16.7247   -2.8900  -15.8660 H       1  UNL1        0.0320
     73 H          16.0240   -1.9389  -17.1701 H       1  UNL1        0.0320
     74 H          18.2284   -3.6805  -17.3532 H       1  UNL1        0.0267
     75 H          17.8100   -2.4685  -18.5648 H       1  UNL1        0.0267
     76 H          20.1896   -2.4549  -17.0180 H       1  UNL1        0.0267
     77 H          19.5502   -1.1049  -17.9618 H       1  UNL1        0.0267
     78 H          19.5504   -0.1174  -15.8233 H       1  UNL1        0.0320
     79 H          19.2634   -1.6685  -15.0240 H       1  UNL1        0.0320
     80 H          15.1838   -3.0782  -12.2153 H       1  UNL1        0.0623
     81 H          14.2992   -2.7785   -9.9847 H       1  UNL1        0.0655
@<TRIPOS>UNITY_ATOM_ATTR
22 1
charge 1
@<TRIPOS>BOND
     1     1    32    1
     2     1    33    1
     3     1    34    1
     4     2     1    1
     5     2    35    1
     6     2    36    1
     7     3     2    1
     8     3    37    1
     9     3    38    1
    10     4     3    1
    11     4    39    1
    12     4    40    1
    13     5     4    1
    14     5    41    1
    15     5    42    1
    16     6     5    1
    17     6    43    1
    18     6    44    1
    19     7     6    1
    20     7    45    1
    21     7    46    1
    22     8     7    1
    23     8    47    1
    24     8    48    1
    25     9     8    1
    26     9    49    1
    27     9    50    1
    28    10     9    1
    29    10    51    1
    30    10    52    1
    31    11    10    1
    32    11    53    1
    33    11    54    1
    34    12    11    1
    35    12    55    1
    36    12    56    1
    37    13    12    1
    38    13    57    1
    39    13    58    1
    40    14    13    1
    41    15    14    1
    42    16    15   ar
    43    17    16    1
    44    18    17    1
    45    18    59    1
    46    18    60    1
    47    18    61    1
    48    19    16   ar
    49    19    62    1
    50    20    19   ar
    51    21    20    1
    52    21    63    1
    53    21    64    1
    54    22    21    1
    55    23    22    1
    56    23    65    1
    57    23    66    1
    58    23    67    1
    59    24    22    1
    60    24    68    1
    61    24    69    1
    62    24    70    1
    63    25    22    1
    64    25    71    1
    65    26    25    1
    66    26    72    1
    67    26    73    1
    68    27    26    1
    69    27    74    1
    70    27    75    1
    71    28    27    1
    72    28    76    1
    73    28    77    1
    74    29    28    1
    75    29    25    1
    76    29    78    1
    77    29    79    1
    78    30    20   ar
    79    30    80    1
    80    31    30   ar
    81    31    15   ar
    82    31    81    1
