@<TRIPOS>MOLECULE
>77.sdf
 27 28 0 0 0
SMALL
GASTEIGER

@<TRIPOS>ATOM
      1 N           3.4659   -2.1000    0.0336 N.am    1  UNL1       -0.3394
      2 C           4.6047   -1.5604    0.5268 C.2     1  UNL1        0.1473
      3 S           5.3077   -2.1097    1.9244 S.2     1  UNL1       -0.0174
      4 N           5.1647   -0.5718   -0.2348 N.am    1  UNL1       -0.2186
      5 N           4.6155   -0.2012   -1.4263 N.2     1  UNL1       -0.1885
      6 C           5.3852    0.2998   -2.3517 C.2     1  UNL1        0.0533
      7 C           6.8689    0.3810   -2.4170 C.ar    1  UNL1        0.0024
      8 C           7.6252   -0.6530   -1.8403 C.ar    1  UNL1       -0.0498
      9 C           9.0132   -0.6169   -1.8735 C.ar    1  UNL1       -0.0252
     10 C           9.6496    0.4234   -2.5290 C.ar    1  UNL1        0.1311
     11 F          10.9920    0.4317   -2.5509 F       1  UNL1       -0.2049
     12 C           8.9323    1.4379   -3.1822 C.ar    1  UNL1        0.0179
     13 C           9.6152    2.4432   -3.8878 C.ar    1  UNL1       -0.0513
     14 C           8.9268    3.4407   -4.5707 C.ar    1  UNL1       -0.0611
     15 C           7.5402    3.4548   -4.5437 C.ar    1  UNL1       -0.0611
     16 C           6.8422    2.4756   -3.8301 C.ar    1  UNL1       -0.0533
     17 C           7.5108    1.4324   -3.1394 C.ar    1  UNL1       -0.0065
     18 H           2.9517   -2.8031    0.5429 H       1  UNL1        0.1440
     19 H           3.0481   -1.6263   -0.7586 H       1  UNL1        0.1440
     20 H           6.0279   -0.1447    0.0871 H       1  UNL1        0.1762
     21 H           4.8489    0.6822   -3.2352 H       1  UNL1        0.0851
     22 H           7.1449   -1.5135   -1.3806 H       1  UNL1        0.0625
     23 H           9.6014   -1.4010   -1.4072 H       1  UNL1        0.0646
     24 H          10.7048    2.4426   -3.9177 H       1  UNL1        0.0624
     25 H           9.4753    4.2005   -5.1235 H       1  UNL1        0.0618
     26 H           6.9965    4.2283   -5.0821 H       1  UNL1        0.0618
     27 H           5.7564    2.5419   -3.8379 H       1  UNL1        0.0624
@<TRIPOS>BOND
     1     1    18    1
     2     1    19    1
     3     2     1    1
     4     3     2    2
     5     4     2    1
     6     4    20    1
     7     5     4    1
     8     6     5    2
     9     6    21    1
    10     7     6    1
    11     8     7   ar
    12     8    22    1
    13     9     8   ar
    14     9    23    1
    15    10     9   ar
    16    11    10    1
    17    12    10   ar
    18    13    12   ar
    19    13    24    1
    20    14    13   ar
    21    14    25    1
    22    15    14   ar
    23    15    26    1
    24    16    15   ar
    25    16    27    1
    26    17    16   ar
    27    17     7   ar
    28    17    12   ar
