@<TRIPOS>MOLECULE
>164.sdf
 55 57 0 0 0
SMALL
GASTEIGER

@<TRIPOS>ATOM
      1 O           0.8320    0.2315    0.9670 O.3     1  UNL1       -0.3870
      2 C           1.6436    0.7173    2.0334 C.3     1  UNL1        0.0850
      3 C           2.6764    1.6461    1.3927 C.3     1  UNL1        0.0176
      4 C           1.9520    2.7659    0.6787 C.3     1  UNL1       -0.0307
      5 N           2.9576    3.6913    0.0599 N.4     1  UNL1        0.2293
      6 C           2.3413    4.8426   -0.6919 C.3     1  UNL1       -0.0197
      7 C           3.4426    5.7054   -1.3152 C.3     1  UNL1        0.0061
      8 C           4.1326    6.6348   -0.3129 C.3     1  UNL1        0.0173
      9 N           3.1110    7.3243    0.4914 N.pl3   1  UNL1       -0.3291
     10 C           2.2332    6.4445    1.2451 C.3     1  UNL1        0.0173
     11 C           1.4252    5.6644    0.2105 C.3     1  UNL1        0.0061
     12 C           3.1204    8.7042    0.6638 C.ar    1  UNL1        0.0416
     13 C           1.9861    9.5363    0.8570 C.ar    1  UNL1        0.0779
     14 C           2.1620   10.9475    0.9569 C.ar    1  UNL1       -0.0181
     15 C           3.4163   11.5477    0.8691 C.ar    1  UNL1        0.1268
     16 C           4.5388   10.7525    0.7061 C.ar    1  UNL1       -0.0297
     17 C           4.3800    9.3636    0.6186 C.ar    1  UNL1       -0.0380
     18 N           3.5402   13.0062    0.9479 N.pl3   1  UNL1        0.0564
     19 O           2.5002   13.6625    1.0927 O.2     1  UNL1       -0.1261
     20 O           4.6767   13.4885    0.8632 O.2     1  UNL1       -0.1261
     21 C           0.5142    9.1669    0.9535 C.3     1  UNL1        0.4192
     22 F           0.1598    7.8776    0.7415 F       1  UNL1       -0.1658
     23 F           0.0112    9.4674    2.1865 F       1  UNL1       -0.1658
     24 F          -0.2442    9.8729    0.0656 F       1  UNL1       -0.1658
     25 C           2.2104   -0.4226    2.8463 C.ar    1  UNL1       -0.0188
     26 C           3.5867   -0.6785    2.9464 C.ar    1  UNL1       -0.0534
     27 C           4.0598   -1.7142    3.7518 C.ar    1  UNL1       -0.0261
     28 C           3.1612   -2.5061    4.4520 C.ar    1  UNL1        0.1234
     29 F           3.6182   -3.4911    5.2307 F       1  UNL1       -0.2055
     30 C           1.7917   -2.2814    4.3598 C.ar    1  UNL1       -0.0261
     31 C           1.3199   -1.2459    3.5605 C.ar    1  UNL1       -0.0534
     32 H           0.9587   -0.7333    0.8931 H       1  UNL1        0.2102
     33 H           1.0015    1.3134    2.6964 H       1  UNL1        0.0645
     34 H           3.3465    2.0642    2.1539 H       1  UNL1        0.0345
     35 H           3.2862    1.0981    0.6638 H       1  UNL1        0.0345
     36 H           1.3027    2.4164   -0.1294 H       1  UNL1        0.0815
     37 H           1.3744    3.3341    1.4112 H       1  UNL1        0.0815
     38 H           3.6139    4.0246    0.7777 H       1  UNL1        0.2016
     39 H           3.5221    3.1417   -0.6043 H       1  UNL1        0.2016
     40 H           1.7545    4.3815   -1.4952 H       1  UNL1        0.0851
     41 H           4.1882    5.0848   -1.8261 H       1  UNL1        0.0335
     42 H           2.9793    6.3337   -2.0880 H       1  UNL1        0.0335
     43 H           4.7929    6.0587    0.3480 H       1  UNL1        0.0466
     44 H           4.7658    7.3150   -0.8920 H       1  UNL1        0.0466
     45 H           1.6091    6.9630    1.9768 H       1  UNL1        0.0466
     46 H           2.8382    5.7599    1.8545 H       1  UNL1        0.0466
     47 H           0.8907    6.3468   -0.4597 H       1  UNL1        0.0335
     48 H           0.6492    5.0705    0.6983 H       1  UNL1        0.0335
     49 H           1.2781   11.5750    1.0922 H       1  UNL1        0.0646
     50 H           5.5371   11.1803    0.6447 H       1  UNL1        0.0641
     51 H           5.3019    8.7893    0.5323 H       1  UNL1        0.0637
     52 H           4.3248   -0.0811    2.4187 H       1  UNL1        0.0622
     53 H           5.1243   -1.9055    3.8437 H       1  UNL1        0.0646
     54 H           1.1110   -2.9130    4.9181 H       1  UNL1        0.0646
     55 H           0.2395   -1.0714    3.5076 H       1  UNL1        0.0622
@<TRIPOS>UNITY_ATOM_ATTR
5 1
charge 1
@<TRIPOS>BOND
     1     1    32    1
     2     3     2    1
     3     3    34    1
     4     3    35    1
     5     4     3    1
     6     4    36    1
     7     4    37    1
     8     5     4    1
     9     5    38    1
    10     5    39    1
    11     6     5    1
    12     6    40    1
    13     7     6    1
    14     7    41    1
    15     7    42    1
    16     8     7    1
    17     8    43    1
    18     8    44    1
    19     9     8    1
    20    10     9    1
    21    10    45    1
    22    10    46    1
    23    11    10    1
    24    11     6    1
    25    11    47    1
    26    11    48    1
    27    12     9    1
    28    13    12   ar
    29    14    13   ar
    30    14    49    1
    31    15    14   ar
    32    16    15   ar
    33    16    50    1
    34    17    16   ar
    35    17    12   ar
    36    17    51    1
    37    18    15    1
    38    19    18    2
    39    20    18    2
    40    21    13    1
    41    22    21    1
    42    23    21    1
    43    24    21    1
    44    25     2    1
    45    26    25   ar
    46    26    52    1
    47    27    26   ar
    48    27    53    1
    49    28    27   ar
    50    29    28    1
    51    30    28   ar
    52    30    54    1
    53    31    30   ar
    54    31    25   ar
    55    31    55    1
    56     2    33    1
    57     2     1    1
