@<TRIPOS>MOLECULE
>134.sdf
 34 36 0 0 0
SMALL
GASTEIGER

@<TRIPOS>ATOM
      1 O           3.2119   -0.8003   -0.6728 O.3     1  UNL1       -0.4771
      2 C           2.4035   -0.0626    0.1177 C.2     1  UNL1        0.3375
      3 O           1.2072   -0.2752    0.2137 O.2     1  UNL1       -0.2451
      4 C           3.1151    1.0250    0.8422 C.ar    1  UNL1        0.0700
      5 C           4.0952    1.7342    0.1436 C.ar    1  UNL1       -0.0217
      6 C           4.7643    2.7506    0.7965 C.ar    1  UNL1        0.0654
      7 C           5.8273    3.4809    0.0946 C.2     1  UNL1       -0.0357
      8 C           6.5312    4.4974    0.6206 C.2     1  UNL1       -0.0526
      9 C           7.5930    5.2142   -0.1017 C.ar    1  UNL1       -0.0249
     10 C           7.5743    5.3786   -1.4953 C.ar    1  UNL1       -0.0532
     11 C           8.5922    6.0805   -2.1473 C.ar    1  UNL1       -0.0428
     12 C           9.6286    6.6393   -1.4061 C.ar    1  UNL1        0.0410
     13 CL         10.8798    7.5053   -2.2082 Cl      1  UNL1       -0.0835
     14 C           9.6543    6.5052   -0.0202 C.ar    1  UNL1       -0.0428
     15 C           8.6369    5.7977    0.6293 C.ar    1  UNL1       -0.0532
     16 N           4.4847    3.1005    2.0671 N.ar    1  UNL1       -0.2472
     17 C           3.5176    2.4471    2.7323 C.ar    1  UNL1        0.0724
     18 C           3.2383    2.8533    4.0310 C.ar    1  UNL1       -0.0357
     19 C           2.2597    2.2319    4.8082 C.ar    1  UNL1       -0.0597
     20 C           1.5402    1.1715    4.2800 C.ar    1  UNL1       -0.0611
     21 C           1.8012    0.7445    2.9782 C.ar    1  UNL1       -0.0518
     22 C           2.7868    1.3772    2.1749 C.ar    1  UNL1        0.0144
     23 H           4.3159    1.5166   -0.8963 H       1  UNL1        0.0647
     24 H           6.0390    3.1370   -0.9130 H       1  UNL1        0.0639
     25 H           6.3403    4.8228    1.6423 H       1  UNL1        0.0624
     26 H           6.7634    4.9732   -2.0948 H       1  UNL1        0.0624
     27 H           8.5630    6.1899   -3.2279 H       1  UNL1        0.0632
     28 H          10.4596    6.9457    0.5605 H       1  UNL1        0.0632
     29 H           8.6735    5.7004    1.7132 H       1  UNL1        0.0624
     30 H           3.7995    3.6849    4.4529 H       1  UNL1        0.0639
     31 H           2.0654    2.5789    5.8196 H       1  UNL1        0.0618
     32 H           0.7738    0.6781    4.8731 H       1  UNL1        0.0618
     33 H           1.2142   -0.0877    2.5934 H       1  UNL1        0.0624
     34 H           4.1701   -0.6535   -0.5699 H       1  UNL1        0.2954
@<TRIPOS>BOND
     1     2     1    1
     2     3     2    2
     3     4     2    1
     4     5     4   ar
     5     5    23    1
     6     6     5   ar
     7     7     6    1
     8     7    24    1
     9     8     7    2
    10     8    25    1
    11     9     8    1
    12    10     9   ar
    13    10    26    1
    14    11    10   ar
    15    11    27    1
    16    12    11   ar
    17    13    12    1
    18    14    12   ar
    19    14    28    1
    20    15    14   ar
    21    15     9   ar
    22    15    29    1
    23    16     6   ar
    24    17    16   ar
    25    18    17   ar
    26    18    30    1
    27    19    18   ar
    28    19    31    1
    29    20    19   ar
    30    20    32    1
    31    21    20   ar
    32    21    33    1
    33    22    21   ar
    34    22     4   ar
    35    22    17   ar
    36     1    34    1
