@<TRIPOS>MOLECULE
>158.sdf
 66 67 0 0 0
SMALL
GASTEIGER

@<TRIPOS>ATOM
      1 C           5.6541   -1.8815    1.3481 C.3     1  UNL1       -0.0653
      2 C           4.6671   -1.1689    0.4299 C.3     1  UNL1       -0.0558
      3 C           5.3675   -0.0945   -0.4027 C.3     1  UNL1       -0.0506
      4 C           4.4219    0.6155   -1.3888 C.3     1  UNL1       -0.0207
      5 C           5.1011    1.7551   -2.2104 C.3     1  UNL1        0.1051
      6 C           6.2133    1.1431   -3.1196 C.3     1  UNL1       -0.0207
      7 C           5.7216    0.0088   -4.0341 C.3     1  UNL1       -0.0506
      8 C           6.8499   -0.5863   -4.8703 C.3     1  UNL1       -0.0558
      9 C           6.3351   -1.7329   -5.7282 C.3     1  UNL1       -0.0653
     10 C           5.7514    2.9023   -1.3726 C.3     1  UNL1       -0.0118
     11 C           4.7415    3.9199   -0.7649 C.3     1  UNL1        0.0308
     12 C           4.1762    3.3002    0.5565 C.3     1  UNL1        0.0038
     13 N           3.2443    3.9782    1.4516 N.3     1  UNL1       -0.3155
     14 C           1.8430    4.0798    1.0503 C.3     1  UNL1       -0.0025
     15 C           1.2238    2.9064    0.2842 C.3     1  UNL1       -0.0223
     16 C           0.8811    1.7668    1.2304 C.3     1  UNL1        0.0253
     17 N           0.4452    0.5297    0.6037 N.ar    1  UNL1       -0.3368
     18 C           0.5566   -0.7044    1.1815 C.ar    1  UNL1        0.0240
     19 C          -0.0330   -1.5710    0.2952 C.ar    1  UNL1        0.0454
     20 N          -0.4909   -0.9008   -0.7975 N.ar    1  UNL1       -0.2441
     21 C          -0.1938    0.3642   -0.5907 C.ar    1  UNL1        0.0959
     22 C           3.7605    4.3403   -1.8995 C.3     1  UNL1        0.2038
     23 C           4.4734    5.1186   -3.0276 C.3     1  UNL1       -0.0075
     24 O           2.8083    5.2525   -1.3389 O.3     1  UNL1       -0.3495
     25 C           1.6465    5.5134   -2.1173 C.3     1  UNL1        0.0398
     26 O           3.1599    3.1209   -2.3647 O.3     1  UNL1       -0.1989
     27 O           4.1598    2.3618   -3.1255 O.3     1  UNL1       -0.2253
     28 H           5.1333   -2.6087    1.9789 H       1  UNL1        0.0230
     29 H           6.4120   -2.4194    0.7685 H       1  UNL1        0.0230
     30 H           6.1692   -1.1718    2.0042 H       1  UNL1        0.0230
     31 H           4.1934   -1.9061   -0.2275 H       1  UNL1        0.0263
     32 H           3.8789   -0.7110    1.0372 H       1  UNL1        0.0263
     33 H           5.8154    0.6312    0.2837 H       1  UNL1        0.0266
     34 H           6.1900   -0.5669   -0.9512 H       1  UNL1        0.0266
     35 H           3.9864   -0.1268   -2.0669 H       1  UNL1        0.0294
     36 H           3.5258    0.9688   -0.8800 H       1  UNL1        0.0294
     37 H           6.6213    1.9324   -3.7649 H       1  UNL1        0.0294
     38 H           7.0457    0.7830   -2.5032 H       1  UNL1        0.0294
     39 H           5.2963   -0.8079   -3.4435 H       1  UNL1        0.0266
     40 H           4.9293    0.3817   -4.6938 H       1  UNL1        0.0266
     41 H           7.2879    0.1856   -5.5106 H       1  UNL1        0.0263
     42 H           7.6403   -0.9611   -4.2100 H       1  UNL1        0.0263
     43 H           5.9177   -2.5318   -5.1056 H       1  UNL1        0.0230
     44 H           5.5517   -1.3891   -6.4112 H       1  UNL1        0.0230
     45 H           7.1481   -2.1576   -6.3238 H       1  UNL1        0.0230
     46 H           6.4258    2.5096   -0.6050 H       1  UNL1        0.0299
     47 H           6.4035    3.4830   -2.0400 H       1  UNL1        0.0299
     48 H           5.2959    4.8152   -0.4491 H       1  UNL1        0.0367
     49 H           3.8017    2.2961    0.4100 H       1  UNL1        0.0428
     50 H           5.0621    3.1272    1.1861 H       1  UNL1        0.0428
     51 H           3.5969    4.9034    1.6918 H       1  UNL1        0.1219
     52 H           1.2548    4.2368    1.9611 H       1  UNL1        0.0425
     53 H           1.6914    5.0071    0.5037 H       1  UNL1        0.0425
     54 H           0.3123    3.2549   -0.2245 H       1  UNL1        0.0295
     55 H           1.8699    2.5478   -0.5156 H       1  UNL1        0.0295
     56 H           1.7519    1.5153    1.8441 H       1  UNL1        0.0492
     57 H           0.0671    2.0716    1.8972 H       1  UNL1        0.0492
     58 H           1.0258   -0.8609    2.1452 H       1  UNL1        0.0825
     59 H          -0.1583   -2.6395    0.3938 H       1  UNL1        0.0845
     60 H          -0.4184    1.1801   -1.2648 H       1  UNL1        0.1029
     61 H           5.1363    4.5044   -3.6405 H       1  UNL1        0.0282
     62 H           3.7553    5.5666   -3.7221 H       1  UNL1        0.0282
     63 H           5.0529    5.9497   -2.6086 H       1  UNL1        0.0282
     64 H           1.8609    6.2033   -2.9356 H       1  UNL1        0.0525
     65 H           1.1888    4.5937   -2.4898 H       1  UNL1        0.0525
     66 H           0.9166    6.0057   -1.4651 H       1  UNL1        0.0525
@<TRIPOS>BOND
     1     1    28    1
     2     1    29    1
     3     1    30    1
     4     2     1    1
     5     2    31    1
     6     2    32    1
     7     3     2    1
     8     3    33    1
     9     3    34    1
    10     4     3    1
    11     4    35    1
    12     4    36    1
    13     5     4    1
    14     6     5    1
    15     6    37    1
    16     6    38    1
    17     7     6    1
    18     7    39    1
    19     7    40    1
    20     8     7    1
    21     8    41    1
    22     8    42    1
    23     9     8    1
    24     9    43    1
    25     9    44    1
    26     9    45    1
    27    10     5    1
    28    10    46    1
    29    10    47    1
    30    11    10    1
    31    12    49    1
    32    12    50    1
    33    13    12    1
    34    13    51    1
    35    14    13    1
    36    14    52    1
    37    14    53    1
    38    15    14    1
    39    15    54    1
    40    15    55    1
    41    16    15    1
    42    16    56    1
    43    16    57    1
    44    17    16    1
    45    18    17   ar
    46    18    58    1
    47    19    18   ar
    48    19    59    1
    49    20    19   ar
    50    21    20   ar
    51    21    17   ar
    52    21    60    1
    53    22    11    1
    54    23    61    1
    55    23    62    1
    56    23    63    1
    57    25    24    1
    58    25    64    1
    59    25    65    1
    60    25    66    1
    61    26    22    1
    62    27    26    1
    63    27     5    1
    64    11    12    1
    65    11    48    1
    66    22    24    1
    67    22    23    1
