@<TRIPOS>MOLECULE
>213.sdf
 49 52 0 0 0
SMALL
GASTEIGER

@<TRIPOS>ATOM
      1 C           1.8430    0.5428    1.9657 C.3     1  UNL1       -0.0061
      2 C           2.7112    0.2211    0.8023 C.ar    1  UNL1        0.1116
      3 N           3.3900    1.1331    0.1295 N.ar    1  UNL1       -0.2338
      4 C           4.0633    0.4622   -0.8490 C.ar    1  UNL1        0.1255
      5 C           3.7766   -0.8770   -0.7855 C.ar    1  UNL1        0.3680
      6 N           2.9156   -1.0504    0.2784 N.ar    1  UNL1       -0.2674
      7 C           2.3379   -2.2860    0.8261 C.3     1  UNL1        0.0645
      8 C           0.9906   -2.6610    0.1805 C.3     1  UNL1        0.1076
      9 O           0.3277   -3.7861    0.8137 O.3     1  UNL1       -0.4902
     10 C          -0.9699   -4.0233    0.3860 C.ar    1  UNL1        0.1206
     11 C          -1.5149   -3.4862   -0.7713 C.ar    1  UNL1       -0.0193
     12 C          -2.8836   -3.6297   -1.0636 C.ar    1  UNL1       -0.0491
     13 C          -3.7877   -4.2885   -0.2035 C.ar    1  UNL1        0.0006
     14 C          -3.2062   -4.9502    0.8922 C.ar    1  UNL1       -0.0491
     15 C          -1.8105   -4.8258    1.1745 C.ar    1  UNL1       -0.0193
     16 C          -5.2338   -3.9189   -0.3017 C.ar    1  UNL1        0.0719
     17 N          -6.3029   -4.7653   -0.2162 N.ar    1  UNL1       -0.2467
     18 C          -7.5706   -4.1939   -0.0544 C.ar    1  UNL1        0.0719
     19 C          -8.8173   -4.8385   -0.1684 C.ar    1  UNL1       -0.0357
     20 C         -10.0519   -4.1865    0.0876 C.ar    1  UNL1       -0.0597
     21 C         -10.0851   -2.8522    0.4746 C.ar    1  UNL1       -0.0611
     22 C          -8.8884   -2.1756    0.5941 C.ar    1  UNL1       -0.0523
     23 C          -7.6807   -2.8411    0.3242 C.ar    1  UNL1        0.0033
     24 C          -6.4899   -2.1869    0.5535 C.ar    1  UNL1       -0.0393
     25 C          -6.1169   -2.1076    2.0359 C.3     1  UNL1       -0.0390
     26 C          -5.4733   -2.5547   -0.3012 C.ar    1  UNL1       -0.0322
     27 N           4.2811   -1.8755   -1.6573 N.pl3   1  UNL1        0.1004
     28 O           5.1498   -1.5277   -2.4663 O.co2   1  UNL1       -0.5747
     29 O           3.8107   -3.0077   -1.5571 O.2     1  UNL1        0.0431
     30 H           0.8098    0.2396    1.7786 H       1  UNL1        0.0307
     31 H           2.2087    0.0586    2.8748 H       1  UNL1        0.0307
     32 H           1.8452    1.6250    2.1442 H       1  UNL1        0.0307
     33 H           4.7138    0.9745   -1.5487 H       1  UNL1        0.0917
     34 H           3.0766   -3.0881    0.7336 H       1  UNL1        0.0528
     35 H           2.2164   -2.1407    1.9051 H       1  UNL1        0.0528
     36 H           0.3334   -1.7852    0.2471 H       1  UNL1        0.0714
     37 H           1.1720   -2.9025   -0.8720 H       1  UNL1        0.0714
     38 H          -0.9269   -2.8900   -1.4618 H       1  UNL1        0.0654
     39 H          -3.2619   -3.1141   -1.9445 H       1  UNL1        0.0625
     40 H          -3.8379   -5.4899    1.5975 H       1  UNL1        0.0625
     41 H          -1.4062   -5.3195    2.0578 H       1  UNL1        0.0654
     42 H          -8.8435   -5.8851   -0.4600 H       1  UNL1        0.0639
     43 H         -10.9909   -4.7283   -0.0023 H       1  UNL1        0.0618
     44 H         -11.0215   -2.3440    0.6947 H       1  UNL1        0.0618
     45 H          -8.8821   -1.1282    0.8956 H       1  UNL1        0.0624
     46 H          -5.7659   -3.0912    2.3797 H       1  UNL1        0.0278
     47 H          -5.3251   -1.3731    2.1902 H       1  UNL1        0.0278
     48 H          -6.9833   -1.8356    2.6450 H       1  UNL1        0.0278
     49 H          -5.6185   -2.2059   -1.3417 H       1  UNL1        0.0642
@<TRIPOS>UNITY_ATOM_ATTR
27 1
charge 1
28 1
charge -1
@<TRIPOS>BOND
     1     1    30    1
     2     1    31    1
     3     1    32    1
     4     2     1    1
     5     3     2   ar
     6     4     3   ar
     7     4    33    1
     8     5     4   ar
     9     6     5   ar
    10     6     2   ar
    11     7     6    1
    12     7    34    1
    13     7    35    1
    14     8     7    1
    15     8    36    1
    16     8    37    1
    17     9     8    1
    18    10     9    1
    19    11    10   ar
    20    11    38    1
    21    12    11   ar
    22    12    39    1
    23    13    12   ar
    24    14    13   ar
    25    14    40    1
    26    15    14   ar
    27    15    10   ar
    28    15    41    1
    29    16    13    1
    30    17    16   ar
    31    18    17   ar
    32    19    18   ar
    33    19    42    1
    34    20    19   ar
    35    20    43    1
    36    21    20   ar
    37    21    44    1
    38    22    21   ar
    39    22    45    1
    40    23    22   ar
    41    23    18   ar
    42    24    23   ar
    43    25    24    1
    44    25    46    1
    45    25    47    1
    46    25    48    1
    47    26    24   ar
    48    26    16   ar
    49    26    49    1
    50    27     5    1
    51    28    27    1
    52    29    27    2
