@<TRIPOS>MOLECULE
>181.sdf
 50 54 0 0 0
SMALL
GASTEIGER

@<TRIPOS>ATOM
      1 C           1.0163    0.5622   -0.3875 C.3     1  UNL1        0.0789
      2 O           2.4108    0.3571   -0.1985 O.3     1  UNL1       -0.4930
      3 C           3.0341   -0.4938   -1.0890 C.ar    1  UNL1        0.1461
      4 C           2.6455   -0.6089   -2.4253 C.ar    1  UNL1       -0.0178
      5 C           3.3374   -1.4667   -3.2721 C.ar    1  UNL1       -0.0575
      6 C           4.4118   -2.2079   -2.7838 C.ar    1  UNL1       -0.0490
      7 C           4.7855   -2.1299   -1.4207 C.ar    1  UNL1        0.0438
      8 C           5.7660   -2.9384   -0.8094 C.ar    1  UNL1        0.1322
      9 N           6.5405   -3.7706   -1.6388 N.pl3   1  UNL1       -0.3243
     10 C           7.4354   -4.7376   -1.0259 C.3     1  UNL1        0.0357
     11 C           7.9020   -5.6971   -2.1085 C.ar    1  UNL1       -0.0304
     12 C           9.1968   -5.6310   -2.6459 C.ar    1  UNL1       -0.0571
     13 C           9.5948   -6.5140   -3.6560 C.ar    1  UNL1       -0.0615
     14 C           8.7061   -7.4703   -4.1460 C.ar    1  UNL1       -0.0617
     15 C           7.4151   -7.5424   -3.6284 C.ar    1  UNL1       -0.0615
     16 C           7.0155   -6.6607   -2.6205 C.ar    1  UNL1       -0.0571
     17 N           5.8760   -3.0202    0.5311 N.ar    1  UNL1       -0.1963
     18 C           5.0773   -2.2115    1.2559 C.ar    1  UNL1        0.2401
     19 N           4.6415   -2.5881    2.5719 N.ar    1  UNL1       -0.2488
     20 C           4.7527   -3.8404    3.1738 C.ar    1  UNL1        0.2009
     21 N           5.5284   -4.8543    2.7265 N.pl3   1  UNL1       -0.3285
     22 N           3.8419   -4.0205    4.1001 N.ar    1  UNL1       -0.2143
     23 C           3.1051   -2.8715    4.1202 C.ar    1  UNL1        0.0914
     24 C           1.8910   -2.6129    4.7735 C.ar    1  UNL1       -0.0342
     25 C           1.2792   -1.3661    4.6055 C.ar    1  UNL1       -0.0596
     26 C           1.9107   -0.3603    3.8773 C.ar    1  UNL1       -0.0597
     27 C           3.1319   -0.5938    3.2350 C.ar    1  UNL1       -0.0356
     28 C           3.6701   -1.8938    3.3099 C.ar    1  UNL1        0.0779
     29 N           4.3565   -1.2171    0.7201 N.ar    1  UNL1       -0.2079
     30 C           4.0972   -1.2539   -0.5808 C.ar    1  UNL1        0.1196
     31 H           0.8276    1.1933   -1.2605 H       1  UNL1        0.0660
     32 H           0.4747   -0.3872   -0.4606 H       1  UNL1        0.0660
     33 H           0.6353    1.0969    0.4891 H       1  UNL1        0.0660
     34 H           1.8081   -0.0464   -2.8227 H       1  UNL1        0.0655
     35 H           3.0242   -1.5808   -4.3063 H       1  UNL1        0.0619
     36 H           4.9160   -2.9109   -3.4419 H       1  UNL1        0.0625
     37 H           7.0114   -3.2153   -2.3469 H       1  UNL1        0.1478
     38 H           8.2969   -4.2381   -0.5655 H       1  UNL1        0.0511
     39 H           6.9296   -5.3202   -0.2465 H       1  UNL1        0.0511
     40 H           9.9083   -4.8918   -2.2843 H       1  UNL1        0.0621
     41 H          10.6013   -6.4575   -4.0662 H       1  UNL1        0.0618
     42 H           9.0165   -8.1557   -4.9310 H       1  UNL1        0.0618
     43 H           6.7169   -8.2829   -4.0106 H       1  UNL1        0.0618
     44 H           5.9993   -6.7186   -2.2343 H       1  UNL1        0.0621
     45 H           6.4825   -4.8326    3.0741 H       1  UNL1        0.1451
     46 H           5.1374   -5.7467    3.0230 H       1  UNL1        0.1451
     47 H           1.4094   -3.4014    5.3403 H       1  UNL1        0.0639
     48 H           0.2976   -1.1879    5.0368 H       1  UNL1        0.0618
     49 H           1.4270    0.6079    3.7636 H       1  UNL1        0.0618
     50 H           3.5815    0.1823    2.6200 H       1  UNL1        0.0639
@<TRIPOS>BOND
     1     1    31    1
     2     1    32    1
     3     1    33    1
     4     2     1    1
     5     3     2    1
     6     4     3   ar
     7     4    34    1
     8     5     4   ar
     9     5    35    1
    10     6     5   ar
    11     6    36    1
    12     7     6   ar
    13     8     7   ar
    14     9     8    1
    15     9    37    1
    16    10     9    1
    17    10    38    1
    18    10    39    1
    19    11    10    1
    20    12    11   ar
    21    12    40    1
    22    13    12   ar
    23    13    41    1
    24    14    13   ar
    25    14    42    1
    26    15    14   ar
    27    15    43    1
    28    16    15   ar
    29    16    11   ar
    30    16    44    1
    31    17     8   ar
    32    18    17   ar
    33    19    18    1
    34    20    19   ar
    35    21    20    1
    36    21    45    1
    37    21    46    1
    38    22    20   ar
    39    23    22   ar
    40    24    23   ar
    41    24    47    1
    42    25    24   ar
    43    25    48    1
    44    26    25   ar
    45    26    49    1
    46    27    26   ar
    47    27    50    1
    48    28    27   ar
    49    28    23   ar
    50    28    19   ar
    51    29    18   ar
    52    30    29   ar
    53    30     3   ar
    54    30     7   ar
