@<TRIPOS>MOLECULE
>218.sdf
 55 57 0 0 0
SMALL
GASTEIGER

@<TRIPOS>ATOM
      1 C           8.3643   -4.6111   -1.4712 C.3     1  UNL1       -0.0429
      2 N           8.4117   -4.2883   -0.0015 N.4     1  UNL1        0.2374
      3 C           8.8881   -5.4498    0.8109 C.3     1  UNL1       -0.0429
      4 C           9.1789   -2.9994    0.3069 C.3     1  UNL1        0.0454
      5 C           8.4992   -1.7829   -0.3297 C.2     1  UNL1        0.2582
      6 O           7.2941   -1.8135   -0.5749 O.2     1  UNL1       -0.2699
      7 N           9.3196   -0.7306   -0.6524 N.am    1  UNL1       -0.3094
      8 C           8.8536    0.3677   -1.5006 C.3     1  UNL1        0.0272
      9 C           9.1992    0.0950   -2.9715 C.3     1  UNL1        0.0247
     10 N           8.8020    1.1753   -3.8681 N.pl3   1  UNL1       -0.3418
     11 C           9.5082    1.4099   -5.0685 C.ar    1  UNL1        0.0385
     12 C          10.5301    0.5559   -5.4906 C.ar    1  UNL1       -0.0148
     13 C          11.2573    0.8512   -6.6324 C.ar    1  UNL1        0.0663
     14 C          12.4345    0.0639   -7.0237 C.2     1  UNL1       -0.0357
     15 C          13.2876   -0.5000   -6.1492 C.2     1  UNL1       -0.0526
     16 C          14.4992   -1.2461   -6.5139 C.ar    1  UNL1       -0.0250
     17 C          15.2420   -0.9447   -7.6615 C.ar    1  UNL1       -0.0546
     18 C          16.4178   -1.6404   -7.9501 C.ar    1  UNL1       -0.0612
     19 C          16.8716   -2.6364   -7.0885 C.ar    1  UNL1       -0.0617
     20 C          16.1518   -2.9366   -5.9347 C.ar    1  UNL1       -0.0612
     21 C          14.9743   -2.2415   -5.6465 C.ar    1  UNL1       -0.0546
     22 N          10.9382    1.8636   -7.4530 N.ar    1  UNL1       -0.2472
     23 C           9.8962    2.6429   -7.1286 C.ar    1  UNL1        0.0734
     24 C           9.5538    3.6578   -8.0114 C.ar    1  UNL1       -0.0357
     25 C           8.4861    4.5228   -7.7675 C.ar    1  UNL1       -0.0597
     26 C           7.7395    4.3745   -6.6081 C.ar    1  UNL1       -0.0610
     27 C           8.0606    3.3609   -5.7048 C.ar    1  UNL1       -0.0508
     28 C           9.1417    2.4742   -5.9392 C.ar    1  UNL1        0.0212
     29 H           7.7390   -5.4983   -1.6010 H       1  UNL1        0.0778
     30 H           7.9170   -3.7734   -2.0102 H       1  UNL1        0.0778
     31 H           9.3840   -4.7953   -1.8179 H       1  UNL1        0.0778
     32 H           7.4348   -4.0770    0.2630 H       1  UNL1        0.2033
     33 H           9.9276   -5.6569    0.5410 H       1  UNL1        0.0778
     34 H           8.8041   -5.1880    1.8684 H       1  UNL1        0.0778
     35 H           8.2506   -6.3092    0.5870 H       1  UNL1        0.0778
     36 H           9.1762   -2.8726    1.3943 H       1  UNL1        0.0913
     37 H          10.1994   -3.1298   -0.0651 H       1  UNL1        0.0913
     38 H          10.3094   -0.7489   -0.4321 H       1  UNL1        0.1489
     39 H           7.7758    0.5116   -1.3741 H       1  UNL1        0.0477
     40 H           9.3647    1.2737   -1.1579 H       1  UNL1        0.0477
     41 H          10.2817   -0.0721   -2.9914 H       1  UNL1        0.0476
     42 H           8.7174   -0.8340   -3.3020 H       1  UNL1        0.0476
     43 H           8.5317    2.0460   -3.4154 H       1  UNL1        0.1461
     44 H          10.8016   -0.3275   -4.9327 H       1  UNL1        0.0657
     45 H          12.5952    0.0100   -8.0964 H       1  UNL1        0.0639
     46 H          13.1248   -0.4019   -5.0777 H       1  UNL1        0.0624
     47 H          14.9276   -0.1530   -8.3370 H       1  UNL1        0.0623
     48 H          16.9841   -1.3942   -8.8450 H       1  UNL1        0.0618
     49 H          17.7907   -3.1713   -7.3148 H       1  UNL1        0.0618
     50 H          16.5116   -3.7079   -5.2588 H       1  UNL1        0.0618
     51 H          14.4316   -2.4875   -4.7380 H       1  UNL1        0.0623
     52 H          10.1329    3.7749   -8.9254 H       1  UNL1        0.0639
     53 H           8.2433    5.3004   -8.4859 H       1  UNL1        0.0618
     54 H           6.9026    5.0405   -6.4124 H       1  UNL1        0.0618
     55 H           7.4406    3.2558   -4.8193 H       1  UNL1        0.0625
@<TRIPOS>UNITY_ATOM_ATTR
2 1
charge 1
@<TRIPOS>BOND
     1     1    29    1
     2     1    30    1
     3     1    31    1
     4     2     1    1
     5     2    32    1
     6     3     2    1
     7     3    33    1
     8     3    34    1
     9     3    35    1
    10     4     2    1
    11     4    36    1
    12     4    37    1
    13     5     4    1
    14     6     5    2
    15     7     5   am
    16     7    38    1
    17     8     7    1
    18     8    39    1
    19     8    40    1
    20     9     8    1
    21     9    41    1
    22     9    42    1
    23    10     9    1
    24    10    43    1
    25    11    10    1
    26    12    11   ar
    27    12    44    1
    28    13    12   ar
    29    14    13    1
    30    14    45    1
    31    15    14    2
    32    15    46    1
    33    16    15    1
    34    17    16   ar
    35    17    47    1
    36    18    17   ar
    37    18    48    1
    38    19    18   ar
    39    19    49    1
    40    20    19   ar
    41    20    50    1
    42    21    20   ar
    43    21    16   ar
    44    21    51    1
    45    22    13   ar
    46    23    22   ar
    47    24    23   ar
    48    24    52    1
    49    25    24   ar
    50    25    53    1
    51    26    25   ar
    52    26    54    1
    53    27    26   ar
    54    27    55    1
    55    28    27   ar
    56    28    11   ar
    57    28    23   ar
