@<TRIPOS>MOLECULE
>27.sdf
 32 33 0 0 0
SMALL
GASTEIGER

@<TRIPOS>ATOM
      1 C           5.5582   -0.5609    3.1324 C.3     1  UNL1       -0.0648
      2 C           4.7101    0.3689    2.2793 C.3     1  UNL1       -0.0476
      3 C           5.5481    1.0433    1.1990 C.3     1  UNL1        0.0240
      4 C           4.7221    1.9469    0.2929 C.2     1  UNL1        0.2174
      5 O           3.5196    2.1499    0.4525 O.2     1  UNL1       -0.2755
      6 N           5.3850    2.6101   -0.7109 N.am    1  UNL1       -0.2783
      7 C           6.7564    2.7121   -0.8111 C.ar    1  UNL1        0.1411
      8 C           7.4177    3.7546   -0.2787 C.ar    1  UNL1        0.1523
      9 O           6.7826    4.7900    0.3813 O.3     1  UNL1       -0.5041
     10 C           8.8860    3.7851   -0.2731 C.ar    1  UNL1        0.0418
     11 C           9.5861    2.7125   -0.8433 C.ar    1  UNL1        0.0528
     12 N           8.8776    1.6556   -1.4240 N.ar    1  UNL1       -0.3204
     13 C           7.5117    1.5882   -1.4649 C.ar    1  UNL1        0.2741
     14 O           6.9362    0.6492   -2.0067 O.2     1  UNL1       -0.2657
     15 C          10.9833    2.6770   -0.8335 C.ar    1  UNL1       -0.0376
     16 C          11.6928    3.7219   -0.2435 C.ar    1  UNL1       -0.0598
     17 C          11.0110    4.7939    0.3328 C.ar    1  UNL1       -0.0610
     18 C           9.6143    4.8255    0.3189 C.ar    1  UNL1       -0.0491
     19 H           4.9399   -1.0454    3.8940 H       1  UNL1        0.0230
     20 H           6.0191   -1.3432    2.5204 H       1  UNL1        0.0230
     21 H           6.3561   -0.0102    3.6413 H       1  UNL1        0.0230
     22 H           3.8969   -0.2029    1.8168 H       1  UNL1        0.0267
     23 H           4.2443    1.1266    2.9201 H       1  UNL1        0.0267
     24 H           6.3285    1.6477    1.6797 H       1  UNL1        0.0358
     25 H           6.0274    0.2781    0.5816 H       1  UNL1        0.0358
     26 H           4.8134    3.2787   -1.2165 H       1  UNL1        0.1551
     27 H           5.8331    4.5813    0.4310 H       1  UNL1        0.2923
     28 H           9.3697    0.8823   -1.8523 H       1  UNL1        0.1690
     29 H          11.5240    1.8453   -1.2714 H       1  UNL1        0.0638
     30 H          12.7798    3.7002   -0.2287 H       1  UNL1        0.0618
     31 H          11.5652    5.6051    0.7979 H       1  UNL1        0.0618
     32 H           9.0987    5.6644    0.7821 H       1  UNL1        0.0625
@<TRIPOS>BOND
     1     1    19    1
     2     1    20    1
     3     1    21    1
     4     2     1    1
     5     2    22    1
     6     2    23    1
     7     3     2    1
     8     3    24    1
     9     3    25    1
    10     4     3    1
    11     5     4    2
    12     6     4   am
    13     6    26    1
    14     7     6    1
    15     8     7   ar
    16     9     8    1
    17     9    27    1
    18    10     8   ar
    19    11    10   ar
    20    12    11   ar
    21    12    28    1
    22    13    12   ar
    23    13     7   ar
    24    14    13    2
    25    15    11   ar
    26    15    29    1
    27    16    15   ar
    28    16    30    1
    29    17    16   ar
    30    17    31    1
    31    18    17   ar
    32    18    10   ar
    33    18    32    1
