@<TRIPOS>MOLECULE
>73.sdf
 40 43 0 0 0
SMALL
GASTEIGER

@<TRIPOS>ATOM
      1 C           2.8209    0.4241    1.8456 C.3     1  UNL1        0.0788
      2 O           3.4243   -0.0044    0.6297 O.3     1  UNL1       -0.4951
      3 C           3.5615    0.9435   -0.3477 C.ar    1  UNL1        0.1207
      4 C           3.1402    2.2720   -0.2571 C.ar    1  UNL1       -0.0108
      5 C           3.3222    3.1812   -1.3180 C.ar    1  UNL1        0.0038
      6 C           3.9610    2.7084   -2.4788 C.ar    1  UNL1       -0.0523
      7 C           4.3825    1.3802   -2.5802 C.ar    1  UNL1       -0.0577
      8 C           4.1779    0.5028   -1.5177 C.ar    1  UNL1       -0.0199
      9 C           2.8533    4.5748   -1.1830 C.ar    1  UNL1        0.0725
     10 N           2.8939    5.0930    0.0602 N.ar    1  UNL1       -0.2451
     11 C           2.4752    6.3578    0.2469 C.ar    1  UNL1        0.0904
     12 C           2.5036    6.8639    1.5370 C.ar    1  UNL1       -0.0328
     13 C           2.0889    8.1608    1.8154 C.ar    1  UNL1       -0.0415
     14 C           1.6654    8.9321    0.7597 C.ar    1  UNL1        0.0284
     15 N           1.6210    8.4827   -0.5096 N.ar    1  UNL1       -0.2528
     16 C           1.9991    7.2040   -0.7801 C.ar    1  UNL1        0.0969
     17 C           1.9336    6.6448   -2.0752 C.ar    1  UNL1        0.0116
     18 C           2.3626    5.3125   -2.2525 C.ar    1  UNL1       -0.0259
     19 C           1.4099    7.3948   -3.2571 C.ar    1  UNL1       -0.0157
     20 C           1.9462    7.2020   -4.5468 C.ar    1  UNL1       -0.0540
     21 C           1.4469    7.8847   -5.6619 C.ar    1  UNL1       -0.0612
     22 C           0.4114    8.7999   -5.5131 C.ar    1  UNL1       -0.0617
     23 C          -0.1358    9.0171   -4.2547 C.ar    1  UNL1       -0.0612
     24 C           0.3465    8.3097   -3.1487 C.ar    1  UNL1       -0.0540
     25 H           3.3976    1.2300    2.3130 H       1  UNL1        0.0660
     26 H           1.7809    0.7267    1.6813 H       1  UNL1        0.0660
     27 H           2.8166   -0.4233    2.5369 H       1  UNL1        0.0660
     28 H           2.6526    2.6386    0.6419 H       1  UNL1        0.0661
     29 H           4.1555    3.3743   -3.3168 H       1  UNL1        0.0624
     30 H           4.8740    1.0305   -3.4847 H       1  UNL1        0.0619
     31 H           4.5065   -0.5305   -1.5983 H       1  UNL1        0.0654
     32 H           2.8535    6.2281    2.3466 H       1  UNL1        0.0640
     33 H           2.0998    8.5520    2.8260 H       1  UNL1        0.0633
     34 H           1.3294    9.9554    0.9019 H       1  UNL1        0.0830
     35 H           2.2795    4.8394   -3.2264 H       1  UNL1        0.0646
     36 H           2.7757    6.5171   -4.7068 H       1  UNL1        0.0624
     37 H           1.8754    7.7047   -6.6442 H       1  UNL1        0.0618
     38 H           0.0332    9.3446   -6.3734 H       1  UNL1        0.0618
     39 H          -0.9392    9.7371   -4.1231 H       1  UNL1        0.0618
     40 H          -0.1268    8.4958   -2.1869 H       1  UNL1        0.0624
@<TRIPOS>BOND
     1     1    25    1
     2     1    26    1
     3     1    27    1
     4     2     1    1
     5     3     2    1
     6     4     3   ar
     7     4    28    1
     8     5     4   ar
     9     6     5   ar
    10     6    29    1
    11     7     6   ar
    12     7    30    1
    13     8     7   ar
    14     8     3   ar
    15     8    31    1
    16     9     5    1
    17    10     9   ar
    18    11    10   ar
    19    12    11   ar
    20    12    32    1
    21    13    12   ar
    22    13    33    1
    23    14    13   ar
    24    14    34    1
    25    15    14   ar
    26    16    15   ar
    27    16    11   ar
    28    17    16   ar
    29    18    17   ar
    30    18     9   ar
    31    18    35    1
    32    19    17    1
    33    20    19   ar
    34    20    36    1
    35    21    20   ar
    36    21    37    1
    37    22    21   ar
    38    22    38    1
    39    23    22   ar
    40    23    39    1
    41    24    23   ar
    42    24    19   ar
    43    24    40    1
