@<TRIPOS>MOLECULE
>226_2.sdf
 35 38 0 0 0
SMALL
GASTEIGER

@<TRIPOS>ATOM
      1 CL         -2.1212    0.1098   -1.3663 Cl      1  UNL1       -0.0835
      2 C          -0.4666    0.0875   -0.8914 C.ar    1  UNL1        0.0410
      3 C           0.3063   -1.0483   -1.1025 C.ar    1  UNL1       -0.0430
      4 C           1.6683   -1.0419   -0.7611 C.ar    1  UNL1       -0.0536
      5 C           2.2615    0.1016   -0.2003 C.ar    1  UNL1       -0.0048
      6 C           1.4405    1.2175    0.0383 C.ar    1  UNL1       -0.0536
      7 C           0.0914    1.2163   -0.3103 C.ar    1  UNL1       -0.0430
      8 C           3.7748    0.1138    0.0602 C.3     1  UNL1        0.1546
      9 O           4.4623    0.6314   -1.1029 O.3     1  UNL1       -0.4809
     10 C           4.4179    1.9953   -1.2116 C.ar    1  UNL1        0.1320
     11 C           4.4663    2.5194   -2.5023 C.ar    1  UNL1       -0.0192
     12 C           4.3088    3.8921   -2.7031 C.ar    1  UNL1       -0.0583
     13 C           4.1279    4.7437   -1.6125 C.ar    1  UNL1       -0.0609
     14 C           4.1267    4.2274   -0.3163 C.ar    1  UNL1       -0.0477
     15 C           4.2813    2.8509   -0.1178 C.ar    1  UNL1        0.0613
     16 C           4.2035    2.2762    1.2448 C.2     1  UNL1        0.1949
     17 O           4.0808    3.0277    2.2084 O.2     1  UNL1       -0.2895
     18 C           4.2990    0.7756    1.3434 C.3     1  UNL1        0.1574
     19 N           3.6823    0.1858    2.5243 N.ar    1  UNL1       -0.2372
     20 C           2.5995    0.5906    3.2496 C.ar    1  UNL1        0.0464
     21 C           2.3532   -0.4604    4.0979 C.ar    1  UNL1        0.0693
     22 N           3.2725   -1.4438    3.8838 N.ar    1  UNL1       -0.1379
     23 N           4.0858   -1.0387    2.9165 N.ar    1  UNL1       -0.0649
     24 H          -0.1343   -1.9391   -1.5414 H       1  UNL1        0.0632
     25 H           2.2540   -1.9404   -0.9462 H       1  UNL1        0.0622
     26 H           1.8091    2.1320    0.4822 H       1  UNL1        0.0622
     27 H          -0.5065    2.1085   -0.1373 H       1  UNL1        0.0632
     28 H           4.0879   -0.9395    0.1100 H       1  UNL1        0.0811
     29 H           4.5818    1.8571   -3.3571 H       1  UNL1        0.0654
     30 H           4.3070    4.2958   -3.7133 H       1  UNL1        0.0619
     31 H           3.9793    5.8095   -1.7735 H       1  UNL1        0.0618
     32 H           3.9772    4.8957    0.5293 H       1  UNL1        0.0626
     33 H           5.3781    0.5750    1.4375 H       1  UNL1        0.0669
     34 H           2.1022    1.5386    3.1074 H       1  UNL1        0.0842
     35 H           1.5719   -0.5643    4.8359 H       1  UNL1        0.0864
@<TRIPOS>BOND
     1     2     1    1
     2     3     2   ar
     3     3    24    1
     4     4     3   ar
     5     4    25    1
     6     5     4   ar
     7     6     5   ar
     8     6    26    1
     9     7     6   ar
    10     7     2   ar
    11     7    27    1
    12     8     5    1
    13     8    28    1
    14     9     8    1
    15    10     9    1
    16    11    10   ar
    17    11    29    1
    18    12    11   ar
    19    12    30    1
    20    13    12   ar
    21    13    31    1
    22    14    13   ar
    23    14    32    1
    24    15    14   ar
    25    15    10   ar
    26    16    15    1
    27    17    16    2
    28    18    16    1
    29    18     8    1
    30    18    33    1
    31    19    18    1
    32    20    19   ar
    33    20    34    1
    34    21    20   ar
    35    21    35    1
    36    22    21   ar
    37    23    22   ar
    38    23    19   ar
