@<TRIPOS>MOLECULE
>220.sdf
 30 31 0 0 0
SMALL
GASTEIGER

@<TRIPOS>ATOM
      1 C           1.5093    2.4992   -1.4568 C.3     1  UNL1        0.0821
      2 O           2.9053    2.2229   -1.3519 O.3     1  UNL1       -0.4623
      3 C           3.2047    1.0034   -0.8274 C.2     1  UNL1        0.3749
      4 O           2.3744    0.1853   -0.4443 O.2     1  UNL1       -0.2415
      5 C           4.6373    0.7940   -0.8268 C.ar    1  UNL1        0.2166
      6 C           5.3804   -0.3776   -0.7518 C.ar    1  UNL1        0.0231
      7 C           4.8475   -1.7587   -0.6608 C.3     1  UNL1        0.0328
      8 BR          4.5809   -2.4314   -2.4668 Br      1  UNL1       -0.0866
      9 C           6.7553    0.0249   -0.7913 C.ar    1  UNL1        0.0269
     10 C           6.7637    1.4179   -0.8405 C.ar    1  UNL1        0.1503
     11 O           5.4779    1.8696   -0.8937 O.2     1  UNL1       -0.4471
     12 C           7.9315    2.2016   -0.8422 C.ar    1  UNL1        0.1023
     13 C           7.8254    3.6829   -0.8222 C.2     1  UNL1        0.1672
     14 C           8.8784    4.5360   -1.4831 C.3     1  UNL1       -0.0012
     15 O           6.8679    4.2130   -0.2607 O.2     1  UNL1       -0.2921
     16 C           9.1460    1.4949   -0.8018 C.ar    1  UNL1        0.1448
     17 O          10.3297    2.1868   -0.7299 O.3     1  UNL1       -0.5048
     18 C           9.1680    0.0928   -0.7930 C.ar    1  UNL1        0.0607
     19 BR         10.8197   -0.8460   -0.7736 Br      1  UNL1       -0.0465
     20 C           7.9860   -0.6568   -0.7830 C.ar    1  UNL1       -0.0331
     21 H           0.9507    1.6367   -1.8355 H       1  UNL1        0.0661
     22 H           1.1236    2.8104   -0.4823 H       1  UNL1        0.0661
     23 H           1.3787    3.3213   -2.1660 H       1  UNL1        0.0661
     24 H           5.5467   -2.4412   -0.1705 H       1  UNL1        0.0432
     25 H           3.8860   -1.8180   -0.1467 H       1  UNL1        0.0432
     26 H           8.3853    5.2336   -2.1667 H       1  UNL1        0.0309
     27 H           9.4155    5.0976   -0.7134 H       1  UNL1        0.0309
     28 H           9.5885    3.9629   -2.0795 H       1  UNL1        0.0309
     29 H          11.0634    1.5430   -0.7283 H       1  UNL1        0.2922
     30 H           8.0142   -1.7426   -0.7646 H       1  UNL1        0.0637
@<TRIPOS>BOND
     1     1    21    1
     2     1    22    1
     3     1    23    1
     4     2     1    1
     5     3     2    1
     6     4     3    2
     7     5     3    1
     8     6     5   ar
     9     7     6    1
    10     7    24    1
    11     7    25    1
    12     8     7    1
    13     9     6   ar
    14    10     9   ar
    15    11    10   ar
    16    11     5   ar
    17    12    10   ar
    18    13    12    1
    19    14    13    1
    20    14    26    1
    21    14    27    1
    22    14    28    1
    23    15    13    2
    24    16    12   ar
    25    17    16    1
    26    17    29    1
    27    18    16   ar
    28    19    18    1
    29    20    18   ar
    30    20     9   ar
    31    20    30    1
