@<TRIPOS>MOLECULE
>193.sdf
 43 45 0 0 0
SMALL
GASTEIGER

@<TRIPOS>ATOM
      1 C           2.2762   -0.8418    0.0676 C.3     1  UNL1       -0.0587
      2 C           0.9037   -0.3813   -0.4622 C.3     1  UNL1       -0.0212
      3 C           0.6591   -1.1574   -1.7731 C.3     1  UNL1       -0.0587
      4 C           0.7553    1.1633   -0.5930 C.3     1  UNL1       -0.0299
      5 C           0.8785    1.6475    0.8717 C.3     1  UNL1       -0.0485
      6 C           0.1539    0.5404    1.6677 C.3     1  UNL1       -0.0417
      7 C          -0.2548   -0.4749    0.5713 C.3     1  UNL1        0.0134
      8 C          -0.6196   -1.8435    1.0982 C.3     1  UNL1       -0.0539
      9 C          -1.3442    0.2485   -0.2238 C.2     1  UNL1        0.0478
     10 C          -0.7210    1.3782   -1.0180 C.3     1  UNL1       -0.0087
     11 N          -2.5899   -0.1043   -0.2065 N.2     1  UNL1       -0.1580
     12 N          -3.3971    0.6812   -1.0237 N.2     1  UNL1       -0.1571
     13 C          -4.6267    0.2695   -0.9713 C.2     1  UNL1        0.0592
     14 C          -5.7028    0.9403   -1.7348 C.ar    1  UNL1        0.0250
     15 C          -5.3636    1.6157   -2.9124 C.ar    1  UNL1       -0.0509
     16 C          -6.3512    2.2424   -3.6826 C.ar    1  UNL1       -0.0610
     17 C          -7.6885    2.1993   -3.2858 C.ar    1  UNL1       -0.0596
     18 C          -8.0401    1.5475   -2.1046 C.ar    1  UNL1       -0.0308
     19 C          -7.0435    0.9369   -1.3299 C.ar    1  UNL1        0.1348
     20 N          -7.4523    0.3816   -0.0538 N.pl3   1  UNL1        0.0571
     21 O          -7.2159   -0.8144    0.1549 O.2     1  UNL1       -0.1261
     22 O          -8.0532    1.1406    0.7197 O.2     1  UNL1       -0.1261
     23 H           2.2816   -1.9249    0.2358 H       1  UNL1        0.0235
     24 H           3.0629   -0.6150   -0.6610 H       1  UNL1        0.0235
     25 H           2.5743   -0.3793    1.0110 H       1  UNL1        0.0235
     26 H           1.4406   -0.9264   -2.5057 H       1  UNL1        0.0235
     27 H           0.6813   -2.2381   -1.5920 H       1  UNL1        0.0235
     28 H          -0.3005   -0.9414   -2.2500 H       1  UNL1        0.0235
     29 H           1.4678    1.6478   -1.2651 H       1  UNL1        0.0310
     30 H           1.9268    1.7260    1.1795 H       1  UNL1        0.0268
     31 H           0.4196    2.6289    1.0309 H       1  UNL1        0.0268
     32 H          -0.7118    0.9467    2.2029 H       1  UNL1        0.0274
     33 H           0.8282    0.0980    2.4095 H       1  UNL1        0.0274
     34 H           0.2251   -2.3087    1.6165 H       1  UNL1        0.0239
     35 H          -1.4502   -1.7802    1.8098 H       1  UNL1        0.0239
     36 H          -0.9342   -2.5139    0.2921 H       1  UNL1        0.0239
     37 H          -0.8722    1.2321   -2.0898 H       1  UNL1        0.0329
     38 H          -1.1196    2.3481   -0.7083 H       1  UNL1        0.0329
     39 H          -4.8895   -0.6072   -0.3538 H       1  UNL1        0.0855
     40 H          -4.3257    1.6525   -3.2450 H       1  UNL1        0.0625
     41 H          -6.0700    2.7697   -4.5905 H       1  UNL1        0.0618
     42 H          -8.4479    2.6865   -3.8935 H       1  UNL1        0.0618
     43 H          -9.0844    1.5339   -1.7908 H       1  UNL1        0.0640
@<TRIPOS>BOND
     1     1    23    1
     2     1    24    1
     3     1    25    1
     4     2     1    1
     5     3     2    1
     6     3    26    1
     7     3    27    1
     8     3    28    1
     9     4     2    1
    10     4    29    1
    11     5     4    1
    12     5    30    1
    13     5    31    1
    14     6     5    1
    15     6    32    1
    16     6    33    1
    17     7     6    1
    18     7     2    1
    19     7     8    1
    20     8    34    1
    21     8    35    1
    22     8    36    1
    23     9     7    1
    24    10     9    1
    25    10     4    1
    26    10    37    1
    27    10    38    1
    28    11     9    2
    29    12    11    1
    30    13    12    2
    31    13    39    1
    32    14    13    1
    33    15    14   ar
    34    15    40    1
    35    16    15   ar
    36    16    41    1
    37    17    16   ar
    38    17    42    1
    39    18    17   ar
    40    18    43    1
    41    19    18   ar
    42    19    14   ar
    43    20    19    1
    44    21    20    2
    45    22    20    2
