@<TRIPOS>MOLECULE
>201.sdf
 45 44 0 0 0
SMALL
GASTEIGER

@<TRIPOS>ATOM
      1 C           0.9595   -5.6476   -4.6497 C.3     1  UNL1       -0.0653
      2 C           2.4417   -5.4268   -4.8956 C.3     1  UNL1       -0.0559
      3 C           2.8924   -4.0397   -4.4506 C.3     1  UNL1       -0.0533
      4 C           4.3933   -3.8600   -4.6974 C.3     1  UNL1       -0.0529
      5 C           4.8359   -2.4589   -4.2892 C.3     1  UNL1       -0.0479
      6 C           6.3162   -2.1953   -4.5730 C.3     1  UNL1       -0.0089
      7 C           6.8309   -0.8001   -4.1240 C.3     1  UNL1       -0.0118
      8 C           6.2555    0.3921   -4.8983 C.3     1  UNL1        0.0559
      9 S           4.5313    0.7687   -4.5147 S.3     1  UNL1       -0.0210
     10 S           4.2103    2.2673   -5.9466 S.3     1  UNL1       -0.0638
     11 O           4.9979    3.3499   -5.3719 O.co2   1  UNL1       -0.2817
     12 O           4.7877    1.6493   -7.1425 O.2     1  UNL1       -0.3610
     13 O           2.7677    2.4160   -5.9324 O.2     1  UNL1       -0.3610
     14 N           8.3574   -0.8535   -4.3452 N.4     1  UNL1        0.2317
     15 C           9.2200    0.2979   -3.8850 C.3     1  UNL1       -0.0255
     16 C           9.0500    0.5323   -2.3890 C.3     1  UNL1       -0.0216
     17 C          10.6871    0.0026   -4.2569 C.3     1  UNL1       -0.0128
     18 C          11.2839   -1.2498   -3.6243 C.3     1  UNL1       -0.0602
     19 H           0.6750   -6.6556   -4.9665 H       1  UNL1        0.0230
     20 H           0.7171   -5.5429   -3.5876 H       1  UNL1        0.0230
     21 H           0.3555   -4.9301   -5.2143 H       1  UNL1        0.0230
     22 H           3.0141   -6.1892   -4.3553 H       1  UNL1        0.0263
     23 H           2.6520   -5.5564   -5.9632 H       1  UNL1        0.0263
     24 H           2.3293   -3.2750   -5.0016 H       1  UNL1        0.0265
     25 H           2.6695   -3.8941   -3.3859 H       1  UNL1        0.0265
     26 H           4.9603   -4.6140   -4.1407 H       1  UNL1        0.0265
     27 H           4.6038   -4.0078   -5.7633 H       1  UNL1        0.0265
     28 H           4.2176   -1.7763   -4.8708 H       1  UNL1        0.0267
     29 H           4.6269   -2.2950   -3.2254 H       1  UNL1        0.0267
     30 H           6.8988   -2.9710   -4.0583 H       1  UNL1        0.0320
     31 H           6.5063   -2.3298   -5.6461 H       1  UNL1        0.0320
     32 H           6.6924   -0.6892   -3.0432 H       1  UNL1        0.0859
     33 H           6.8021    1.3027   -4.6440 H       1  UNL1        0.0447
     34 H           6.3913    0.2142   -5.9698 H       1  UNL1        0.0447
     35 H           8.6991   -1.7132   -3.9003 H       1  UNL1        0.2019
     36 H           8.5112   -0.9769   -5.3568 H       1  UNL1        0.2019
     37 H           8.9067    1.1837   -4.4459 H       1  UNL1        0.0848
     38 H           9.0928   -0.4010   -1.8186 H       1  UNL1        0.0284
     39 H           9.8363    1.1956   -2.0103 H       1  UNL1        0.0284
     40 H           8.0921    1.0162   -2.1751 H       1  UNL1        0.0284
     41 H          10.7800   -0.0764   -5.3473 H       1  UNL1        0.0317
     42 H          11.3025    0.8624   -3.9610 H       1  UNL1        0.0317
     43 H          11.1891   -1.2379   -2.5348 H       1  UNL1        0.0232
     44 H          10.8060   -2.1569   -4.0052 H       1  UNL1        0.0232
     45 H          12.3506   -1.3177   -3.8620 H       1  UNL1        0.0232
@<TRIPOS>UNITY_ATOM_ATTR
11 1
charge -1
14 1
charge 1
@<TRIPOS>BOND
     1     1    19    1
     2     1    20    1
     3     1    21    1
     4     2     1    1
     5     2    22    1
     6     2    23    1
     7     3     2    1
     8     3    24    1
     9     3    25    1
    10     4     3    1
    11     4    26    1
    12     4    27    1
    13     5     4    1
    14     5    28    1
    15     5    29    1
    16     6     5    1
    17     6    30    1
    18     6    31    1
    19     8     7    1
    20     8    33    1
    21     8    34    1
    22     9     8    1
    23    10     9    1
    24    11    10    1
    25    12    10    2
    26    13    10    2
    27    14     7    1
    28    14    35    1
    29    14    36    1
    30    15    14    1
    31    15    37    1
    32    16    15    1
    33    16    38    1
    34    16    39    1
    35    16    40    1
    36    17    15    1
    37    17    41    1
    38    17    42    1
    39    18    17    1
    40    18    43    1
    41    18    44    1
    42    18    45    1
    43     7    32    1
    44     7     6    1
