@<TRIPOS>MOLECULE
>13.sdf
 54 57 0 0 0
SMALL
GASTEIGER

@<TRIPOS>ATOM
      1 C           3.2037    1.2495   -0.0302 C.3     1  UNL1        0.0004
      2 N           2.4827   -0.0163    0.0113 N.pl3   1  UNL1       -0.3360
      3 C           1.0267    0.0700    0.1021 C.3     1  UNL1        0.0004
      4 C           3.0708   -1.1544    0.5579 C.ar    1  UNL1        0.0298
      5 C           4.1612   -1.1279    1.4333 C.ar    1  UNL1       -0.0329
      6 C           4.7668   -2.2981    1.9477 C.ar    1  UNL1       -0.0138
      7 C           5.8354   -2.2030    2.8525 C.ar    1  UNL1       -0.0461
      8 C           6.4812   -3.3302    3.3843 C.ar    1  UNL1       -0.0138
      9 C           6.0680   -4.6093    2.9676 C.ar    1  UNL1        0.0040
     10 C           6.8534   -5.6706    3.4565 C.ar    1  UNL1       -0.0505
     11 C           7.8505   -5.5133    4.4230 C.ar    1  UNL1       -0.0400
     12 C           8.2404   -4.2637    4.8912 C.ar    1  UNL1        0.0298
     13 C           7.5449   -3.1820    4.3225 C.ar    1  UNL1       -0.0329
     14 N           9.2514   -4.1379    5.8319 N.pl3   1  UNL1       -0.3360
     15 C           9.7968   -2.8695    6.2921 C.3     1  UNL1        0.0004
     16 C           9.8899   -5.3326    6.3868 C.3     1  UNL1        0.0004
     17 C           4.9386   -4.7458    2.0776 C.ar    1  UNL1        0.0469
     18 N           4.3628   -6.0201    1.7456 N.pl3   1  UNL1       -0.3135
     19 C           4.4524   -7.2661    2.3933 C.ar    1  UNL1        0.0314
     20 C           4.3592   -7.3609    3.7865 C.ar    1  UNL1       -0.0388
     21 C           4.7421   -8.5279    4.4521 C.ar    1  UNL1       -0.0393
     22 C           5.1404   -9.6579    3.7383 C.ar    1  UNL1        0.0247
     23 N           5.6979  -10.7489    4.4161 N.pl3   1  UNL1       -0.3580
     24 C           5.2166   -9.5753    2.3457 C.ar    1  UNL1       -0.0393
     25 C           4.8610   -8.3969    1.6749 C.ar    1  UNL1       -0.0388
     26 C           4.2901   -3.5713    1.5666 C.ar    1  UNL1        0.0040
     27 C           3.1774   -3.5923    0.6983 C.ar    1  UNL1       -0.0505
     28 C           2.5838   -2.4228    0.2151 C.ar    1  UNL1       -0.0400
     29 H           2.9058    1.7990   -0.9311 H       1  UNL1        0.0428
     30 H           2.9721    1.8676    0.8417 H       1  UNL1        0.0428
     31 H           4.2884    1.1154   -0.1011 H       1  UNL1        0.0428
     32 H           0.5474   -0.6017   -0.6175 H       1  UNL1        0.0428
     33 H           0.6748   -0.1765    1.1114 H       1  UNL1        0.0428
     34 H           0.6762    1.0821   -0.1272 H       1  UNL1        0.0428
     35 H           4.5512   -0.1637    1.7598 H       1  UNL1        0.0642
     36 H           6.1799   -1.2140    3.1536 H       1  UNL1        0.0630
     37 H           6.7153   -6.6832    3.0985 H       1  UNL1        0.0625
     38 H           8.3104   -6.4287    4.7832 H       1  UNL1        0.0636
     39 H           7.8040   -2.1673    4.6059 H       1  UNL1        0.0642
     40 H           9.6831   -2.7943    7.3791 H       1  UNL1        0.0428
     41 H          10.8664   -2.8252    6.0590 H       1  UNL1        0.0428
     42 H           9.3392   -1.9814    5.8573 H       1  UNL1        0.0428
     43 H           9.1658   -5.9391    6.9429 H       1  UNL1        0.0428
     44 H          10.3469   -5.9405    5.5974 H       1  UNL1        0.0428
     45 H          10.6924   -5.0716    7.0854 H       1  UNL1        0.0428
     46 H           4.0075   -6.0728    0.8002 H       1  UNL1        0.1522
     47 H           4.0914   -6.4814    4.3678 H       1  UNL1        0.0637
     48 H           4.7730   -8.5206    5.5378 H       1  UNL1        0.0636
     49 H           5.6535  -11.6204    3.8988 H       1  UNL1        0.1423
     50 H           5.3636  -10.8468    5.3697 H       1  UNL1        0.1423
     51 H           5.6056  -10.4117    1.7702 H       1  UNL1        0.0636
     52 H           5.0004   -8.3435    0.5982 H       1  UNL1        0.0637
     53 H           2.7357   -4.5301    0.3725 H       1  UNL1        0.0625
     54 H           1.7611   -2.5158   -0.4838 H       1  UNL1        0.0636
@<TRIPOS>BOND
     1     1    29    1
     2     1    30    1
     3     1    31    1
     4     2     1    1
     5     3     2    1
     6     3    32    1
     7     3    33    1
     8     3    34    1
     9     4     2    1
    10     5     4   ar
    11     5    35    1
    12     6     5   ar
    13     7     6   ar
    14     7    36    1
    15     8     7   ar
    16     9     8   ar
    17    10     9   ar
    18    10    37    1
    19    11    10   ar
    20    11    38    1
    21    12    11   ar
    22    13    12   ar
    23    13     8   ar
    24    13    39    1
    25    14    12    1
    26    15    14    1
    27    15    40    1
    28    15    41    1
    29    15    42    1
    30    16    14    1
    31    16    43    1
    32    16    44    1
    33    16    45    1
    34    17     9   ar
    35    18    17    1
    36    18    46    1
    37    19    18    1
    38    20    19   ar
    39    20    47    1
    40    21    20   ar
    41    21    48    1
    42    22    21   ar
    43    23    22    1
    44    23    49    1
    45    23    50    1
    46    24    22   ar
    47    24    51    1
    48    25    24   ar
    49    25    19   ar
    50    25    52    1
    51    26    17   ar
    52    26     6   ar
    53    27    26   ar
    54    27    53    1
    55    28    27   ar
    56    28     4   ar
    57    28    54    1
