@<TRIPOS>MOLECULE
>39.sdf
 43 46 0 0 0
SMALL
GASTEIGER

@<TRIPOS>ATOM
      1 C           1.1584    0.2046    0.5676 C.3     1  UNL1        0.0790
      2 O           2.5017    0.0696    0.1073 O.3     1  UNL1       -0.4913
      3 C           3.1097    1.2013   -0.3777 C.ar    1  UNL1        0.1672
      4 C           2.7224    2.4843    0.0398 C.ar    1  UNL1        0.0094
      5 C           3.3880    3.6228   -0.4264 C.ar    1  UNL1        0.0742
      6 C           4.4663    3.4839   -1.3051 C.ar    1  UNL1        0.0094
      7 C           4.9056    2.2100   -1.6778 C.ar    1  UNL1        0.1672
      8 O           5.9901    2.0179   -2.5031 O.3     1  UNL1       -0.4913
      9 C           7.0261    2.9897   -2.3866 C.3     1  UNL1        0.0790
     10 C           4.2116    1.0605   -1.2439 C.ar    1  UNL1        0.2036
     11 O           4.7511   -0.1345   -1.6614 O.3     1  UNL1       -0.4885
     12 C           3.8473   -1.2054   -1.8945 C.3     1  UNL1        0.0791
     13 N           3.0106    4.9158    0.0156 N.ar    1  UNL1       -0.2193
     14 C           2.0738    5.2609    0.9631 C.ar    1  UNL1        0.0591
     15 C           2.1985    6.6240    1.1016 C.ar    1  UNL1        0.1131
     16 N           3.1329    7.0772    0.2131 N.ar    1  UNL1       -0.1292
     17 N           3.6179    6.0349   -0.4465 N.ar    1  UNL1       -0.0602
     18 C           1.5293    7.4707    2.0717 C.ar    1  UNL1        0.0073
     19 C           0.6130    6.9522    3.0010 C.ar    1  UNL1       -0.0069
     20 C           0.1075    7.8052    3.9613 C.ar    1  UNL1        0.1669
     21 C           0.4542    9.1338    4.0123 C.ar    1  UNL1        0.1663
     22 O          -0.1323    9.7837    5.0523 O.3     1  UNL1       -0.4526
     23 C          -0.8113    8.6904    5.7033 C.3     1  UNL1        0.2332
     24 O          -0.7447    7.4531    4.9617 O.3     1  UNL1       -0.4526
     25 C           1.3167    9.6892    3.0976 C.ar    1  UNL1       -0.0155
     26 C           1.8606    8.8459    2.1234 C.ar    1  UNL1       -0.0488
     27 H           1.1203    0.7462    1.5170 H       1  UNL1        0.0660
     28 H           0.5263    0.6840   -0.1873 H       1  UNL1        0.0660
     29 H           0.7642   -0.7992    0.7493 H       1  UNL1        0.0660
     30 H           1.9131    2.5878    0.7509 H       1  UNL1        0.0677
     31 H           4.9719    4.3673   -1.6849 H       1  UNL1        0.0677
     32 H           6.7723    3.8934   -2.9511 H       1  UNL1        0.0660
     33 H           7.2435    3.2315   -1.3400 H       1  UNL1        0.0660
     34 H           7.9356    2.5682   -2.8251 H       1  UNL1        0.0660
     35 H           3.6420   -1.7459   -0.9661 H       1  UNL1        0.0660
     36 H           2.9234   -0.8727   -2.3798 H       1  UNL1        0.0660
     37 H           4.3389   -1.9119   -2.5710 H       1  UNL1        0.0660
     38 H           1.4672    4.5363    1.4785 H       1  UNL1        0.0853
     39 H           0.3148    5.9108    3.0087 H       1  UNL1        0.0662
     40 H          -0.3529    8.5301    6.6865 H       1  UNL1        0.1166
     41 H          -1.8625    8.9628    5.8442 H       1  UNL1        0.1166
     42 H           1.5863   10.7388    3.1437 H       1  UNL1        0.0655
     43 H           2.5684    9.2636    1.4080 H       1  UNL1        0.0625
@<TRIPOS>BOND
     1     1    27    1
     2     1    28    1
     3     1    29    1
     4     2     1    1
     5     3     2    1
     6     4     3   ar
     7     4    30    1
     8     5     4   ar
     9     6     5   ar
    10     6    31    1
    11     7     6   ar
    12     8     7    1
    13     9     8    1
    14     9    32    1
    15     9    33    1
    16     9    34    1
    17    10     7   ar
    18    10     3   ar
    19    11    10    1
    20    12    11    1
    21    12    35    1
    22    12    36    1
    23    12    37    1
    24    13     5    1
    25    14    13   ar
    26    14    38    1
    27    15    14   ar
    28    16    15   ar
    29    17    16   ar
    30    17    13   ar
    31    18    15    1
    32    19    18   ar
    33    19    39    1
    34    20    19   ar
    35    21    20   ar
    36    22    21    1
    37    23    22    1
    38    23    40    1
    39    23    41    1
    40    24    23    1
    41    24    20    1
    42    25    21   ar
    43    25    42    1
    44    26    25   ar
    45    26    18   ar
    46    26    43    1
