@<TRIPOS>MOLECULE
>41.sdf
 46 49 0 0 0
SMALL
GASTEIGER

@<TRIPOS>ATOM
      1 CL         -1.6156   -0.3887    3.2539 Cl      1  UNL1       -0.0835
      2 C          -0.3823   -0.0284    2.1083 C.ar    1  UNL1        0.0413
      3 C           0.2696    1.2056    2.1564 C.ar    1  UNL1       -0.0369
      4 C           1.2883    1.5053    1.2384 C.ar    1  UNL1       -0.0065
      5 C           2.0215    2.8227    1.3055 C.3     1  UNL1        0.1430
      6 O           1.3115    3.8310    0.5773 O.2     1  UNL1       -0.3888
      7 N           2.0823    5.0096    0.5885 N.2     1  UNL1       -0.0884
      8 C           1.3614    6.0656    0.3817 C.2     1  UNL1        0.0922
      9 C          -0.1394    6.1067    0.0823 C.3     1  UNL1        0.0233
     10 C          -0.2481    6.3272   -1.4425 C.3     1  UNL1        0.0325
     11 N          -1.5944    6.4161   -1.9597 N.ar    1  UNL1       -0.3362
     12 C          -2.1522    7.5086   -2.5641 C.ar    1  UNL1        0.0240
     13 C          -3.4157    7.1037   -2.9222 C.ar    1  UNL1        0.0454
     14 N          -3.6297    5.7990   -2.5555 N.ar    1  UNL1       -0.2441
     15 C          -2.5123    5.4075   -1.9876 C.ar    1  UNL1        0.0959
     16 C          -0.8438    7.2243    0.8971 C.3     1  UNL1       -0.0390
     17 C           0.0883    7.9865    1.8445 C.3     1  UNL1       -0.0250
     18 C           1.2966    8.4216    1.0563 C.ar    1  UNL1       -0.0201
     19 C           1.9912    7.4075    0.3738 C.ar    1  UNL1        0.0043
     20 C           3.0745    7.6785   -0.4599 C.ar    1  UNL1       -0.0524
     21 C           3.4612    9.0032   -0.6426 C.ar    1  UNL1       -0.0598
     22 C           2.7911   10.0280    0.0344 C.ar    1  UNL1       -0.0431
     23 C           1.7261    9.7398    0.8962 C.ar    1  UNL1        0.0448
     24 CL          0.9406   11.0606    1.6779 Cl      1  UNL1       -0.0832
     25 C           1.6202    0.5509    0.2650 C.ar    1  UNL1       -0.0552
     26 C           0.9646   -0.6842    0.2236 C.ar    1  UNL1       -0.0600
     27 C          -0.0376   -0.9758    1.1471 C.ar    1  UNL1       -0.0434
     28 H          -0.0081    1.9306    2.9178 H       1  UNL1        0.0636
     29 H           2.1172    3.1373    2.3522 H       1  UNL1        0.0775
     30 H           3.0335    2.7114    0.8977 H       1  UNL1        0.0775
     31 H          -0.6078    5.1538    0.3475 H       1  UNL1        0.0383
     32 H           0.2640    7.2515   -1.7404 H       1  UNL1        0.0498
     33 H           0.2483    5.5138   -1.9857 H       1  UNL1        0.0498
     34 H          -1.6298    8.4490   -2.6861 H       1  UNL1        0.0825
     35 H          -4.1799    7.6785   -3.4283 H       1  UNL1        0.0845
     36 H          -2.3171    4.4224   -1.5848 H       1  UNL1        0.1029
     37 H          -1.6648    6.7858    1.4772 H       1  UNL1        0.0275
     38 H          -1.3121    7.9545    0.2257 H       1  UNL1        0.0275
     39 H           0.4076    7.3407    2.6730 H       1  UNL1        0.0314
     40 H          -0.4549    8.8222    2.2939 H       1  UNL1        0.0314
     41 H           3.5629    6.8797   -1.0120 H       1  UNL1        0.0624
     42 H           4.2653    9.2461   -1.3336 H       1  UNL1        0.0618
     43 H           3.0919   11.0604   -0.1322 H       1  UNL1        0.0632
     44 H           2.4032    0.7596   -0.4625 H       1  UNL1        0.0621
     45 H           1.2382   -1.4175   -0.5308 H       1  UNL1        0.0618
     46 H          -0.5417   -1.9380    1.1130 H       1  UNL1        0.0632
@<TRIPOS>BOND
     1     2     1    1
     2     3     2   ar
     3     3    28    1
     4     4     3   ar
     5     5     4    1
     6     5    29    1
     7     5    30    1
     8     6     5    1
     9     7     6    1
    10     8     7    2
    11     9     8    1
    12     9    31    1
    13    10     9    1
    14    10    32    1
    15    10    33    1
    16    11    10    1
    17    12    11   ar
    18    12    34    1
    19    13    12   ar
    20    13    35    1
    21    14    13   ar
    22    15    14   ar
    23    15    11   ar
    24    15    36    1
    25    16     9    1
    26    16    37    1
    27    16    38    1
    28    17    16    1
    29    17    39    1
    30    17    40    1
    31    18    17    1
    32    19    18   ar
    33    19     8    1
    34    20    19   ar
    35    20    41    1
    36    21    20   ar
    37    21    42    1
    38    22    21   ar
    39    22    43    1
    40    23    22   ar
    41    23    18   ar
    42    24    23    1
    43    25     4   ar
    44    25    44    1
    45    26    25   ar
    46    26    45    1
    47    27    26   ar
    48    27     2   ar
    49    27    46    1
