@<TRIPOS>MOLECULE
>29.sdf
 38 40 0 0 0
SMALL
GASTEIGER

@<TRIPOS>ATOM
      1 O           5.2480   -0.5271   -1.4881 O.3     1  UNL1       -0.3910
      2 C           4.3104    0.4827   -1.1527 C.3     1  UNL1        0.0627
      3 C           4.8530    1.2901   -0.0211 C.2     1  UNL1       -0.0569
      4 C           4.2570    1.4200    1.1776 C.2     1  UNL1       -0.0380
      5 C           4.7935    2.2246    2.2903 C.ar    1  UNL1        0.0661
      6 N           5.9085    2.9394    2.0552 N.ar    1  UNL1       -0.2471
      7 C           6.4480    3.6335    3.0608 C.ar    1  UNL1        0.0762
      8 C           5.9079    3.6536    4.3744 C.ar    1  UNL1        0.0230
      9 C           6.6553    4.3354    5.3713 C.ar    1  UNL1       -0.0296
     10 C           7.8124    5.0470    5.0662 C.ar    1  UNL1        0.0768
     11 CL          8.6397    5.8982    6.3108 Cl      1  UNL1       -0.0806
     12 C           8.2744    5.0568    3.7628 C.ar    1  UNL1        0.1437
     13 F           9.3855    5.7310    3.4330 F       1  UNL1       -0.2039
     14 C           7.6041    4.3438    2.7777 C.ar    1  UNL1        0.0011
     15 C           4.6827    2.9555    4.6049 C.ar    1  UNL1        0.0412
     16 C           4.1567    2.2277    3.5248 C.ar    1  UNL1       -0.0146
     17 N           3.9975    2.9705    5.8141 N.pl3   1  UNL1       -0.3250
     18 C           3.2822    1.7929    6.3401 C.3     1  UNL1        0.0357
     19 C           1.8260    2.1606    6.6658 C.3     1  UNL1        0.0634
     20 O           1.7595    3.2654    7.5813 O.3     1  UNL1       -0.3767
     21 C           2.3767    4.4239    7.0019 C.3     1  UNL1        0.0634
     22 C           3.8519    4.1755    6.6518 C.3     1  UNL1        0.0357
     23 H           5.4098   -1.0436   -0.6807 H       1  UNL1        0.2098
     24 H           4.1604    1.1180   -2.0305 H       1  UNL1        0.0601
     25 H           3.3571    0.0033   -0.9093 H       1  UNL1        0.0601
     26 H           5.7905    1.8065   -0.2212 H       1  UNL1        0.0595
     27 H           3.3234    0.9001    1.3715 H       1  UNL1        0.0636
     28 H           6.3463    4.2957    6.4100 H       1  UNL1        0.0640
     29 H           8.0033    4.3412    1.7673 H       1  UNL1        0.0668
     30 H           3.2271    1.6807    3.6318 H       1  UNL1        0.0657
     31 H           3.7876    1.4834    7.2632 H       1  UNL1        0.0486
     32 H           3.3061    0.9310    5.6657 H       1  UNL1        0.0486
     33 H           1.2686    2.4174    5.7569 H       1  UNL1        0.0575
     34 H           1.3230    1.3116    7.1388 H       1  UNL1        0.0575
     35 H           2.3065    5.2377    7.7314 H       1  UNL1        0.0575
     36 H           1.8102    4.7231    6.1125 H       1  UNL1        0.0575
     37 H           4.4133    4.0133    7.5802 H       1  UNL1        0.0486
     38 H           4.2306    5.0779    6.1623 H       1  UNL1        0.0486
@<TRIPOS>BOND
     1     1    23    1
     2     2     1    1
     3     2    24    1
     4     2    25    1
     5     3     2    1
     6     3    26    1
     7     4     3    2
     8     4    27    1
     9     5     4    1
    10     6     5   ar
    11     7     6   ar
    12     8     7   ar
    13     9     8   ar
    14     9    28    1
    15    10     9   ar
    16    11    10    1
    17    12    10   ar
    18    13    12    1
    19    14    12   ar
    20    14     7   ar
    21    14    29    1
    22    15     8   ar
    23    16    15   ar
    24    16     5   ar
    25    16    30    1
    26    17    15    1
    27    18    17    1
    28    18    31    1
    29    18    32    1
    30    19    18    1
    31    19    33    1
    32    19    34    1
    33    20    19    1
    34    21    20    1
    35    21    35    1
    36    21    36    1
    37    22    21    1
    38    22    17    1
    39    22    37    1
    40    22    38    1
