@<TRIPOS>MOLECULE
>56.sdf
 36 38 0 0 0
SMALL
GASTEIGER

@<TRIPOS>ATOM
      1 C           4.2448    6.3772   -1.6753 C.3     1  UNL1        0.0788
      2 O           3.3079    6.0166   -0.6569 O.3     1  UNL1       -0.4951
      3 C           3.8053    5.2334    0.3494 C.ar    1  UNL1        0.1202
      4 C           5.1225    4.8228    0.3740 C.ar    1  UNL1       -0.0182
      5 C           5.6339    4.2100    1.5071 C.ar    1  UNL1       -0.0371
      6 C           4.8503    3.9597    2.6462 C.ar    1  UNL1        0.0315
      7 N           5.2895    3.0734    3.6589 N.pl3   1  UNL1       -0.3145
      8 C           4.9369    3.2122    5.0000 C.ar    1  UNL1        0.0321
      9 C           4.8710    2.0320    5.6911 C.ar    1  UNL1       -0.0385
     10 C           4.5018    2.0490    6.9527 C.ar    1  UNL1       -0.0338
     11 C           4.0715    3.1455    7.5370 C.ar    1  UNL1        0.0780
     12 N           3.7521    2.8756    8.7636 N.ar    1  UNL1       -0.2146
     13 C           3.4613    2.5686    9.9230 C.ar    1  UNL1        0.2148
     14 N           3.4790    1.2130    9.6503 N.pl3   1  UNL1       -0.3274
     15 N           3.5555    3.8944    9.8958 N.ar    1  UNL1       -0.1995
     16 C           3.9663    4.8701    8.6047 C.ar    1  UNL1        0.1291
     17 N           4.4168    6.0611    9.0792 N.pl3   1  UNL1       -0.3425
     18 C           4.2579    4.4089    7.2026 C.ar    1  UNL1        0.0418
     19 C           4.6675    4.4306    5.6943 C.ar    1  UNL1       -0.0281
     20 C           3.5414    4.4147    2.6332 C.ar    1  UNL1       -0.0371
     21 C           2.9973    4.9671    1.4615 C.ar    1  UNL1       -0.0182
     22 H           5.1506    6.8794   -1.3145 H       1  UNL1        0.0660
     23 H           4.5132    5.4819   -2.2407 H       1  UNL1        0.0660
     24 H           3.7570    7.0835   -2.3534 H       1  UNL1        0.0660
     25 H           5.7881    4.9713   -0.4629 H       1  UNL1        0.0655
     26 H           6.6845    3.9446    1.4723 H       1  UNL1        0.0637
     27 H           5.4973    2.1194    3.3830 H       1  UNL1        0.1522
     28 H           4.9553    1.0228    5.3349 H       1  UNL1        0.0637
     29 H           4.6782    1.1694    7.5090 H       1  UNL1        0.0639
     30 H           3.3312    0.3983   10.2030 H       1  UNL1        0.1452
     31 H           3.6536    0.9109    8.7116 H       1  UNL1        0.1452
     32 H           4.2874    5.4691    9.9397 H       1  UNL1        0.1437
     33 H           4.4639    6.8055    9.7370 H       1  UNL1        0.1437
     34 H           4.6719    5.3340    5.0775 H       1  UNL1        0.0644
     35 H           2.9625    4.3824    3.5512 H       1  UNL1        0.0637
     36 H           1.9296    5.1596    1.4252 H       1  UNL1        0.0655
@<TRIPOS>BOND
     1     1    22    1
     2     1    23    1
     3     1    24    1
     4     2     1    1
     5     3     2    1
     6     4     3   ar
     7     4    25    1
     8     5     4   ar
     9     5    26    1
    10     6     5   ar
    11     7     6    1
    12     7    27    1
    13     8     7    1
    14     9     8   ar
    15     9    28    1
    16    10     9   ar
    17    10    29    1
    18    11    10   ar
    19    12    11   ar
    20    13    12   ar
    21    14    13    1
    22    14    30    1
    23    14    31    1
    24    15    13   ar
    25    16    15   ar
    26    17    16    1
    27    17    32    1
    28    17    33    1
    29    18    16   ar
    30    18    11   ar
    31    19    18   ar
    32    19     8   ar
    33    19    34    1
    34    20     6   ar
    35    20    35    1
    36    21    20   ar
    37    21     3   ar
    38    21    36    1
