@<TRIPOS>MOLECULE
>210.sdf
 51 54 0 0 0
SMALL
GASTEIGER

@<TRIPOS>ATOM
      1 O           1.1014   -0.2857    0.0156 O.3     1  UNL1       -0.5065
      2 C           2.4646   -0.1950    0.0041 C.ar    1  UNL1        0.1238
      3 C           3.1976   -1.3627   -0.1098 C.ar    1  UNL1        0.0218
      4 C           4.5890   -1.2955   -0.1707 C.ar    1  UNL1        0.1271
      5 O           5.3349   -2.4353   -0.2566 O.3     1  UNL1       -0.5063
      6 C           5.2466   -0.0629   -0.1271 C.ar    1  UNL1        0.0395
      7 C           6.7477    0.0236   -0.2606 C.3     1  UNL1        0.0204
      8 C           7.1852    1.4732   -0.4666 C.3     1  UNL1        0.1483
      9 O           6.8626    1.9065   -1.8370 O.3     1  UNL1       -0.4534
     10 C           7.6104    1.4713   -2.8797 C.2     1  UNL1        0.3398
     11 O           8.5392    0.6811   -2.7936 O.2     1  UNL1       -0.2449
     12 C           7.2541    2.1755   -4.1524 C.ar    1  UNL1        0.0661
     13 C           7.9647    1.8495   -5.3363 C.ar    1  UNL1       -0.0023
     14 C           7.7821    2.6305   -6.4810 C.ar    1  UNL1        0.1628
     15 O           8.4896    2.4301   -7.6347 O.3     1  UNL1       -0.5032
     16 C           6.9088    3.7102   -6.4602 C.ar    1  UNL1        0.2006
     17 O           6.7857    4.5336   -7.5464 O.3     1  UNL1       -0.5009
     18 C           6.1971    4.0021   -5.3066 C.ar    1  UNL1        0.1628
     19 O           5.4192    5.1220   -5.2487 O.3     1  UNL1       -0.5032
     20 C           6.3334    3.2185   -4.1662 C.ar    1  UNL1       -0.0023
     21 C           6.3877    2.3074    0.5901 C.3     1  UNL1        0.1624
     22 O           5.0022    2.3455    0.2402 O.3     1  UNL1       -0.4800
     23 C           4.4731    1.0942    0.0678 C.ar    1  UNL1        0.1318
     24 C           3.0856    1.0405    0.0991 C.ar    1  UNL1        0.0221
     25 C           6.8407    3.7378    0.7959 C.ar    1  UNL1        0.0034
     26 C           7.1093    4.5348   -0.3130 C.ar    1  UNL1       -0.0095
     27 C           7.8386    5.6946   -0.1381 C.ar    1  UNL1        0.1623
     28 O           8.6234    6.1230   -1.1714 O.3     1  UNL1       -0.5032
     29 C           8.0347    6.2455    1.1139 C.ar    1  UNL1        0.2006
     30 O           8.7659    7.3889    1.2682 O.3     1  UNL1       -0.5009
     31 C           7.6171    5.5451    2.2297 C.ar    1  UNL1        0.1623
     32 O           7.8632    6.0530    3.4725 O.3     1  UNL1       -0.5032
     33 C           7.0781    4.2670    2.0855 C.ar    1  UNL1       -0.0095
     34 H           0.7293    0.6120    0.0054 H       1  UNL1        0.2921
     35 H           2.6760   -2.3131   -0.1586 H       1  UNL1        0.0691
     36 H           4.7361   -3.1999   -0.2163 H       1  UNL1        0.2921
     37 H           7.0837   -0.6086   -1.0883 H       1  UNL1        0.0353
     38 H           7.1961   -0.3575    0.6661 H       1  UNL1        0.0353
     39 H           8.2645    1.5887   -0.3168 H       1  UNL1        0.0778
     40 H           8.6677    1.0197   -5.3442 H       1  UNL1        0.0663
     41 H           9.2626    1.8741   -7.4335 H       1  UNL1        0.2923
     42 H           7.3702    4.1379   -8.2258 H       1  UNL1        0.2924
     43 H           5.6288    5.6156   -6.0677 H       1  UNL1        0.2923
     44 H           5.7552    3.4798   -3.2856 H       1  UNL1        0.0663
     45 H           6.4888    1.8124    1.5691 H       1  UNL1        0.0822
     46 H           2.5202    1.9571    0.2053 H       1  UNL1        0.0691
     47 H           6.8623    4.2047   -1.3136 H       1  UNL1        0.0659
     48 H           9.0780    5.2999   -1.4491 H       1  UNL1        0.2923
     49 H           9.1108    7.5744    0.3707 H       1  UNL1        0.2924
     50 H           8.2835    6.9239    3.3001 H       1  UNL1        0.2923
     51 H           6.8955    3.6756    2.9795 H       1  UNL1        0.0659
@<TRIPOS>BOND
     1     1    34    1
     2     2     1    1
     3     3     2   ar
     4     3    35    1
     5     4     3   ar
     6     5     4    1
     7     5    36    1
     8     6     4   ar
     9     7     6    1
    10     7    37    1
    11     7    38    1
    12     8     7    1
    13    10     9    1
    14    11    10    2
    15    12    10    1
    16    13    12   ar
    17    13    40    1
    18    14    13   ar
    19    15    14    1
    20    15    41    1
    21    16    14   ar
    22    17    16    1
    23    17    42    1
    24    18    16   ar
    25    19    18    1
    26    19    43    1
    27    20    18   ar
    28    20    12   ar
    29    20    44    1
    30    21     8    1
    31    21    45    1
    32    22    21    1
    33    23    22    1
    34    23     6   ar
    35    24    23   ar
    36    24     2   ar
    37    24    46    1
    38    25    21    1
    39    26    25   ar
    40    26    47    1
    41    27    26   ar
    42    28    27    1
    43    28    48    1
    44    29    27   ar
    45    30    29    1
    46    30    49    1
    47    31    29   ar
    48    32    31    1
    49    32    50    1
    50    33    31   ar
    51    33    25   ar
    52    33    51    1
    53     8     9    1
    54     8    39    1
