@<TRIPOS>MOLECULE
>127.sdf
 70 72 0 0 0
SMALL
GASTEIGER

@<TRIPOS>ATOM
      1 C           1.3246    1.6008    2.2499 C.3     1  UNL1       -0.0281
      2 C           2.3680    0.5316    1.9405 C.3     1  UNL1        0.0948
      3 C           1.6738   -0.8214    1.7616 C.3     1  UNL1       -0.0281
      4 O           2.9923    0.8784    0.6895 O.3     1  UNL1       -0.4852
      5 C           4.3016    1.3002    0.6992 C.ar    1  UNL1        0.1686
      6 C           5.0484    1.0371   -0.4705 C.ar    1  UNL1        0.1607
      7 N           4.5200    0.5004   -1.6741 N.pl3   1  UNL1       -0.2021
      8 C           3.3974    0.8014   -2.3747 C.cat   1  UNL1        0.2566
      9 N           2.5127    1.5075   -1.8348 N.2     1  UNL1       -0.4083
     10 C           3.1109    0.2898   -3.7598 C.ar    1  UNL1        0.1463
     11 C           4.0503   -0.3687   -4.5328 C.ar    1  UNL1       -0.0286
     12 C           3.6285   -0.8640   -5.7594 C.ar    1  UNL1       -0.0581
     13 C           2.3062   -0.6784   -6.1568 C.ar    1  UNL1       -0.0435
     14 C           1.4525    0.0284   -5.3215 C.ar    1  UNL1        0.0285
     15 N           1.8225    0.5377   -4.1236 N.ar    1  UNL1       -0.2477
     16 C           6.3973    1.4196   -0.5093 C.ar    1  UNL1       -0.0099
     17 C           6.9829    2.1084    0.5481 C.ar    1  UNL1       -0.0159
     18 C           6.2282    2.4483    1.6678 C.ar    1  UNL1        0.1242
     19 O           6.6892    3.2140    2.7129 O.3     1  UNL1       -0.4918
     20 C           7.9960    3.7841    2.5362 C.3     1  UNL1        0.0896
     21 C           8.3336    4.7344    3.6852 C.3     1  UNL1       -0.0186
     22 C           9.7494    5.3032    3.5203 C.3     1  UNL1       -0.0500
     23 C          10.1338    6.2460    4.6636 C.3     1  UNL1       -0.0530
     24 C          11.5547    6.7966    4.4886 C.3     1  UNL1       -0.0530
     25 C          11.9400    7.7357    5.6361 C.3     1  UNL1       -0.0514
     26 C          13.3579    8.2871    5.4636 C.3     1  UNL1       -0.0349
     27 C          13.7345    9.2270    6.6090 C.3     1  UNL1        0.0241
     28 N          15.0745    9.7591    6.4626 N.ar    1  UNL1       -0.3368
     29 C          16.2212    9.2149    6.9653 C.ar    1  UNL1        0.0240
     30 C          17.2204   10.0796    6.5835 C.ar    1  UNL1        0.0454
     31 N          16.7059   11.1300    5.8676 N.ar    1  UNL1       -0.2441
     32 C          15.4107   10.9140    5.8173 C.ar    1  UNL1        0.0959
     33 C           4.8942    2.0161    1.7526 C.ar    1  UNL1        0.0258
     34 H           0.5543    1.2353    2.9364 H       1  UNL1        0.0265
     35 H           1.7992    2.4744    2.7063 H       1  UNL1        0.0265
     36 H           0.8373    1.9496    1.3314 H       1  UNL1        0.0265
     37 H           3.0861    0.4259    2.7614 H       1  UNL1        0.0727
     38 H           0.8274   -0.7475    1.0693 H       1  UNL1        0.0265
     39 H           2.3609   -1.5669    1.3485 H       1  UNL1        0.0265
     40 H           1.2946   -1.1922    2.7207 H       1  UNL1        0.0265
     41 H           5.2489   -0.0085   -2.1709 H       1  UNL1        0.2984
     42 H           1.9434    1.9440   -2.5480 H       1  UNL1        0.2551
     43 H           5.0782   -0.5069   -4.2231 H       1  UNL1        0.0641
     44 H           4.3208   -1.4036   -6.4029 H       1  UNL1        0.0619
     45 H           1.9502   -1.0802   -7.1007 H       1  UNL1        0.0633
     46 H           0.4159    0.1946   -5.6068 H       1  UNL1        0.0830
     47 H           7.0087    1.2236   -1.3893 H       1  UNL1        0.0660
     48 H           8.0258    2.3894    0.4433 H       1  UNL1        0.0655
     49 H           8.7397    2.9782    2.5120 H       1  UNL1        0.0696
     50 H           8.0305    4.3539    1.5985 H       1  UNL1        0.0696
     51 H           7.5980    5.5474    3.7138 H       1  UNL1        0.0298
     52 H           8.2423    4.2033    4.6397 H       1  UNL1        0.0298
     53 H          10.4701    4.4773    3.4738 H       1  UNL1        0.0266
     54 H           9.8187    5.8407    2.5662 H       1  UNL1        0.0266
     55 H           9.4217    7.0786    4.7061 H       1  UNL1        0.0265
     56 H          10.0653    5.7097    5.6174 H       1  UNL1        0.0265
     57 H          12.2682    5.9648    4.4422 H       1  UNL1        0.0265
     58 H          11.6255    7.3353    3.5358 H       1  UNL1        0.0265
     59 H          11.2277    8.5682    5.6829 H       1  UNL1        0.0266
     60 H          11.8716    7.1970    6.5889 H       1  UNL1        0.0266
     61 H          14.0741    7.4571    5.4165 H       1  UNL1        0.0282
     62 H          13.4332    8.8209    4.5079 H       1  UNL1        0.0282
     63 H          13.0460   10.0786    6.6601 H       1  UNL1        0.0492
     64 H          13.6912    8.7069    7.5730 H       1  UNL1        0.0492
     65 H          16.2388    8.2949    7.5332 H       1  UNL1        0.0825
     66 H          18.2809   10.0036    6.7862 H       1  UNL1        0.0845
     67 H          14.6856   11.5540    5.3317 H       1  UNL1        0.1029
     68 H           4.3301    2.2845    2.6415 H       1  UNL1        0.0692
     69 H           2.8699    2.0555   -1.0800 H       1  UNL1        0.2551
     70 H           1.8875    0.8491   -1.3899 H       1  UNL1        0.2551
@<TRIPOS>UNITY_ATOM_ATTR
8 1
charge 1
@<TRIPOS>BOND
     1     1    34    1
     2     1    35    1
     3     1    36    1
     4     2     1    1
     5     2    37    1
     6     3     2    1
     7     3    38    1
     8     3    39    1
     9     3    40    1
    10     4     2    1
    11     5     4    1
    12     6     5   ar
    13     7     6    1
    14     7    41    1
    15     8     7    1
    16     9     8    2
    17     9    42    1
    18     9    69    1
    19    10     8    1
    20    11    10   ar
    21    11    43    1
    22    12    11   ar
    23    12    44    1
    24    13    12   ar
    25    13    45    1
    26    14    13   ar
    27    14    46    1
    28    15    14   ar
    29    15    10   ar
    30    16     6   ar
    31    16    47    1
    32    17    16   ar
    33    17    48    1
    34    18    17   ar
    35    19    18    1
    36    20    19    1
    37    20    49    1
    38    20    50    1
    39    21    20    1
    40    21    51    1
    41    21    52    1
    42    22    21    1
    43    22    53    1
    44    22    54    1
    45    23    22    1
    46    23    55    1
    47    23    56    1
    48    24    23    1
    49    24    57    1
    50    24    58    1
    51    25    24    1
    52    25    59    1
    53    25    60    1
    54    26    25    1
    55    26    61    1
    56    26    62    1
    57    27    26    1
    58    27    63    1
    59    27    64    1
    60    28    27    1
    61    29    28   ar
    62    29    65    1
    63    30    29   ar
    64    30    66    1
    65    31    30   ar
    66    32    31   ar
    67    32    28   ar
    68    32    67    1
    69    33    18   ar
    70    33     5   ar
    71    33    68    1
    72     9    70    1
