@<TRIPOS>MOLECULE
>55.sdf
 36 39 0 0 0
SMALL
GASTEIGER

@<TRIPOS>ATOM
      1 CL          2.4390   -1.6465   -0.1342 Cl      1  UNL1       -0.0820
      2 C           0.9911   -0.7067   -0.0833 C.ar    1  UNL1        0.0614
      3 C          -0.2291   -1.3809   -0.1621 C.ar    1  UNL1       -0.0144
      4 C          -1.4323   -0.6942   -0.1027 C.ar    1  UNL1        0.0914
      5 C          -1.4222    0.7033    0.0882 C.ar    1  UNL1        0.0914
      6 C          -0.2057    1.3747    0.1244 C.ar    1  UNL1       -0.0144
      7 C           1.0022    0.6825    0.0343 C.ar    1  UNL1        0.0614
      8 CL          2.4646    1.5996    0.0837 Cl      1  UNL1       -0.0820
      9 N          -2.5618    1.3891    0.2500 N.ar    1  UNL1       -0.2430
     10 C          -3.7438    0.7020    0.1976 C.ar    1  UNL1        0.0976
     11 C          -4.9222    1.5283    0.5550 C.ar    1  UNL1        0.0025
     12 C          -5.0017    2.8784    0.1615 C.ar    1  UNL1       -0.0525
     13 C          -6.1258    3.6601    0.4493 C.ar    1  UNL1       -0.0611
     14 C          -7.2025    3.1082    1.1341 C.ar    1  UNL1       -0.0617
     15 C          -7.1398    1.7873    1.5671 C.ar    1  UNL1       -0.0611
     16 C          -5.9979    1.0230    1.3110 C.ar    1  UNL1       -0.0525
     17 C          -3.7584   -0.6689   -0.1238 C.ar    1  UNL1        0.0976
     18 N          -2.5880   -1.3650   -0.2299 N.ar    1  UNL1       -0.2430
     19 C          -4.9638   -1.4895   -0.4056 C.ar    1  UNL1        0.0025
     20 C          -6.0865   -0.9771   -1.0856 C.ar    1  UNL1       -0.0525
     21 C          -7.2410   -1.7428   -1.2784 C.ar    1  UNL1       -0.0611
     22 C          -7.2760   -3.0662   -0.8512 C.ar    1  UNL1       -0.0617
     23 C          -6.1609   -3.6203   -0.2337 C.ar    1  UNL1       -0.0611
     24 C          -5.0214   -2.8400   -0.0111 C.ar    1  UNL1       -0.0525
     25 H          -0.2498   -2.4626   -0.2677 H       1  UNL1        0.0654
     26 H          -0.2109    2.4579    0.2296 H       1  UNL1        0.0654
     27 H          -4.1762    3.3341   -0.3837 H       1  UNL1        0.0624
     28 H          -6.1576    4.7010    0.1350 H       1  UNL1        0.0618
     29 H          -8.0861    3.7058    1.3405 H       1  UNL1        0.0618
     30 H          -7.9741    1.3480    2.1070 H       1  UNL1        0.0618
     31 H          -5.9779    0.0012    1.6905 H       1  UNL1        0.0624
     32 H          -6.0906    0.0458   -1.4614 H       1  UNL1        0.0624
     33 H          -8.1076   -1.3009   -1.7614 H       1  UNL1        0.0618
     34 H          -8.1710   -3.6634   -1.0053 H       1  UNL1        0.0618
     35 H          -6.1734   -4.6618    0.0786 H       1  UNL1        0.0618
     36 H          -4.1647   -3.2973    0.4801 H       1  UNL1        0.0624
@<TRIPOS>BOND
     1     2     1    1
     2     3     2   ar
     3     3    25    1
     4     4     3   ar
     5     5     4   ar
     6     6     5   ar
     7     6    26    1
     8     7     6   ar
     9     7     2   ar
    10     8     7    1
    11     9     5   ar
    12    10     9   ar
    13    11    10    1
    14    12    11   ar
    15    12    27    1
    16    13    12   ar
    17    13    28    1
    18    14    13   ar
    19    14    29    1
    20    15    14   ar
    21    15    30    1
    22    16    15   ar
    23    16    11   ar
    24    16    31    1
    25    17    10   ar
    26    18    17   ar
    27    18     4   ar
    28    19    17    1
    29    20    19   ar
    30    20    32    1
    31    21    20   ar
    32    21    33    1
    33    22    21   ar
    34    22    34    1
    35    23    22   ar
    36    23    35    1
    37    24    23   ar
    38    24    19   ar
    39    24    36    1
