@<TRIPOS>MOLECULE
>66.sdf
 39 41 0 0 0
SMALL
GASTEIGER

@<TRIPOS>ATOM
      1 C           1.0742    0.3726    0.2552 C.3     1  UNL1        0.0790
      2 O           2.4003    0.0007   -0.1081 O.3     1  UNL1       -0.4913
      3 C           3.0181    0.7509   -1.0774 C.ar    1  UNL1        0.1658
      4 C           2.6391    2.0730   -1.3460 C.ar    1  UNL1       -0.0053
      5 C           3.3329    2.8629   -2.2701 C.ar    1  UNL1        0.0271
      6 C           4.4138    2.3025   -2.9573 C.ar    1  UNL1       -0.0053
      7 C           4.8314    0.9980   -2.6820 C.ar    1  UNL1        0.1658
      8 O           5.9032    0.4145   -3.3201 O.3     1  UNL1       -0.4913
      9 C           6.9574    1.2996   -3.6864 C.3     1  UNL1        0.0790
     10 C           4.1279    0.2049   -1.7497 C.ar    1  UNL1        0.2035
     11 O           4.6708   -1.0397   -1.5310 O.3     1  UNL1       -0.4885
     12 C           3.7841   -2.0832   -1.1552 C.3     1  UNL1        0.0791
     13 C           2.9958    4.2664   -2.4488 C.ar    1  UNL1        0.1681
     14 C           3.6834    5.3672   -2.9034 C.ar    1  UNL1        0.0161
     15 C           2.7928    6.4408   -2.7053 C.ar    1  UNL1        0.1489
     16 N           1.6231    6.0314   -2.2038 N.ar    1  UNL1       -0.0745
     17 O           1.7519    4.6603   -2.0493 O.2     1  UNL1       -0.3540
     18 C           3.1027    7.8626   -2.9980 C.ar    1  UNL1        0.1592
     19 C           2.2798    8.9516   -2.7651 C.ar    1  UNL1       -0.0118
     20 C           2.9764   10.1015   -3.2168 C.ar    1  UNL1        0.0086
     21 C           4.1789    9.6335   -3.6908 C.ar    1  UNL1        0.2803
     22 O           4.2799    8.2861   -3.5562 O.2     1  UNL1       -0.4323
     23 N           5.2898   10.2937   -4.2947 N.pl3   1  UNL1        0.0926
     24 O           5.1663   11.5117   -4.4846 O.2     1  UNL1       -0.1231
     25 O           6.2816    9.6118   -4.5840 O.2     1  UNL1       -0.1231
     26 H           1.0586    1.3248    0.7937 H       1  UNL1        0.0660
     27 H           0.4196    0.4006   -0.6219 H       1  UNL1        0.0660
     28 H           0.6900   -0.3903    0.9384 H       1  UNL1        0.0660
     29 H           1.8233    2.5325   -0.7955 H       1  UNL1        0.0662
     30 H           4.9290    2.8934   -3.7079 H       1  UNL1        0.0662
     31 H           6.7032    1.8467   -4.5995 H       1  UNL1        0.0660
     32 H           7.2084    1.9898   -2.8736 H       1  UNL1        0.0660
     33 H           7.8448    0.6958   -3.8976 H       1  UNL1        0.0660
     34 H           3.5916   -2.0614   -0.0787 H       1  UNL1        0.0660
     35 H           2.8544   -2.0633   -1.7338 H       1  UNL1        0.0660
     36 H           4.2845   -3.0332   -1.3678 H       1  UNL1        0.0660
     37 H           4.6970    5.4056   -3.2687 H       1  UNL1        0.0679
     38 H           1.2919    8.9113   -2.3241 H       1  UNL1        0.0657
     39 H           2.6446   11.1305   -3.2032 H       1  UNL1        0.0673
@<TRIPOS>BOND
     1     1    26    1
     2     1    27    1
     3     1    28    1
     4     2     1    1
     5     3     2    1
     6     4     3   ar
     7     4    29    1
     8     5     4   ar
     9     6     5   ar
    10     6    30    1
    11     7     6   ar
    12     8     7    1
    13     9     8    1
    14     9    31    1
    15     9    32    1
    16     9    33    1
    17    10     7   ar
    18    10     3   ar
    19    11    10    1
    20    12    11    1
    21    12    34    1
    22    12    35    1
    23    12    36    1
    24    13     5    1
    25    14    13   ar
    26    14    37    1
    27    15    14   ar
    28    16    15   ar
    29    17    16   ar
    30    17    13   ar
    31    18    15    1
    32    19    18   ar
    33    19    38    1
    34    20    19   ar
    35    20    39    1
    36    21    20   ar
    37    22    21   ar
    38    22    18   ar
    39    23    21    1
    40    24    23    2
    41    25    23    2
