@<TRIPOS>MOLECULE
>159.sdf
 69 70 0 0 0
SMALL
GASTEIGER

@<TRIPOS>ATOM
      1 C           1.7346    2.0267   -1.0262 C.3     1  UNL1       -0.0653
      2 C           2.8414    1.1137   -0.5248 C.3     1  UNL1       -0.0559
      3 C           3.3321    0.2142   -1.6579 C.3     1  UNL1       -0.0527
      4 C           4.4399   -0.7272   -1.1949 C.3     1  UNL1       -0.0453
      5 C           5.0468   -1.6293   -2.3179 C.3     1  UNL1       -0.0051
      6 C           5.6374   -0.7715   -3.4810 C.3     1  UNL1       -0.0453
      7 C           6.7542    0.1922   -3.0512 C.3     1  UNL1       -0.0527
      8 C           7.2687    1.0490   -4.2040 C.3     1  UNL1       -0.0559
      9 C           8.3786    1.9703   -3.7181 C.3     1  UNL1       -0.0653
     10 C           4.0220   -2.6251   -2.8920 C.3     1  UNL1        0.0566
     11 O           3.5364   -3.5114   -1.8869 O.3     1  UNL1       -0.3479
     12 C           4.5144   -4.3798   -1.3035 C.3     1  UNL1        0.1744
     13 C           3.7513   -5.1794   -0.2353 C.3     1  UNL1       -0.0101
     14 O           5.1359   -5.2494   -2.2537 O.3     1  UNL1       -0.3516
     15 C           4.2546   -6.1629   -2.9028 C.3     1  UNL1        0.0397
     16 C           5.6498   -3.5251   -0.6717 C.3     1  UNL1        0.0533
     17 C           6.8371   -4.3542   -0.1547 C.3     1  UNL1       -0.0258
     18 N           7.8288   -3.4096    0.4943 N.4     1  UNL1        0.2274
     19 C           9.0911   -4.0046    1.0059 C.3     1  UNL1       -0.0320
     20 C           9.9559   -2.8651    1.5262 C.3     1  UNL1        0.0054
     21 C          11.2701   -3.3934    2.0933 C.3     1  UNL1        0.0290
     22 N          12.0962   -2.3169    2.5970 N.ar    1  UNL1       -0.3366
     23 C          13.0464   -1.6320    1.8988 C.ar    1  UNL1        0.0240
     24 C          13.5342   -0.7099    2.7890 C.ar    1  UNL1        0.0454
     25 N          12.8993   -0.8167    3.9986 N.ar    1  UNL1       -0.2441
     26 C          12.0498   -1.8063    3.8620 C.ar    1  UNL1        0.0959
     27 C           6.1623   -2.4841   -1.6953 C.3     1  UNL1       -0.0327
     28 H           1.3794    2.6765   -0.2231 H       1  UNL1        0.0230
     29 H           2.0926    2.6566   -1.8468 H       1  UNL1        0.0230
     30 H           0.8866    1.4383   -1.3942 H       1  UNL1        0.0230
     31 H           3.6691    1.7216   -0.1404 H       1  UNL1        0.0263
     32 H           2.4682    0.5060    0.3075 H       1  UNL1        0.0263
     33 H           2.4886   -0.3717   -2.0389 H       1  UNL1        0.0265
     34 H           3.6864    0.8529   -2.4731 H       1  UNL1        0.0265
     35 H           5.2402   -0.1334   -0.7328 H       1  UNL1        0.0271
     36 H           4.0364   -1.3393   -0.3816 H       1  UNL1        0.0271
     37 H           6.0349   -1.4390   -4.2570 H       1  UNL1        0.0271
     38 H           4.8354   -0.2039   -3.9672 H       1  UNL1        0.0271
     39 H           6.3994    0.8596   -2.2600 H       1  UNL1        0.0265
     40 H           7.5990   -0.3745   -2.6443 H       1  UNL1        0.0265
     41 H           7.6514    0.4099   -5.0073 H       1  UNL1        0.0263
     42 H           6.4524    1.6502   -4.6188 H       1  UNL1        0.0263
     43 H           8.0138    2.6404   -2.9314 H       1  UNL1        0.0230
     44 H           9.2148    1.3927   -3.3079 H       1  UNL1        0.0230
     45 H           8.7573    2.5826   -4.5399 H       1  UNL1        0.0230
     46 H           3.1606   -2.1017   -3.3164 H       1  UNL1        0.0566
     47 H           4.4568   -3.2146   -3.7079 H       1  UNL1        0.0566
     48 H           2.7793   -5.5066   -0.6296 H       1  UNL1        0.0281
     49 H           4.2910   -6.0748    0.0848 H       1  UNL1        0.0281
     50 H           3.5193   -4.5620    0.6391 H       1  UNL1        0.0281
     51 H           3.9265   -6.9435   -2.2100 H       1  UNL1        0.0525
     52 H           3.3917   -5.6500   -3.3353 H       1  UNL1        0.0525
     53 H           4.8102   -6.6488   -3.7094 H       1  UNL1        0.0525
     54 H           5.2310   -2.9797    0.1832 H       1  UNL1        0.0405
     55 H           6.5396   -5.0713    0.6155 H       1  UNL1        0.0818
     56 H           7.3733   -4.8657   -0.9599 H       1  UNL1        0.0818
     57 H           8.1153   -2.7063   -0.1962 H       1  UNL1        0.2013
     58 H           7.3515   -2.8893    1.2451 H       1  UNL1        0.2013
     59 H           8.8258   -4.7154    1.7968 H       1  UNL1        0.0814
     60 H           9.5723   -4.5219    0.1703 H       1  UNL1        0.0814
     61 H          10.1647   -2.1497    0.7137 H       1  UNL1        0.0334
     62 H           9.4137   -2.2984    2.2933 H       1  UNL1        0.0334
     63 H          11.0810   -4.0845    2.9192 H       1  UNL1        0.0494
     64 H          11.8409   -3.9243    1.3273 H       1  UNL1        0.0494
     65 H          13.2991   -1.8473    0.8664 H       1  UNL1        0.0825
     66 H          14.3117    0.0334    2.6271 H       1  UNL1        0.0845
     67 H          11.3890   -2.1744    4.6335 H       1  UNL1        0.1029
     68 H           6.7172   -3.0056   -2.4881 H       1  UNL1        0.0277
     69 H           6.8656   -1.8025   -1.2136 H       1  UNL1        0.0277
@<TRIPOS>UNITY_ATOM_ATTR
18 1
charge 1
@<TRIPOS>BOND
     1     1    28    1
     2     1    29    1
     3     1    30    1
     4     2     1    1
     5     2    31    1
     6     2    32    1
     7     3     2    1
     8     3    33    1
     9     3    34    1
    10     4     3    1
    11     4    35    1
    12     4    36    1
    13     5     4    1
    14     6     5    1
    15     6    37    1
    16     6    38    1
    17     7     6    1
    18     7    39    1
    19     7    40    1
    20     8     7    1
    21     8    41    1
    22     8    42    1
    23     9     8    1
    24     9    43    1
    25     9    44    1
    26     9    45    1
    27    10     5    1
    28    10    46    1
    29    10    47    1
    30    11    10    1
    31    12    11    1
    32    12    13    1
    33    13    48    1
    34    13    49    1
    35    13    50    1
    36    14    12    1
    37    15    14    1
    38    15    51    1
    39    15    52    1
    40    15    53    1
    41    16    12    1
    42    16    54    1
    43    17    16    1
    44    17    55    1
    45    17    56    1
    46    18    17    1
    47    18    57    1
    48    18    58    1
    49    19    18    1
    50    19    59    1
    51    19    60    1
    52    20    19    1
    53    20    61    1
    54    20    62    1
    55    21    20    1
    56    21    63    1
    57    21    64    1
    58    22    21    1
    59    23    22   ar
    60    23    65    1
    61    24    23   ar
    62    24    66    1
    63    25    24   ar
    64    26    25   ar
    65    26    22   ar
    66    26    67    1
    67    27    16    1
    68    27     5    1
    69    27    68    1
    70    27    69    1
