@<TRIPOS>MOLECULE
>25.sdf
 37 39 0 0 0
SMALL
GASTEIGER

@<TRIPOS>ATOM
      1 C           2.5624   -0.0503   -0.1666 C.3     1  UNL1       -0.0397
      2 C           1.1526    0.4490   -0.2528 C.ar    1  UNL1       -0.0503
      3 C           0.8653    1.7902    0.0162 C.ar    1  UNL1       -0.0569
      4 C          -0.4398    2.2522   -0.0843 C.ar    1  UNL1       -0.0332
      5 C          -1.4624    1.3717   -0.4585 C.ar    1  UNL1        0.1281
      6 C          -1.1918    0.0337   -0.7405 C.ar    1  UNL1       -0.0332
      7 C           0.1197   -0.4250   -0.6293 C.ar    1  UNL1       -0.0569
      8 S          -3.0018    2.0708   -0.9626 S.O2    1  UNL1        0.1510
      9 O          -2.9062    3.4884   -0.6556 O.2     1  UNL1       -0.1314
     10 O          -3.1744    1.6008   -2.3308 O.2     1  UNL1       -0.1314
     11 O          -4.2121    1.4573   -0.0732 O.3     1  UNL1       -0.3391
     12 C          -5.5710    1.8510   -0.1090 C.ar    1  UNL1        0.2013
     13 C          -6.4375    1.3148    0.7833 C.ar    1  UNL1        0.2348
     14 C          -7.8828    1.6195    0.8467 C.ar    1  UNL1        0.2833
     15 O          -8.6584    1.1562    1.6714 O.2     1  UNL1       -0.2653
     16 N          -8.3349    2.4997   -0.0887 N.ar    1  UNL1       -0.3200
     17 C          -7.5186    3.1513   -1.0137 C.ar    1  UNL1        0.0529
     18 C          -6.1384    2.8583   -1.0890 C.ar    1  UNL1        0.0454
     19 C          -5.4608    3.5837   -2.0824 C.ar    1  UNL1       -0.0490
     20 C          -6.0548    4.5683   -2.8812 C.ar    1  UNL1       -0.0610
     21 C          -7.3970    4.8383   -2.7534 C.ar    1  UNL1       -0.0598
     22 C          -8.1364    4.1144   -1.8292 C.ar    1  UNL1       -0.0376
     23 N          -5.9439    0.4047    1.7928 N.pl3   1  UNL1        0.0656
     24 O          -4.9403    0.7490    2.4357 O.2     1  UNL1       -0.1258
     25 O          -6.5415   -0.6691    1.9490 O.2     1  UNL1       -0.1258
     26 H           2.6251   -0.8521    0.5744 H       1  UNL1        0.0278
     27 H           2.8920   -0.4226   -1.1409 H       1  UNL1        0.0278
     28 H           3.2488    0.7465    0.1400 H       1  UNL1        0.0278
     29 H           1.6576    2.4926    0.2664 H       1  UNL1        0.0621
     30 H          -0.6320    3.3144    0.0573 H       1  UNL1        0.0638
     31 H          -1.9685   -0.6302   -1.1128 H       1  UNL1        0.0638
     32 H           0.3456   -1.4599   -0.8786 H       1  UNL1        0.0621
     33 H          -9.3259    2.7110   -0.0479 H       1  UNL1        0.1690
     34 H          -4.4222    3.4773   -2.3334 H       1  UNL1        0.0625
     35 H          -5.4367    5.1131   -3.5929 H       1  UNL1        0.0618
     36 H          -7.8544    5.6071   -3.3689 H       1  UNL1        0.0618
     37 H          -9.1990    4.3199   -1.7459 H       1  UNL1        0.0638
@<TRIPOS>BOND
     1     1    26    1
     2     1    27    1
     3     1    28    1
     4     2     1    1
     5     3     2   ar
     6     3    29    1
     7     4     3   ar
     8     4    30    1
     9     5     4   ar
    10     6     5   ar
    11     6    31    1
    12     7     6   ar
    13     7     2   ar
    14     7    32    1
    15     8     5    1
    16     9     8    2
    17    10     8    2
    18    11     8    1
    19    12    11    1
    20    13    12   ar
    21    14    13   ar
    22    15    14    2
    23    16    14   ar
    24    16    33    1
    25    17    16   ar
    26    18    17   ar
    27    18    12   ar
    28    19    18   ar
    29    19    34    1
    30    20    19   ar
    31    20    35    1
    32    21    20   ar
    33    21    36    1
    34    22    21   ar
    35    22    17   ar
    36    22    37    1
    37    23    13    1
    38    24    23    2
    39    25    23    2
