@<TRIPOS>MOLECULE
>212.sdf
 50 53 0 0 0
SMALL
GASTEIGER

@<TRIPOS>ATOM
      1 C          -1.4947    0.9006    1.9740 C.3     1  UNL1        0.0154
      2 N          -1.3998    0.5815    0.5664 N.ar    1  UNL1       -0.3066
      3 C          -1.9818   -0.4815   -0.0837 C.ar    1  UNL1        0.2157
      4 C          -1.6715   -0.3442   -1.4093 C.ar    1  UNL1        0.0774
      5 N          -0.9279    0.7856   -1.6068 N.ar    1  UNL1       -0.2315
      6 C          -0.7504    1.3217   -0.4095 C.ar    1  UNL1        0.1695
      7 C           0.0128    2.5048   -0.1965 C.ar    1  UNL1        0.1689
      8 N           0.6870    2.7477    0.9022 N.ar    1  UNL1       -0.1365
      9 N           1.3024    3.9675    0.8660 N.ar    1  UNL1       -0.1254
     10 C           1.0872    4.6386   -0.2515 C.ar    1  UNL1        0.1845
     11 S           0.1220    3.7455   -1.3711 S.2     1  UNL1       -0.0276
     12 N           1.5613    5.9086   -0.4626 N.pl3   1  UNL1       -0.3078
     13 C           2.5992    6.3539    0.4604 C.3     1  UNL1        0.0191
     14 C           2.4515    7.8426    0.6963 C.3     1  UNL1        0.0062
     15 C           2.3779    8.6651   -0.5894 C.3     1  UNL1       -0.0180
     16 C           1.3838    8.0763   -1.5944 C.3     1  UNL1        0.0062
     17 C           1.4496    6.5581   -1.7598 C.3     1  UNL1        0.0191
     18 N           3.7457    9.0047   -1.2233 N.4     1  UNL1        0.2375
     19 C           4.6248    9.7934   -0.2601 C.3     1  UNL1       -0.0316
     20 C           5.9063   10.2461   -0.9405 C.3     1  UNL1       -0.0123
     21 C           6.6604    9.0615   -1.5236 C.3     1  UNL1       -0.0434
     22 C           5.7833    8.3482   -2.5363 C.3     1  UNL1       -0.0123
     23 C           4.4835    7.8771   -1.9068 C.3     1  UNL1       -0.0316
     24 N          -2.7582   -1.5085    0.5198 N.pl3   1  UNL1        0.0750
     25 O          -2.9192   -1.4658    1.7425 O.2     1  UNL1       -0.1246
     26 O          -3.2141   -2.3686   -0.2413 O.2     1  UNL1       -0.1246
     27 H          -2.5516    0.9775    2.2438 H       1  UNL1        0.0457
     28 H          -0.9916    0.1148    2.5430 H       1  UNL1        0.0457
     29 H          -1.0321    1.8585    2.2034 H       1  UNL1        0.0457
     30 H          -1.9467   -0.9896   -2.2379 H       1  UNL1        0.0869
     31 H           3.5864    6.0803    0.0837 H       1  UNL1        0.0466
     32 H           2.5236    5.8718    1.4430 H       1  UNL1        0.0466
     33 H           3.2187    8.1938    1.3895 H       1  UNL1        0.0335
     34 H           1.4992    7.9874    1.2279 H       1  UNL1        0.0335
     35 H           1.9878    9.6546   -0.3145 H       1  UNL1        0.0852
     36 H           0.3767    8.3036   -1.2138 H       1  UNL1        0.0335
     37 H           1.4535    8.5748   -2.5677 H       1  UNL1        0.0335
     38 H           0.5342    6.2701   -2.2894 H       1  UNL1        0.0466
     39 H           2.2765    6.2492   -2.4042 H       1  UNL1        0.0466
     40 H           3.5217    9.6723   -1.9753 H       1  UNL1        0.2036
     41 H           4.8610    9.1470    0.5887 H       1  UNL1        0.0814
     42 H           4.0427   10.6568    0.0786 H       1  UNL1        0.0814
     43 H           6.5414   10.7601   -0.2108 H       1  UNL1        0.0317
     44 H           5.6759   10.9673   -1.7334 H       1  UNL1        0.0317
     45 H           7.5864    9.3973   -2.0005 H       1  UNL1        0.0269
     46 H           6.9423    8.3665   -0.7219 H       1  UNL1        0.0269
     47 H           5.5691    9.0130   -3.3814 H       1  UNL1        0.0317
     48 H           6.3176    7.4804   -2.9404 H       1  UNL1        0.0317
     49 H           3.8408    7.4963   -2.6996 H       1  UNL1        0.0814
     50 H           4.6942    7.1087   -1.1671 H       1  UNL1        0.0814
@<TRIPOS>UNITY_ATOM_ATTR
18 1
charge 1
@<TRIPOS>BOND
     1     1    27    1
     2     1    28    1
     3     1    29    1
     4     2     1    1
     5     3     2   ar
     6     4     3   ar
     7     4    30    1
     8     5     4   ar
     9     6     5   ar
    10     6     2   ar
    11     7     6    1
    12     8     7   ar
    13     9     8   ar
    14    10     9   ar
    15    11    10   ar
    16    11     7   ar
    17    12    10    1
    18    13    12    1
    19    13    31    1
    20    13    32    1
    21    14    13    1
    22    14    33    1
    23    14    34    1
    24    15    14    1
    25    15    35    1
    26    16    15    1
    27    16    36    1
    28    16    37    1
    29    17    16    1
    30    17    12    1
    31    17    38    1
    32    17    39    1
    33    18    15    1
    34    18    40    1
    35    19    18    1
    36    19    41    1
    37    19    42    1
    38    20    19    1
    39    20    43    1
    40    20    44    1
    41    21    20    1
    42    21    45    1
    43    21    46    1
    44    22    21    1
    45    22    47    1
    46    22    48    1
    47    23    22    1
    48    23    18    1
    49    23    49    1
    50    23    50    1
    51    24     3    1
    52    25    24    2
    53    26    24    2
