@<TRIPOS>MOLECULE
>33.sdf
 52 56 0 0 0
SMALL
GASTEIGER

@<TRIPOS>ATOM
      1 CL         -3.1338   -0.0703    0.1275 Cl      1  UNL1       -0.0835
      2 C          -1.4543   -0.4370    0.1014 C.ar    1  UNL1        0.0417
      3 C          -0.5197    0.5919    0.1151 C.ar    1  UNL1       -0.0336
      4 C           0.8820    0.3541   -0.0070 C.ar    1  UNL1        0.0102
      5 C           1.3105   -0.9918   -0.0149 C.ar    1  UNL1        0.0717
      6 C           0.3531   -2.0066    0.0122 C.ar    1  UNL1       -0.0343
      7 C          -1.0217   -1.7455    0.0449 C.ar    1  UNL1       -0.0413
      8 N           2.6081   -1.3362   -0.0565 N.ar    1  UNL1       -0.2541
      9 C           3.5395   -0.3539   -0.1266 C.ar    1  UNL1        0.0428
     10 C           3.2429    0.9987   -0.1866 C.ar    1  UNL1        0.0853
     11 C           4.3560    1.9673   -0.3896 C.2     1  UNL1        0.3416
     12 O           4.2226    2.9733   -1.0714 O.2     1  UNL1       -0.2449
     13 O           5.4610    1.6370    0.3209 O.3     1  UNL1       -0.4547
     14 C           6.5109    2.6442    0.3704 C.3     1  UNL1        0.1378
     15 C           7.1362    2.9794   -0.9410 C.ar    1  UNL1        0.1200
     16 C           6.8581    4.0114   -1.8163 C.ar    1  UNL1        0.0524
     17 N           7.5677    3.6898   -2.9363 N.ar    1  UNL1       -0.2470
     18 C           7.5118    4.2912   -4.2623 C.3     1  UNL1        0.0682
     19 C           6.1286    4.3648   -4.8812 C.ar    1  UNL1       -0.0261
     20 C           5.8820    5.3388   -5.8652 C.ar    1  UNL1       -0.0568
     21 C           4.6161    5.4747   -6.4416 C.ar    1  UNL1       -0.0614
     22 C           3.5800    4.6296   -6.0551 C.ar    1  UNL1       -0.0617
     23 C           3.8206    3.6230   -5.1242 C.ar    1  UNL1       -0.0614
     24 C           5.0901    3.4775   -4.5571 C.ar    1  UNL1       -0.0568
     25 N           8.4070    2.6646   -2.6904 N.ar    1  UNL1       -0.0650
     26 N           8.1312    2.2038   -1.4767 N.ar    1  UNL1       -0.1310
     27 C           1.8819    1.3862   -0.1267 C.ar    1  UNL1        0.0068
     28 C           1.4627    2.8140   -0.1703 C.ar    1  UNL1       -0.0164
     29 C           0.4533    3.2465   -1.0537 C.ar    1  UNL1       -0.0540
     30 C          -0.0911    4.5282   -0.9604 C.ar    1  UNL1       -0.0612
     31 C           0.4534    5.4460   -0.0712 C.ar    1  UNL1       -0.0617
     32 C           1.5272    5.0783    0.7340 C.ar    1  UNL1       -0.0612
     33 C           2.0019    3.7649    0.7110 C.ar    1  UNL1       -0.0540
     34 H          -0.9056    1.6033    0.2123 H       1  UNL1        0.0639
     35 H           0.6886   -3.0408   -0.0064 H       1  UNL1        0.0639
     36 H          -1.7346   -2.5643    0.0347 H       1  UNL1        0.0633
     37 H           4.5655   -0.7161   -0.1661 H       1  UNL1        0.0838
     38 H           6.1168    3.5410    0.8646 H       1  UNL1        0.0765
     39 H           7.2854    2.2440    1.0334 H       1  UNL1        0.0765
     40 H           6.1406    4.8201   -1.7873 H       1  UNL1        0.0846
     41 H           7.9272    5.2993   -4.1459 H       1  UNL1        0.0559
     42 H           8.1698    3.7144   -4.9219 H       1  UNL1        0.0559
     43 H           6.6759    6.0095   -6.1882 H       1  UNL1        0.0621
     44 H           4.4367    6.2451   -7.1874 H       1  UNL1        0.0618
     45 H           2.5877    4.7506   -6.4816 H       1  UNL1        0.0618
     46 H           3.0177    2.9525   -4.8278 H       1  UNL1        0.0618
     47 H           5.2396    2.6727   -3.8391 H       1  UNL1        0.0621
     48 H           0.0282    2.5594   -1.7837 H       1  UNL1        0.0624
     49 H          -0.9449    4.7990   -1.5757 H       1  UNL1        0.0618
     50 H           0.0442    6.4505   -0.0083 H       1  UNL1        0.0618
     51 H           1.9868    5.8067    1.3959 H       1  UNL1        0.0618
     52 H           2.8092    3.4984    1.3885 H       1  UNL1        0.0624
@<TRIPOS>BOND
     1     2     1    1
     2     3     2   ar
     3     3    34    1
     4     4     3   ar
     5     5     4   ar
     6     6     5   ar
     7     6    35    1
     8     7     6   ar
     9     7     2   ar
    10     7    36    1
    11     8     5   ar
    12     9     8   ar
    13     9    37    1
    14    10     9   ar
    15    11    10    1
    16    12    11    2
    17    13    11    1
    18    14    13    1
    19    14    38    1
    20    14    39    1
    21    15    14    1
    22    16    15   ar
    23    16    40    1
    24    17    16   ar
    25    18    17    1
    26    18    41    1
    27    18    42    1
    28    19    18    1
    29    20    19   ar
    30    20    43    1
    31    21    20   ar
    32    21    44    1
    33    22    21   ar
    34    22    45    1
    35    23    22   ar
    36    23    46    1
    37    24    23   ar
    38    24    19   ar
    39    24    47    1
    40    25    17   ar
    41    26    25   ar
    42    26    15   ar
    43    27    10   ar
    44    27     4   ar
    45    28    27    1
    46    29    28   ar
    47    29    48    1
    48    30    29   ar
    49    30    49    1
    50    31    30   ar
    51    31    50    1
    52    32    31   ar
    53    32    51    1
    54    33    32   ar
    55    33    28   ar
    56    33    52    1
