@<TRIPOS>MOLECULE
>216.sdf
 42 41 0 0 0
SMALL
GASTEIGER

@<TRIPOS>ATOM
      1 C           8.8498    8.5667    1.4952 C.3     1  UNL1       -0.0440
      2 C           8.5531    7.3215    0.7079 C.2     1  UNL1       -0.0796
      3 C           7.2889    7.3552   -0.1095 C.3     1  UNL1       -0.0440
      4 C           9.3655    6.2482    0.7639 C.2     1  UNL1       -0.0850
      5 C           9.0990    4.9231    0.0963 C.3     1  UNL1       -0.0308
      6 C          10.1804    4.4883   -0.9013 C.3     1  UNL1       -0.0286
      7 C           9.8726    3.2088   -1.6710 C.2     1  UNL1       -0.0762
      8 C           8.5849    2.4604   -1.4135 C.3     1  UNL1       -0.0438
      9 C          10.7227    2.7846   -2.6362 C.2     1  UNL1       -0.0849
     10 C          10.4405    1.6094   -3.5380 C.3     1  UNL1       -0.0316
     11 C          11.6575    0.7424   -3.8904 C.3     1  UNL1       -0.0172
     12 C          11.2438   -0.4974   -4.7244 C.3     1  UNL1        0.0814
     13 C          12.4691   -1.3078   -5.1527 C.3     1  UNL1       -0.0324
     14 O          10.5891   -0.0559   -5.9166 O.3     1  UNL1       -0.3848
     15 C          10.3050   -1.3948   -3.9409 C.2     1  UNL1       -0.0602
     16 C           9.0320   -1.6809   -4.2545 C.2     1  UNL1       -0.1000
     17 H           8.9614    9.4236    0.8220 H       1  UNL1        0.0274
     18 H           8.0240    8.7757    2.1874 H       1  UNL1        0.0274
     19 H           9.7633    8.4785    2.0862 H       1  UNL1        0.0274
     20 H           7.5124    7.1962   -1.1699 H       1  UNL1        0.0274
     21 H           6.5851    6.5882    0.2309 H       1  UNL1        0.0274
     22 H           6.7837    8.3224   -0.0241 H       1  UNL1        0.0274
     23 H          10.2620    6.2882    1.3794 H       1  UNL1        0.0572
     24 H           9.0155    4.1742    0.8919 H       1  UNL1        0.0310
     25 H           8.1326    4.9606   -0.4159 H       1  UNL1        0.0310
     26 H          10.3302    5.2983   -1.6280 H       1  UNL1        0.0313
     27 H          11.1305    4.3612   -0.3656 H       1  UNL1        0.0313
     28 H           7.9659    2.4585   -2.3187 H       1  UNL1        0.0274
     29 H           8.7948    1.4297   -1.1143 H       1  UNL1        0.0274
     30 H           7.9665    2.8762   -0.6192 H       1  UNL1        0.0274
     31 H          11.6294    3.3505   -2.8400 H       1  UNL1        0.0572
     32 H           9.6898    0.9650   -3.0760 H       1  UNL1        0.0308
     33 H           9.9982    2.0022   -4.4602 H       1  UNL1        0.0308
     34 H          12.3607    1.3550   -4.4697 H       1  UNL1        0.0299
     35 H          12.1794    0.4296   -2.9767 H       1  UNL1        0.0299
     36 H          13.0953   -0.7352   -5.8461 H       1  UNL1        0.0260
     37 H          13.0811   -1.6086   -4.2962 H       1  UNL1        0.0260
     38 H          12.1662   -2.2143   -5.6921 H       1  UNL1        0.0260
     39 H          11.1926    0.5490   -6.3783 H       1  UNL1        0.2106
     40 H          10.7087   -1.8180   -3.0227 H       1  UNL1        0.0594
     41 H           8.5656   -1.2747   -5.1477 H       1  UNL1        0.0533
     42 H           8.4256   -2.3147   -3.6166 H       1  UNL1        0.0533
@<TRIPOS>BOND
     1     1    17    1
     2     1    18    1
     3     1    19    1
     4     2     1    1
     5     3     2    1
     6     3    20    1
     7     3    21    1
     8     3    22    1
     9     4     2    2
    10     4    23    1
    11     5     4    1
    12     5    24    1
    13     5    25    1
    14     6     5    1
    15     6    26    1
    16     6    27    1
    17     7     6    1
    18     8     7    1
    19     8    28    1
    20     8    29    1
    21     8    30    1
    22     9     7    2
    23     9    31    1
    24    10     9    1
    25    10    32    1
    26    10    33    1
    27    11    10    1
    28    11    34    1
    29    11    35    1
    30    13    36    1
    31    13    37    1
    32    13    38    1
    33    14    12    1
    34    14    39    1
    35    15    12    1
    36    15    40    1
    37    16    15    2
    38    16    41    1
    39    16    42    1
    40    12    13    1
    41    12    11    1
