@<TRIPOS>MOLECULE
>90.sdf
 41 42 0 0 0
SMALL
GASTEIGER

@<TRIPOS>ATOM
      1 C          -6.5755   -3.9285   -3.2582 C.3     1  UNL1       -0.0397
      2 C          -5.8008   -2.9810   -2.3883 C.ar    1  UNL1       -0.0503
      3 C          -4.9960   -1.9811   -2.9518 C.ar    1  UNL1       -0.0570
      4 C          -4.2692   -1.1131   -2.1341 C.ar    1  UNL1       -0.0351
      5 C          -4.3595   -1.2412   -0.7471 C.ar    1  UNL1        0.1053
      6 C          -5.1520   -2.2374   -0.1708 C.ar    1  UNL1       -0.0351
      7 C          -5.8709   -3.1042   -0.9933 C.ar    1  UNL1       -0.0570
      8 S          -3.4866   -0.0916    0.2899 S.O2    1  UNL1        0.0590
      9 O          -3.7444   -0.4469    1.6691 O.2     1  UNL1       -0.1530
     10 O          -2.1395    0.0152   -0.2133 O.2     1  UNL1       -0.1530
     11 N          -4.2364    1.3652   -0.0327 N.3     1  UNL1       -0.1794
     12 C          -5.7050    1.5014   -0.0501 C.3     1  UNL1        0.0919
     13 C          -6.4065    1.1730    1.2728 C.3     1  UNL1       -0.0037
     14 C          -6.1404    1.9181    2.5598 C.ar    1  UNL1       -0.0454
     15 C          -5.3005    3.0276    2.6879 C.ar    1  UNL1       -0.0585
     16 C          -5.2147    3.7158    3.9061 C.ar    1  UNL1       -0.0615
     17 C          -5.9467    3.2918    5.0134 C.ar    1  UNL1       -0.0617
     18 C          -6.7405    2.1547    4.9192 C.ar    1  UNL1       -0.0615
     19 C          -6.8320    1.4750    3.7064 C.ar    1  UNL1       -0.0585
     20 C          -6.0837    2.8772   -0.6212 C.2     1  UNL1        0.1665
     21 O          -5.3426    3.8594   -0.5153 O.2     1  UNL1       -0.2944
     22 C          -7.3812    2.9744   -1.3921 C.3     1  UNL1        0.0825
     23 CL         -7.2283    2.0717   -2.9134 Cl      1  UNL1       -0.1173
     24 H          -6.2520   -4.9575   -3.0731 H       1  UNL1        0.0278
     25 H          -7.6463   -3.8434   -3.0467 H       1  UNL1        0.0278
     26 H          -6.4239   -3.7138   -4.3201 H       1  UNL1        0.0278
     27 H          -4.9272   -1.8747   -4.0332 H       1  UNL1        0.0621
     28 H          -3.6448   -0.3420   -2.5830 H       1  UNL1        0.0637
     29 H          -5.2175   -2.3456    0.9092 H       1  UNL1        0.0637
     30 H          -6.4859   -3.8818   -0.5428 H       1  UNL1        0.0621
     31 H          -3.7031    1.9778   -0.6563 H       1  UNL1        0.1488
     32 H          -6.0702    0.7861   -0.7898 H       1  UNL1        0.0559
     33 H          -6.2479    0.1065    1.4836 H       1  UNL1        0.0333
     34 H          -7.4857    1.2758    1.0935 H       1  UNL1        0.0333
     35 H          -4.6957    3.3851    1.8604 H       1  UNL1        0.0620
     36 H          -4.5732    4.5914    3.9862 H       1  UNL1        0.0618
     37 H          -5.8868    3.8397    5.9514 H       1  UNL1        0.0618
     38 H          -7.2907    1.7993    5.7853 H       1  UNL1        0.0618
     39 H          -7.4568    0.5855    3.6532 H       1  UNL1        0.0620
     40 H          -8.2157    2.5760   -0.8104 H       1  UNL1        0.0508
     41 H          -7.5859    4.0199   -1.6431 H       1  UNL1        0.0508
@<TRIPOS>BOND
     1     1    24    1
     2     1    25    1
     3     1    26    1
     4     2     1    1
     5     3     2   ar
     6     3    27    1
     7     4     3   ar
     8     4    28    1
     9     5     4   ar
    10     6     5   ar
    11     6    29    1
    12     7     6   ar
    13     7     2   ar
    14     7    30    1
    15     8     5    1
    16     9     8    2
    17    10     8    2
    18    11     8    1
    19    11    31    1
    20    12    11    1
    21    12    32    1
    22    13    12    1
    23    13    33    1
    24    13    34    1
    25    14    13    1
    26    15    14   ar
    27    15    35    1
    28    16    15   ar
    29    16    36    1
    30    17    16   ar
    31    17    37    1
    32    18    17   ar
    33    18    38    1
    34    19    18   ar
    35    19    14   ar
    36    19    39    1
    37    20    12    1
    38    21    20    2
    39    22    20    1
    40    22    40    1
    41    22    41    1
    42    23    22    1
