@<TRIPOS>MOLECULE
>62.sdf
 52 52 0 0 0
SMALL
GASTEIGER

@<TRIPOS>ATOM
      1 C           1.3394    2.2030   -2.1422 C.3     1  UNL1        0.0817
      2 O           2.7490    1.9710   -2.0513 O.3     1  UNL1       -0.4664
      3 C           3.0952    1.0326   -1.1153 C.2     1  UNL1        0.3303
      4 O           2.2824    0.4123   -0.4428 O.2     1  UNL1       -0.2484
      5 C           4.6383    0.8502   -1.0266 C.3     1  UNL1        0.1290
      6 C           4.9613   -0.6021   -1.4080 C.3     1  UNL1       -0.0332
      7 C           5.1096    1.2757    0.3948 C.3     1  UNL1       -0.0191
      8 C           4.5561    0.5640    1.6521 C.3     1  UNL1       -0.0443
      9 C           4.8311   -0.9366    1.7030 C.3     1  UNL1       -0.0626
     10 C           5.1704    1.2135    2.9014 C.3     1  UNL1       -0.0626
     11 N           5.2864    1.7446   -2.0233 N.am    1  UNL1       -0.2994
     12 C           6.6405    1.7564   -2.2712 C.2     1  UNL1        0.2237
     13 O           7.4588    1.0967   -1.6361 O.2     1  UNL1       -0.2749
     14 C           7.0606    2.6463   -3.4221 C.3     1  UNL1        0.0703
     15 S           7.0880    1.6638   -4.9585 S.3     1  UNL1       -0.1497
     16 C           7.8017    2.8939   -6.0979 C.3     1  UNL1        0.0122
     17 C           9.2110    3.3169   -5.6924 C.3     1  UNL1        0.0354
     18 N           9.7929    4.2702   -6.6238 N.ar    1  UNL1       -0.3085
     19 C          10.6105    3.9268   -7.6872 C.ar    1  UNL1        0.1082
     20 C          10.9130    2.5257   -8.0863 C.3     1  UNL1       -0.0062
     21 N          11.0737    5.0055   -8.2885 N.ar    1  UNL1       -0.2385
     22 C          10.5378    6.0747   -7.6225 C.ar    1  UNL1        0.0769
     23 C           9.7250    5.6422   -6.6071 C.ar    1  UNL1        0.2157
     24 N           8.9512    6.4388   -5.7147 N.pl3   1  UNL1        0.0750
     25 O           8.1767    5.8577   -4.9459 O.2     1  UNL1       -0.1246
     26 O           9.0970    7.6619   -5.7986 O.2     1  UNL1       -0.1246
     27 H           0.7865    1.2651   -2.2608 H       1  UNL1        0.0661
     28 H           0.9962    2.7443   -1.2549 H       1  UNL1        0.0661
     29 H           1.1525    2.8230   -3.0225 H       1  UNL1        0.0661
     30 H           4.1740   -1.3015   -1.1144 H       1  UNL1        0.0256
     31 H           5.0697   -0.7118   -2.4942 H       1  UNL1        0.0256
     32 H           5.9038   -0.9335   -0.9600 H       1  UNL1        0.0256
     33 H           6.2044    1.2146    0.4440 H       1  UNL1        0.0294
     34 H           4.8812    2.3470    0.5048 H       1  UNL1        0.0294
     35 H           3.4740    0.7215    1.7129 H       1  UNL1        0.0296
     36 H           5.8845   -1.1577    1.5014 H       1  UNL1        0.0232
     37 H           4.5858   -1.3470    2.6885 H       1  UNL1        0.0232
     38 H           4.2122   -1.4801    0.9875 H       1  UNL1        0.0232
     39 H           6.2599    1.0959    2.9140 H       1  UNL1        0.0232
     40 H           4.9429    2.2836    2.9392 H       1  UNL1        0.0232
     41 H           4.7720    0.7565    3.8136 H       1  UNL1        0.0232
     42 H           4.6647    2.1872   -2.6939 H       1  UNL1        0.1498
     43 H           6.3770    3.4931   -3.5277 H       1  UNL1        0.0471
     44 H           8.0541    3.0258   -3.1735 H       1  UNL1        0.0471
     45 H           7.8266    2.4311   -7.0912 H       1  UNL1        0.0394
     46 H           7.1195    3.7463   -6.1716 H       1  UNL1        0.0394
     47 H           9.2597    3.7722   -4.7016 H       1  UNL1        0.0501
     48 H           9.8749    2.4468   -5.6440 H       1  UNL1        0.0501
     49 H          11.4263    1.9908   -7.2813 H       1  UNL1        0.0307
     50 H           9.9930    1.9890   -8.3379 H       1  UNL1        0.0307
     51 H          11.5632    2.5112   -8.9658 H       1  UNL1        0.0307
     52 H          10.7614    7.0936   -7.9187 H       1  UNL1        0.0869
@<TRIPOS>BOND
     1     1    27    1
     2     1    28    1
     3     1    29    1
     4     2     1    1
     5     3     2    1
     6     4     3    2
     7     6    30    1
     8     6    31    1
     9     6    32    1
    10     7     5    1
    11     7    33    1
    12     7    34    1
    13     8     7    1
    14     8    35    1
    15     9     8    1
    16     9    36    1
    17     9    37    1
    18     9    38    1
    19    10     8    1
    20    10    39    1
    21    10    40    1
    22    10    41    1
    23    11     5    1
    24    11    42    1
    25    12    11   am
    26    13    12    2
    27    14    12    1
    28    14    43    1
    29    14    44    1
    30    15    14    1
    31    16    15    1
    32    16    45    1
    33    16    46    1
    34    17    16    1
    35    17    47    1
    36    17    48    1
    37    18    17    1
    38    19    18   ar
    39    20    19    1
    40    20    49    1
    41    20    50    1
    42    20    51    1
    43    21    19   ar
    44    22    21   ar
    45    22    52    1
    46    23    22   ar
    47    23    18   ar
    48    24    23    1
    49    25    24    2
    50    26    24    2
    51     5     6    1
    52     5     3    1
