@<TRIPOS>MOLECULE
>198.sdf
 47 50 0 0 0
SMALL
GASTEIGER

@<TRIPOS>ATOM
      1 C           2.5889   -6.3494    2.1783 C.3     1  UNL1        0.0788
      2 O           2.3679   -5.1012    1.5274 O.3     1  UNL1       -0.4944
      3 C           2.8136   -5.0170    0.2297 C.ar    1  UNL1        0.1298
      4 C           3.1538   -3.7365   -0.2851 C.ar    1  UNL1        0.0499
      5 C           3.5550   -3.6435   -1.6226 C.ar    1  UNL1        0.0506
      6 N           3.8058   -2.3178   -1.8889 N.ar    1  UNL1       -0.3599
      7 C           3.6164   -1.5657   -0.7664 C.ar    1  UNL1        0.0115
      8 C           3.2352   -2.4062    0.2631 C.ar    1  UNL1        0.0216
      9 C           2.9809   -1.9844    1.6273 C.2     1  UNL1        0.0381
     10 N           3.4819   -0.8631    2.0475 N.2     1  UNL1       -0.2465
     11 C           3.2271   -0.4901    3.3395 C.ar    1  UNL1        0.1189
     12 C           4.0592    0.1690    4.2359 C.ar    1  UNL1        0.0877
     13 C           5.4074    0.5395    3.8953 C.1     1  UNL1        0.1021
     14 N           6.5121    0.8576    3.6929 N.1     1  UNL1       -0.1908
     15 C           3.4536    0.4156    5.5429 C.ar    1  UNL1       -0.0177
     16 C           2.1649   -0.1049    5.5710 C.ar    1  UNL1       -0.0037
     17 C           1.1839   -0.2399    6.7017 C.3     1  UNL1       -0.0211
     18 C           1.5888   -1.3391    7.6849 C.3     1  UNL1       -0.0486
     19 C           3.0214   -1.2731    8.2170 C.3     1  UNL1       -0.0527
     20 C           3.3933    0.0408    8.9002 C.3     1  UNL1       -0.0528
     21 C           3.5249    1.2907    8.0187 C.3     1  UNL1       -0.0490
     22 C           4.2199    1.0920    6.6708 C.3     1  UNL1       -0.0256
     23 S           1.6740   -0.6910    4.0462 S.2     1  UNL1       -0.0727
     24 C           3.6541   -4.7506   -2.4715 C.ar    1  UNL1       -0.0376
     25 C           3.3249   -5.9983   -1.9476 C.ar    1  UNL1       -0.0563
     26 C           2.9025   -6.1304   -0.6263 C.ar    1  UNL1       -0.0192
     27 H           1.9730   -7.1465    1.7492 H       1  UNL1        0.0660
     28 H           3.6505   -6.6176    2.1583 H       1  UNL1        0.0660
     29 H           2.2865   -6.2408    3.2242 H       1  UNL1        0.0660
     30 H           4.0963   -1.9593   -2.7878 H       1  UNL1        0.1654
     31 H           3.7690   -0.4942   -0.7821 H       1  UNL1        0.0813
     32 H           2.3693   -2.6621    2.2474 H       1  UNL1        0.0836
     33 H           1.0329    0.7139    7.2104 H       1  UNL1        0.0318
     34 H           0.1858   -0.4916    6.3171 H       1  UNL1        0.0318
     35 H           1.4559   -2.3160    7.2008 H       1  UNL1        0.0269
     36 H           0.8918   -1.3228    8.5318 H       1  UNL1        0.0269
     37 H           3.7395   -1.5105    7.4240 H       1  UNL1        0.0265
     38 H           3.1399   -2.0827    8.9485 H       1  UNL1        0.0265
     39 H           2.6718    0.2490    9.7006 H       1  UNL1        0.0265
     40 H           4.3578   -0.1144    9.4007 H       1  UNL1        0.0265
     41 H           2.5606    1.7896    7.8915 H       1  UNL1        0.0268
     42 H           4.1181    2.0136    8.5969 H       1  UNL1        0.0268
     43 H           4.5030    2.0895    6.3067 H       1  UNL1        0.0314
     44 H           5.1569    0.5460    6.8397 H       1  UNL1        0.0314
     45 H           3.9735   -4.6485   -3.5035 H       1  UNL1        0.0638
     46 H           3.3873   -6.8797   -2.5822 H       1  UNL1        0.0619
     47 H           2.6305   -7.1255   -0.2895 H       1  UNL1        0.0654
@<TRIPOS>BOND
     1     1    27    1
     2     1    28    1
     3     1    29    1
     4     2     1    1
     5     3     2    1
     6     4     3   ar
     7     5     4   ar
     8     6     5   ar
     9     6    30    1
    10     7     6   ar
    11     7    31    1
    12     8     7   ar
    13     8     4   ar
    14     9     8    1
    15     9    32    1
    16    10     9    2
    17    11    10    1
    18    12    11   ar
    19    13    12    1
    20    14    13    3
    21    15    12   ar
    22    16    15   ar
    23    17    16    1
    24    17    33    1
    25    17    34    1
    26    18    17    1
    27    18    35    1
    28    18    36    1
    29    19    18    1
    30    19    37    1
    31    19    38    1
    32    20    19    1
    33    20    39    1
    34    20    40    1
    35    21    20    1
    36    21    41    1
    37    21    42    1
    38    22    21    1
    39    22    15    1
    40    22    43    1
    41    22    44    1
    42    23    16   ar
    43    23    11   ar
    44    24     5   ar
    45    24    45    1
    46    25    24   ar
    47    25    46    1
    48    26    25   ar
    49    26     3   ar
    50    26    47    1
