@<TRIPOS>MOLECULE
>165.sdf
 55 58 0 0 0
SMALL
GASTEIGER

@<TRIPOS>ATOM
      1 C           4.6495   -0.8992    4.3661 C.3     1  UNL1        0.0368
      2 O           4.3676   -1.3386    3.0440 O.3     1  UNL1       -0.3798
      3 C           2.9973   -1.1732    2.6573 C.3     1  UNL1        0.0585
      4 C           2.9033   -1.4891    1.1583 C.3     1  UNL1       -0.0249
      5 C           3.1114   -2.9773    0.8630 C.3     1  UNL1       -0.0322
      6 C           2.1683   -3.8753    1.6842 C.3     1  UNL1        0.0236
      7 C           2.3369   -3.5661    3.1747 C.3     1  UNL1       -0.0322
      8 C           2.0658   -2.0870    3.4644 C.3     1  UNL1       -0.0249
      9 N           0.7637   -3.7272    1.3089 N.am    1  UNL1       -0.3071
     10 C           0.2749   -4.0597    0.0690 C.2     1  UNL1        0.2663
     11 O           0.9763   -4.4278   -0.8699 O.2     1  UNL1       -0.2684
     12 C          -1.2129   -3.9603   -0.0911 C.ar    1  UNL1        0.1694
     13 C          -1.7844   -4.2992   -1.3133 C.ar    1  UNL1        0.1735
     14 O          -1.0337   -4.6786   -2.4065 O.3     1  UNL1       -0.5028
     15 C          -3.1619   -4.2510   -1.4438 C.ar    1  UNL1        0.1166
     16 C          -3.9420   -3.8618   -0.3327 C.ar    1  UNL1        0.0301
     17 C          -5.3505   -3.9051   -0.5406 C.ar    1  UNL1       -0.0490
     18 C          -5.9032   -4.2020   -1.7836 C.ar    1  UNL1       -0.0429
     19 C          -5.0422   -4.5170   -2.8039 C.ar    1  UNL1        0.0284
     20 N          -3.7088   -4.5629   -2.6436 N.ar    1  UNL1       -0.2512
     21 C          -3.2680   -3.4466    0.8694 C.ar    1  UNL1        0.0847
     22 N          -1.9143   -3.5181    0.9904 N.ar    1  UNL1       -0.2376
     23 C          -3.9760   -2.7707    2.0149 C.ar    1  UNL1        0.0426
     24 C          -3.6740   -2.9630    3.3872 C.ar    1  UNL1        0.1293
     25 O          -2.6338   -3.7970    3.7326 O.3     1  UNL1       -0.4945
     26 C          -1.9812   -3.4848    4.9679 C.3     1  UNL1        0.0788
     27 C          -4.4630   -2.3397    4.3758 C.ar    1  UNL1       -0.0193
     28 C          -5.5200   -1.4972    4.0442 C.ar    1  UNL1       -0.0583
     29 C          -5.7806   -1.2330    2.7098 C.ar    1  UNL1       -0.0609
     30 C          -4.9968   -1.8310    1.7238 C.ar    1  UNL1       -0.0490
     31 H           4.2322    0.0950    4.5521 H       1  UNL1        0.0524
     32 H           4.2634   -1.6158    5.0960 H       1  UNL1        0.0524
     33 H           5.7347   -0.8526    4.4881 H       1  UNL1        0.0524
     34 H           2.7154   -0.1239    2.8072 H       1  UNL1        0.0596
     35 H           1.9244   -1.1765    0.7753 H       1  UNL1        0.0291
     36 H           3.6634   -0.9183    0.6101 H       1  UNL1        0.0291
     37 H           2.9925   -3.1485   -0.2118 H       1  UNL1        0.0284
     38 H           4.1496   -3.2469    1.0994 H       1  UNL1        0.0284
     39 H           2.4335   -4.9234    1.4972 H       1  UNL1        0.0498
     40 H           1.6556   -4.1846    3.7696 H       1  UNL1        0.0284
     41 H           3.3570   -3.8232    3.4875 H       1  UNL1        0.0284
     42 H           2.1756   -1.9144    4.5390 H       1  UNL1        0.0291
     43 H           1.0242   -1.8450    3.2209 H       1  UNL1        0.0291
     44 H           0.0522   -3.5837    2.0236 H       1  UNL1        0.1493
     45 H          -0.0800   -4.6561   -2.1700 H       1  UNL1        0.2923
     46 H          -6.0428   -3.6948    0.2705 H       1  UNL1        0.0625
     47 H          -6.9737   -4.1726   -1.9493 H       1  UNL1        0.0633
     48 H          -5.3984   -4.7499   -3.8027 H       1  UNL1        0.0830
     49 H          -1.6799   -2.4300    5.0049 H       1  UNL1        0.0660
     50 H          -2.6107   -3.7381    5.8275 H       1  UNL1        0.0660
     51 H          -1.0771   -4.0934    5.0427 H       1  UNL1        0.0660
     52 H          -4.2897   -2.5087    5.4346 H       1  UNL1        0.0654
     53 H          -6.1241   -1.0390    4.8195 H       1  UNL1        0.0619
     54 H          -6.5923   -0.5657    2.4304 H       1  UNL1        0.0618
     55 H          -5.2121   -1.5602    0.6921 H       1  UNL1        0.0625
@<TRIPOS>BOND
     1     1    31    1
     2     1    32    1
     3     1    33    1
     4     2     1    1
     5     4     3    1
     6     4    35    1
     7     4    36    1
     8     5     4    1
     9     5    37    1
    10     5    38    1
    11     6     5    1
    12     7     6    1
    13     7    40    1
    14     7    41    1
    15     8     7    1
    16     8     3    1
    17     8    42    1
    18     8    43    1
    19     9    44    1
    20    10     9   am
    21    11    10    2
    22    12    10    1
    23    13    12   ar
    24    14    13    1
    25    14    45    1
    26    15    13   ar
    27    16    15   ar
    28    17    16   ar
    29    17    46    1
    30    18    17   ar
    31    18    47    1
    32    19    18   ar
    33    19    48    1
    34    20    19   ar
    35    20    15   ar
    36    21    16   ar
    37    22    21   ar
    38    22    12   ar
    39    23    21    1
    40    24    23   ar
    41    25    24    1
    42    26    25    1
    43    26    49    1
    44    26    50    1
    45    26    51    1
    46    27    24   ar
    47    27    52    1
    48    28    27   ar
    49    28    53    1
    50    29    28   ar
    51    29    54    1
    52    30    29   ar
    53    30    23   ar
    54    30    55    1
    55     3    34    1
    56     3     2    1
    57     6     9    1
    58     6    39    1
