@<TRIPOS>MOLECULE
>100.sdf
 47 48 0 0 0
SMALL
GASTEIGER

@<TRIPOS>ATOM
      1 C           5.2184    0.6694    1.2516 C.3     1  UNL1       -0.0306
      2 C           4.2183   -0.4597    1.0577 C.3     1  UNL1        0.0900
      3 O           4.6411   -1.3817    0.0372 O.3     1  UNL1       -0.4616
      4 C           4.4507   -0.9112   -1.2185 C.2     1  UNL1        0.3375
      5 O           3.9321    0.1746   -1.4554 O.2     1  UNL1       -0.2452
      6 C           4.9586   -1.8392   -2.2646 C.2     1  UNL1        0.0652
      7 C           4.4650   -1.7791   -3.5256 C.2     1  UNL1        0.0157
      8 C           3.4049   -0.8317   -4.0490 C.3     1  UNL1       -0.0260
      9 N           4.9755   -2.6252   -4.4934 N.pl3   1  UNL1       -0.3207
     10 C           6.1426   -3.3654   -4.3758 C.2     1  UNL1        0.0157
     11 C           6.6011   -3.9340   -5.7026 C.3     1  UNL1       -0.0260
     12 C           6.7463   -3.4877   -3.1639 C.2     1  UNL1        0.0652
     13 C           6.1110   -2.8107   -1.9226 C.3     1  UNL1        0.0506
     14 C           7.1717   -2.1116   -1.0586 C.ar    1  UNL1       -0.0337
     15 C           7.3372   -2.5027    0.2840 C.ar    1  UNL1       -0.0393
     16 C           8.2875   -1.8653    1.0770 C.ar    1  UNL1        0.0413
     17 CL          8.4890   -2.3393    2.7179 Cl      1  UNL1       -0.0835
     18 C           9.0711   -0.8449    0.5479 C.ar    1  UNL1       -0.0434
     19 C           8.9097   -0.4501   -0.7814 C.ar    1  UNL1       -0.0601
     20 C           7.9582   -1.0837   -1.5786 C.ar    1  UNL1       -0.0576
     21 C           8.0550   -4.2033   -3.0302 C.2     1  UNL1        0.3375
     22 O           8.8282   -4.3936   -3.9608 O.2     1  UNL1       -0.2452
     23 O           8.3189   -4.6076   -1.7562 O.3     1  UNL1       -0.4616
     24 C           9.6040   -5.2434   -1.6233 C.3     1  UNL1        0.0900
     25 C           9.8580   -5.6239   -0.1767 C.3     1  UNL1       -0.0306
     26 H           4.8394    1.3929    1.9785 H       1  UNL1        0.0262
     27 H           6.1769    0.2835    1.6093 H       1  UNL1        0.0262
     28 H           5.4194    1.1958    0.3134 H       1  UNL1        0.0262
     29 H           4.1038   -1.0167    1.9921 H       1  UNL1        0.0695
     30 H           3.2304   -0.0599    0.8014 H       1  UNL1        0.0695
     31 H           3.8146   -0.2562   -4.8878 H       1  UNL1        0.0290
     32 H           2.5331   -1.3892   -4.4068 H       1  UNL1        0.0290
     33 H           3.0278   -0.0987   -3.3420 H       1  UNL1        0.0290
     34 H           4.6043   -2.5116   -5.4351 H       1  UNL1        0.1516
     35 H           5.7998   -4.5414   -6.1385 H       1  UNL1        0.0290
     36 H           6.8121   -3.1116   -6.3970 H       1  UNL1        0.0290
     37 H           7.4814   -4.5710   -5.6754 H       1  UNL1        0.0290
     38 H           5.6561   -3.6251   -1.3376 H       1  UNL1        0.0451
     39 H           6.7203   -3.2929    0.7132 H       1  UNL1        0.0635
     40 H           9.8148   -0.3477    1.1630 H       1  UNL1        0.0632
     41 H           9.5218    0.3398   -1.1984 H       1  UNL1        0.0618
     42 H           7.8376   -0.7702   -2.6173 H       1  UNL1        0.0621
     43 H           9.6126   -6.1494   -2.2399 H       1  UNL1        0.0695
     44 H          10.4029   -4.5693   -1.9580 H       1  UNL1        0.0695
     45 H           9.9736   -4.7310    0.4450 H       1  UNL1        0.0262
     46 H           9.0217   -6.1998    0.2299 H       1  UNL1        0.0262
     47 H          10.7729   -6.2193   -0.0920 H       1  UNL1        0.0262
@<TRIPOS>BOND
     1     1    26    1
     2     1    27    1
     3     1    28    1
     4     2     1    1
     5     2    29    1
     6     2    30    1
     7     3     2    1
     8     4     3    1
     9     5     4    2
    10     6     4    1
    11     7     6    2
    12     8     7    1
    13     8    31    1
    14     8    32    1
    15     8    33    1
    16     9     7    1
    17     9    34    1
    18    10     9    1
    19    11    10    1
    20    11    35    1
    21    11    36    1
    22    11    37    1
    23    12    10    2
    24    13    12    1
    25    13     6    1
    26    15    14   ar
    27    15    39    1
    28    16    15   ar
    29    17    16    1
    30    18    16   ar
    31    18    40    1
    32    19    18   ar
    33    19    41    1
    34    20    19   ar
    35    20    14   ar
    36    20    42    1
    37    21    12    1
    38    22    21    2
    39    23    21    1
    40    24    23    1
    41    24    43    1
    42    24    44    1
    43    25    24    1
    44    25    45    1
    45    25    46    1
    46    25    47    1
    47    13    14    1
    48    13    38    1
