@<TRIPOS>MOLECULE
>113.sdf
 36 37 0 0 0
SMALL
GASTEIGER

@<TRIPOS>ATOM
      1 C           2.9195    2.0327    3.3526 C.3     1  UNL1       -0.0437
      2 C           2.5692    1.1060    2.2163 C.2     1  UNL1       -0.0755
      3 C           1.6314    0.1657    2.4431 C.2     1  UNL1       -0.0994
      4 C           3.3001    1.1681    0.8540 C.3     1  UNL1       -0.0071
      5 C           4.8259    0.8841    1.0240 C.3     1  UNL1       -0.0169
      6 C           5.5689    2.1324    1.3447 C.ar    1  UNL1       -0.0030
      7 C           5.0358    3.3836    1.1365 C.ar    1  UNL1        0.1091
      8 C           3.6899    3.7304    0.6105 C.3     1  UNL1        0.0151
      9 C           3.0474    2.4588   -0.0488 C.3     1  UNL1       -0.0007
     10 C           1.5372    2.7028   -0.2494 C.3     1  UNL1       -0.0552
     11 C           3.6723    2.2884   -1.4516 C.2     1  UNL1       -0.0842
     12 C           3.4300    1.2988   -2.3214 C.2     1  UNL1       -0.1021
     13 O           5.8630    4.3518    1.5891 O.2     1  UNL1       -0.4672
     14 C           6.9578    3.7065    2.0803 C.ar    1  UNL1        0.0952
     15 C           6.8366    2.3366    1.9438 C.ar    1  UNL1       -0.0093
     16 C           7.8014    1.2896    2.3576 C.3     1  UNL1       -0.0365
     17 H           2.2801    2.9202    3.3385 H       1  UNL1        0.0274
     18 H           2.7830    1.5371    4.3230 H       1  UNL1        0.0274
     19 H           3.9607    2.3546    3.3508 H       1  UNL1        0.0274
     20 H           1.3381   -0.5532    1.6897 H       1  UNL1        0.0534
     21 H           1.1303    0.0935    3.4062 H       1  UNL1        0.0534
     22 H           2.9166    0.3093    0.2818 H       1  UNL1        0.0357
     23 H           4.9921    0.1287    1.8017 H       1  UNL1        0.0320
     24 H           5.2286    0.4680    0.0921 H       1  UNL1        0.0320
     25 H           3.7625    4.5584   -0.1076 H       1  UNL1        0.0352
     26 H           3.0639    4.0894    1.4337 H       1  UNL1        0.0352
     27 H           1.3587    3.5847   -0.8764 H       1  UNL1        0.0238
     28 H           1.0550    1.8486   -0.7407 H       1  UNL1        0.0238
     29 H           1.0196    2.8684    0.7005 H       1  UNL1        0.0238
     30 H           4.3921    3.0478   -1.7602 H       1  UNL1        0.0572
     31 H           2.7302    0.4968   -2.1105 H       1  UNL1        0.0532
     32 H           3.9386    1.2765   -3.2832 H       1  UNL1        0.0532
     33 H           7.7182    4.3500    2.5009 H       1  UNL1        0.1032
     34 H           7.3301    0.5941    3.0590 H       1  UNL1        0.0279
     35 H           8.1376    0.7207    1.4848 H       1  UNL1        0.0279
     36 H           8.6802    1.7226    2.8447 H       1  UNL1        0.0279
@<TRIPOS>BOND
     1     1    17    1
     2     1    18    1
     3     1    19    1
     4     2     1    1
     5     3     2    2
     6     3    20    1
     7     3    21    1
     8     5     4    1
     9     5    23    1
    10     5    24    1
    11     6     5    1
    12     7     6   ar
    13     8     7    1
    14     8    25    1
    15     8    26    1
    16     9     8    1
    17     9     4    1
    18    10    27    1
    19    10    28    1
    20    10    29    1
    21    11    30    1
    22    12    11    2
    23    12    31    1
    24    12    32    1
    25    13     7   ar
    26    14    13   ar
    27    14    33    1
    28    15    14   ar
    29    15     6   ar
    30    16    15    1
    31    16    34    1
    32    16    35    1
    33    16    36    1
    34     4    22    1
    35     4     2    1
    36     9    11    1
    37     9    10    1
