@<TRIPOS>MOLECULE
>228.sdf
 35 37 0 0 0
SMALL
GASTEIGER

@<TRIPOS>ATOM
      1 F           2.0686    0.0452    1.2757 F       1  UNL1       -0.2055
      2 C           0.7591    0.0228    0.9963 C.ar    1  UNL1        0.1234
      3 C          -0.1556   -0.1860    2.0220 C.ar    1  UNL1       -0.0262
      4 C          -1.5231   -0.2068    1.7387 C.ar    1  UNL1       -0.0558
      5 C          -1.9773   -0.0265    0.4229 C.ar    1  UNL1       -0.0457
      6 C          -3.4603   -0.0116    0.1163 C.3     1  UNL1       -0.0121
      7 C          -4.0176    1.4152    0.1750 C.3     1  UNL1        0.0131
      8 N          -5.4623    1.4467   -0.1095 N.pl3   1  UNL1       -0.3430
      9 C          -6.0973    2.7185   -0.0923 C.ar    1  UNL1        0.0378
     10 C          -5.3913    3.8715   -0.4546 C.ar    1  UNL1       -0.0221
     11 C          -6.0389    5.0898   -0.4810 C.ar    1  UNL1        0.0300
     12 N          -7.3428    5.2487   -0.2075 N.ar    1  UNL1       -0.2548
     13 C          -8.0577    4.1569    0.0829 C.ar    1  UNL1        0.0741
     14 C          -9.4085    4.3511    0.3193 C.ar    1  UNL1       -0.0173
     15 C         -10.2488    3.2874    0.6219 C.ar    1  UNL1        0.0430
     16 CL        -11.9222    3.5718    0.9015 Cl      1  UNL1       -0.0835
     17 C          -9.7410    1.9994    0.6956 C.ar    1  UNL1       -0.0426
     18 C          -8.3812    1.7802    0.4560 C.ar    1  UNL1       -0.0494
     19 C          -7.5013    2.8506    0.1484 C.ar    1  UNL1        0.0213
     20 C          -1.0376    0.1894   -0.5990 C.ar    1  UNL1       -0.0558
     21 C           0.3292    0.2114   -0.3114 C.ar    1  UNL1       -0.0262
     22 H           0.2029   -0.3258    3.0386 H       1  UNL1        0.0646
     23 H          -2.2300   -0.3622    2.5508 H       1  UNL1        0.0621
     24 H          -3.6310   -0.4440   -0.8782 H       1  UNL1        0.0328
     25 H          -3.9913   -0.6634    0.8209 H       1  UNL1        0.0328
     26 H          -3.8363    1.8438    1.1683 H       1  UNL1        0.0464
     27 H          -3.4679    2.0087   -0.5624 H       1  UNL1        0.0464
     28 H          -5.9689    0.7757    0.4607 H       1  UNL1        0.1461
     29 H          -4.3445    3.8569   -0.7269 H       1  UNL1        0.0651
     30 H          -5.5045    5.9985   -0.7399 H       1  UNL1        0.0830
     31 H          -9.8095    5.3601    0.2592 H       1  UNL1        0.0653
     32 H         -10.3954    1.1635    0.9299 H       1  UNL1        0.0632
     33 H          -8.0202    0.7572    0.5076 H       1  UNL1        0.0625
     34 H          -1.3638    0.3442   -1.6257 H       1  UNL1        0.0621
     35 H           1.0602    0.3766   -1.0956 H       1  UNL1        0.0646
@<TRIPOS>BOND
     1     2     1    1
     2     3     2   ar
     3     3    22    1
     4     4     3   ar
     5     4    23    1
     6     5     4   ar
     7     6     5    1
     8     6    24    1
     9     6    25    1
    10     7     6    1
    11     7    26    1
    12     7    27    1
    13     8     7    1
    14     8    28    1
    15     9     8    1
    16    10     9   ar
    17    10    29    1
    18    11    10   ar
    19    11    30    1
    20    12    11   ar
    21    13    12   ar
    22    14    13   ar
    23    14    31    1
    24    15    14   ar
    25    16    15    1
    26    17    15   ar
    27    17    32    1
    28    18    17   ar
    29    18    33    1
    30    19    18   ar
    31    19     9   ar
    32    19    13   ar
    33    20     5   ar
    34    20    34    1
    35    21    20   ar
    36    21     2   ar
    37    21    35    1
