@<TRIPOS>MOLECULE
>37.sdf
 38 41 0 0 0
SMALL
GASTEIGER

@<TRIPOS>ATOM
      1 C           3.9476   -0.8719   -0.7952 C.3     1  UNL1       -0.0106
      2 S           2.7913    0.1889    0.1002 S.3     1  UNL1       -0.0894
      3 C           3.3000    1.7799   -0.4602 C.ar    1  UNL1        0.1902
      4 N           4.2957    1.8713   -1.3013 N.ar    1  UNL1       -0.2218
      5 C           4.6845    3.1354   -1.7064 C.ar    1  UNL1        0.0759
      6 C           4.1010    4.2856   -1.3121 C.ar    1  UNL1       -0.0100
      7 C           3.0133    4.2075   -0.4177 C.ar    1  UNL1        0.0723
      8 C           2.1633    5.0845    0.2013 C.ar    1  UNL1       -0.0084
      9 C           1.2914    4.2740    0.9833 C.ar    1  UNL1        0.0938
     10 N           1.6127    2.9718    0.8713 N.ar    1  UNL1       -0.1641
     11 N           2.6478    2.9485   -0.0055 N.ar    1  UNL1       -0.2081
     12 C           0.1780    4.7336    1.8181 C.ar    1  UNL1        0.0021
     13 C          -0.5330    5.8944    1.4768 C.ar    1  UNL1       -0.0525
     14 C          -1.5945    6.3392    2.2704 C.ar    1  UNL1       -0.0611
     15 C          -1.9527    5.6309    3.4149 C.ar    1  UNL1       -0.0617
     16 C          -1.2534    4.4770    3.7656 C.ar    1  UNL1       -0.0611
     17 C          -0.1953    4.0275    2.9683 C.ar    1  UNL1       -0.0525
     18 C           5.8502    3.2290   -2.5991 C.ar    1  UNL1        0.0005
     19 C           7.1395    3.2862   -2.0559 C.ar    1  UNL1       -0.0526
     20 C           8.2508    3.4024   -2.8906 C.ar    1  UNL1       -0.0611
     21 C           8.0805    3.4593   -4.2735 C.ar    1  UNL1       -0.0617
     22 C           6.7994    3.3973   -4.8219 C.ar    1  UNL1       -0.0611
     23 C           5.6847    3.2824   -3.9889 C.ar    1  UNL1       -0.0526
     24 H           3.7508   -0.8354   -1.8705 H       1  UNL1        0.0345
     25 H           4.9840   -0.5804   -0.6020 H       1  UNL1        0.0345
     26 H           3.8204   -1.9046   -0.4587 H       1  UNL1        0.0345
     27 H           4.4552    5.2549   -1.6500 H       1  UNL1        0.0660
     28 H           2.1623    6.1610    0.1124 H       1  UNL1        0.0661
     29 H          -0.2849    6.4567    0.5810 H       1  UNL1        0.0624
     30 H          -2.1439    7.2343    1.9902 H       1  UNL1        0.0618
     31 H          -2.7794    5.9751    4.0309 H       1  UNL1        0.0618
     32 H          -1.5328    3.9223    4.6577 H       1  UNL1        0.0618
     33 H           0.3392    3.1241    3.2544 H       1  UNL1        0.0624
     34 H           7.2804    3.2368   -0.9785 H       1  UNL1        0.0624
     35 H           9.2486    3.4467   -2.4627 H       1  UNL1        0.0618
     36 H           8.9462    3.5487   -4.9236 H       1  UNL1        0.0618
     37 H           6.6683    3.4362   -5.9008 H       1  UNL1        0.0618
     38 H           4.6906    3.2289   -4.4262 H       1  UNL1        0.0624
@<TRIPOS>BOND
     1     1    24    1
     2     1    25    1
     3     1    26    1
     4     2     1    1
     5     3     2    1
     6     4     3   ar
     7     5     4   ar
     8     6     5   ar
     9     6    27    1
    10     7     6   ar
    11     8     7   ar
    12     8    28    1
    13     9     8   ar
    14    10     9   ar
    15    11    10   ar
    16    11     3   ar
    17    11     7   ar
    18    12     9    1
    19    13    12   ar
    20    13    29    1
    21    14    13   ar
    22    14    30    1
    23    15    14   ar
    24    15    31    1
    25    16    15   ar
    26    16    32    1
    27    17    16   ar
    28    17    12   ar
    29    17    33    1
    30    18     5    1
    31    19    18   ar
    32    19    34    1
    33    20    19   ar
    34    20    35    1
    35    21    20   ar
    36    21    36    1
    37    22    21   ar
    38    22    37    1
    39    23    22   ar
    40    23    18   ar
    41    23    38    1
