@<TRIPOS>MOLECULE
>150.sdf
 56 58 0 0 0
SMALL
GASTEIGER

@<TRIPOS>ATOM
      1 C          16.1069    0.1060    2.2282 C.3     1  UNL1       -0.0653
      2 C          14.6154   -0.1745    2.3269 C.3     1  UNL1       -0.0553
      3 C          13.8836    0.8427    3.2198 C.3     1  UNL1       -0.0457
      4 C          12.3480    0.5907    3.3100 C.3     1  UNL1        0.0012
      5 C          12.1410   -0.7833    3.9534 C.3     1  UNL1        0.0524
      6 C          10.6919   -1.1298    3.9952 C.2     1  UNL1        0.3129
      7 O          10.2369   -2.1965    3.6024 O.2     1  UNL1       -0.2504
      8 O           9.9185   -0.1894    4.6483 O.3     1  UNL1       -0.4246
      9 C          10.4014    1.1216    4.8618 C.ar    1  UNL1        0.1526
     10 C           9.6328    1.9501    5.7026 C.ar    1  UNL1        0.1024
     11 C           8.5267    1.4540    6.5934 C.2     1  UNL1        0.1755
     12 O           7.5795    2.2418    6.7750 O.2     1  UNL1       -0.2914
     13 C           8.5619    0.0849    7.3062 C.3     1  UNL1        0.0452
     14 C           7.2673   -0.1574    8.1098 C.3     1  UNL1       -0.0530
     15 C           9.8100   -0.0277    8.2085 C.3     1  UNL1        0.0620
     16 C           9.9916   -1.4132    8.8230 C.3     1  UNL1       -0.0383
     17 O           9.7671    0.9345    9.2615 O.3     1  UNL1       -0.3914
     18 C           9.8936    3.3317    5.6481 C.ar    1  UNL1        0.1415
     19 O           9.1527    4.2318    6.3839 O.3     1  UNL1       -0.5052
     20 C          10.8943    3.8604    4.8033 C.ar    1  UNL1        0.0591
     21 C          11.0717    5.3031    4.6499 C.2     1  UNL1       -0.0478
     22 C          11.9425    5.7535    3.7413 C.2     1  UNL1       -0.0408
     23 C          12.7941    4.8405    2.9025 C.3     1  UNL1        0.1235
     24 C          12.4091    4.9554    1.4223 C.3     1  UNL1       -0.0215
     25 C          14.2714    5.2200    3.0820 C.3     1  UNL1       -0.0215
     26 O          12.6921    3.4446    3.2338 O.3     1  UNL1       -0.4811
     27 C          11.7074    2.9882    4.0580 C.ar    1  UNL1        0.1393
     28 C          11.5071    1.5947    4.1086 C.ar    1  UNL1        0.0417
     29 H          16.5407   -0.4720    1.4053 H       1  UNL1        0.0230
     30 H          16.3121    1.1649    2.0483 H       1  UNL1        0.0230
     31 H          16.6137   -0.1949    3.1508 H       1  UNL1        0.0230
     32 H          14.1757   -0.1508    1.3229 H       1  UNL1        0.0263
     33 H          14.5059   -1.1932    2.7070 H       1  UNL1        0.0263
     34 H          14.3222    0.8447    4.2257 H       1  UNL1        0.0271
     35 H          14.1002    1.8220    2.7880 H       1  UNL1        0.0271
     36 H          11.9382    0.5836    2.2902 H       1  UNL1        0.0356
     37 H          12.5282   -0.8143    4.9804 H       1  UNL1        0.0384
     38 H          12.6354   -1.5775    3.3910 H       1  UNL1        0.0384
     39 H           8.5861   -0.6910    6.5370 H       1  UNL1        0.0403
     40 H           7.2147   -1.1920    8.4685 H       1  UNL1        0.0237
     41 H           7.1894    0.4976    8.9845 H       1  UNL1        0.0237
     42 H           6.3730    0.0143    7.5030 H       1  UNL1        0.0237
     43 H          10.7063    0.1996    7.6269 H       1  UNL1        0.0597
     44 H          10.8656   -1.4206    9.4859 H       1  UNL1        0.0255
     45 H           9.1425   -1.7050    9.4493 H       1  UNL1        0.0255
     46 H          10.1340   -2.1740    8.0484 H       1  UNL1        0.0255
     47 H           9.0488    0.7045    9.8763 H       1  UNL1        0.2098
     48 H           8.3632    3.7659    6.7376 H       1  UNL1        0.2922
     49 H          10.4632    5.9801    5.2379 H       1  UNL1        0.0624
     50 H          12.0420    6.8254    3.5912 H       1  UNL1        0.0611
     51 H          12.5327    5.9727    1.0363 H       1  UNL1        0.0271
     52 H          13.0205    4.2786    0.8109 H       1  UNL1        0.0271
     53 H          11.3687    4.6472    1.2647 H       1  UNL1        0.0271
     54 H          14.6239    4.9528    4.0852 H       1  UNL1        0.0271
     55 H          14.9068    4.6696    2.3783 H       1  UNL1        0.0271
     56 H          14.4477    6.2912    2.9285 H       1  UNL1        0.0271
@<TRIPOS>BOND
     1     1    29    1
     2     1    30    1
     3     1    31    1
     4     2     1    1
     5     2    32    1
     6     2    33    1
     7     3     2    1
     8     3    34    1
     9     3    35    1
    10     5     4    1
    11     5    37    1
    12     5    38    1
    13     6     5    1
    14     7     6    2
    15     8     6    1
    16     9     8    1
    17    10     9   ar
    18    11    10    1
    19    12    11    2
    20    14    13    1
    21    14    40    1
    22    14    41    1
    23    14    42    1
    24    16    15    1
    25    16    44    1
    26    16    45    1
    27    16    46    1
    28    17    15    1
    29    17    47    1
    30    18    10   ar
    31    19    18    1
    32    19    48    1
    33    20    18   ar
    34    21    20    1
    35    21    49    1
    36    22    21    2
    37    22    50    1
    38    23    22    1
    39    24    23    1
    40    24    51    1
    41    24    52    1
    42    24    53    1
    43    25    23    1
    44    25    54    1
    45    25    55    1
    46    25    56    1
    47    26    23    1
    48    27    26    1
    49    27    20   ar
    50    28    27   ar
    51    28     4    1
    52    28     9   ar
    53     4    36    1
    54     4     3    1
    55    13    39    1
    56    13    11    1
    57    15    43    1
    58    15    13    1
