@<TRIPOS>MOLECULE
>157.sdf
 66 67 0 0 0
SMALL
GASTEIGER

@<TRIPOS>ATOM
      1 O           1.5216    0.9920   -2.2852 O.3     1  UNL1       -0.3950
      2 C           1.3396    1.7652   -1.1065 C.3     1  UNL1        0.0442
      3 C           2.6728    2.3617   -0.6772 C.3     1  UNL1       -0.0297
      4 C           2.5314    3.2116    0.5865 C.3     1  UNL1       -0.0510
      5 C           3.8772    3.6630    1.1517 C.3     1  UNL1       -0.0530
      6 C           4.6674    4.5798    0.2169 C.3     1  UNL1       -0.0527
      7 C           5.9688    5.0264    0.8896 C.3     1  UNL1       -0.0458
      8 C           6.8519    5.8992   -0.0093 C.3     1  UNL1        0.0118
      9 C           6.2589    7.2812   -0.3191 C.3     1  UNL1        0.0880
     10 O           6.4120    7.5444   -1.7123 O.3     1  UNL1       -0.2315
     11 O           7.6968    8.1844   -1.9391 O.3     1  UNL1       -0.1965
     12 C           8.6526    7.2395   -2.4391 C.3     1  UNL1        0.2347
     13 C           8.1929    6.2567   -3.5834 C.3     1  UNL1        0.0069
     14 C           6.7372    6.0641   -4.0557 C.3     1  UNL1       -0.0480
     15 C           6.3829    6.8056   -5.3497 C.3     1  UNL1       -0.0529
     16 C           5.7424    8.1772   -5.1295 C.3     1  UNL1       -0.0531
     17 C           6.3118    9.2677   -6.0395 C.3     1  UNL1       -0.0531
     18 C           6.5567   10.5940   -5.3021 C.3     1  UNL1       -0.0531
     19 C           8.0561   10.9199   -5.1694 C.3     1  UNL1       -0.0531
     20 C           8.5276   10.9750   -3.7117 C.3     1  UNL1       -0.0531
     21 C           9.9817   10.5202   -3.5247 C.3     1  UNL1       -0.0529
     22 C          10.1422    9.4618   -2.4170 C.3     1  UNL1       -0.0480
     23 C           9.9164    8.0257   -2.9353 C.3     1  UNL1        0.0069
     24 O           9.1924    6.3397   -1.4176 O.3     1  UNL1       -0.1965
     25 O           9.0552    6.9702   -0.1147 O.3     1  UNL1       -0.2315
     26 C           8.2307    6.0821    0.6411 C.3     1  UNL1        0.0880
     27 H           2.1986    0.3201   -2.0941 H       1  UNL1        0.2094
     28 H           0.6127    2.5525   -1.3264 H       1  UNL1        0.0557
     29 H           0.9219    1.1177   -0.3285 H       1  UNL1        0.0557
     30 H           3.3943    1.5531   -0.5080 H       1  UNL1        0.0287
     31 H           3.0747    2.9595   -1.5025 H       1  UNL1        0.0287
     32 H           1.9010    4.0837    0.3787 H       1  UNL1        0.0266
     33 H           2.0178    2.6261    1.3599 H       1  UNL1        0.0266
     34 H           3.6902    4.1943    2.0943 H       1  UNL1        0.0265
     35 H           4.4816    2.7838    1.4013 H       1  UNL1        0.0265
     36 H           4.9062    4.0567   -0.7171 H       1  UNL1        0.0265
     37 H           4.0478    5.4450   -0.0481 H       1  UNL1        0.0265
     38 H           5.7437    5.5573    1.8214 H       1  UNL1        0.0269
     39 H           6.5354    4.1227    1.1630 H       1  UNL1        0.0269
     40 H           6.9866    5.3542   -0.9517 H       1  UNL1        0.0347
     41 H           6.6880    8.0903    0.2833 H       1  UNL1        0.0595
     42 H           5.1813    7.2995   -0.1352 H       1  UNL1        0.0595
     43 H           8.8011    6.4286   -4.4793 H       1  UNL1        0.0319
     44 H           8.5172    5.2516   -3.2718 H       1  UNL1        0.0319
     45 H           6.6514    4.9994   -4.2980 H       1  UNL1        0.0267
     46 H           5.9692    6.1980   -3.2960 H       1  UNL1        0.0267
     47 H           7.2614    6.8623   -5.9989 H       1  UNL1        0.0265
     48 H           5.6596    6.1839   -5.8975 H       1  UNL1        0.0265
     49 H           4.6639    8.0819   -5.3564 H       1  UNL1        0.0265
     50 H           5.7902    8.4621   -4.0817 H       1  UNL1        0.0265
     51 H           7.2244    8.9235   -6.5365 H       1  UNL1        0.0265
     52 H           5.5937    9.4476   -6.8472 H       1  UNL1        0.0265
     53 H           6.0858   11.3940   -5.8876 H       1  UNL1        0.0265
     54 H           6.0523   10.6123   -4.3268 H       1  UNL1        0.0265
     55 H           8.6564   10.2075   -5.7453 H       1  UNL1        0.0265
     56 H           8.2378   11.9005   -5.6264 H       1  UNL1        0.0265
     57 H           8.4506   12.0177   -3.3731 H       1  UNL1        0.0265
     58 H           7.8604   10.4025   -3.0685 H       1  UNL1        0.0265
     59 H          10.4175   10.1479   -4.4621 H       1  UNL1        0.0265
     60 H          10.5827   11.3951   -3.2543 H       1  UNL1        0.0265
     61 H          11.1818    9.5244   -2.0694 H       1  UNL1        0.0267
     62 H           9.5270    9.7053   -1.5449 H       1  UNL1        0.0267
     63 H          10.8100    7.4441   -2.6622 H       1  UNL1        0.0319
     64 H           9.9297    8.0580   -4.0293 H       1  UNL1        0.0319
     65 H           8.1310    6.5060    1.6455 H       1  UNL1        0.0595
     66 H           8.7475    5.1173    0.7444 H       1  UNL1        0.0595
@<TRIPOS>BOND
     1     1    27    1
     2     2     1    1
     3     2    28    1
     4     2    29    1
     5     3     2    1
     6     3    30    1
     7     3    31    1
     8     4     3    1
     9     4    32    1
    10     4    33    1
    11     5     4    1
    12     5    34    1
    13     5    35    1
    14     6     5    1
    15     6    36    1
    16     6    37    1
    17     7     6    1
    18     7    38    1
    19     7    39    1
    20     8     7    1
    21     8    40    1
    22     9     8    1
    23     9    41    1
    24     9    42    1
    25    10     9    1
    26    11    10    1
    27    12    11    1
    28    13    12    1
    29    13    43    1
    30    13    44    1
    31    14    13    1
    32    14    45    1
    33    14    46    1
    34    15    14    1
    35    15    47    1
    36    15    48    1
    37    16    15    1
    38    16    49    1
    39    16    50    1
    40    17    16    1
    41    17    51    1
    42    17    52    1
    43    18    17    1
    44    18    53    1
    45    18    54    1
    46    19    18    1
    47    19    55    1
    48    19    56    1
    49    20    19    1
    50    20    57    1
    51    20    58    1
    52    21    20    1
    53    21    59    1
    54    21    60    1
    55    22    21    1
    56    22    61    1
    57    22    62    1
    58    23    22    1
    59    23    12    1
    60    23    63    1
    61    23    64    1
    62    24    12    1
    63    25    24    1
    64    26    25    1
    65    26     8    1
    66    26    65    1
    67    26    66    1
