@<TRIPOS>MOLECULE
>94.sdf
 28 29 0 0 0
SMALL
GASTEIGER

@<TRIPOS>ATOM
      1 O          -2.2307    0.4578    0.1256 O.2     1  UNL1       -0.2733
      2 C          -1.0657    0.0832    0.1046 C.2     1  UNL1        0.2433
      3 C          -0.6368   -1.3684    0.0450 C.3     1  UNL1        0.1161
      4 N           0.7956   -1.2248    0.0629 N.am    1  UNL1       -0.1676
      5 N           1.6016   -2.3237   -0.0911 N.2     1  UNL1       -0.1802
      6 C           2.7915   -2.2714    0.4268 C.2     1  UNL1        0.0882
      7 C           3.6941   -3.3875    0.2839 C.ar    1  UNL1        0.1501
      8 C           3.5827   -4.5882   -0.3992 C.ar    1  UNL1       -0.0125
      9 C           4.7729   -5.3215   -0.1583 C.ar    1  UNL1        0.0086
     10 C           5.5349   -4.5175    0.6569 C.ar    1  UNL1        0.2802
     11 O           4.9040   -3.3414    0.9322 O.2     1  UNL1       -0.4330
     12 N           6.8205   -4.7178    1.2520 N.pl3   1  UNL1        0.0926
     13 O           7.3623   -5.8113    1.0250 O.2     1  UNL1       -0.1231
     14 O           7.2930   -3.8050    1.9402 O.2     1  UNL1       -0.1231
     15 C           1.1778    0.1280   -0.0352 C.2     1  UNL1        0.3319
     16 O           2.3069    0.5516   -0.2338 O.2     1  UNL1       -0.2501
     17 N           0.0406    0.8814    0.0987 N.am    1  UNL1       -0.2114
     18 C           0.0004    2.3243    0.1785 C.3     1  UNL1        0.0849
     19 C           0.1468    2.7687    1.5774 C.1     1  UNL1       -0.0859
     20 C           0.2649    3.1201    2.7229 C.1     1  UNL1       -0.1176
     21 H          -0.9630   -1.8367   -0.8860 H       1  UNL1        0.0582
     22 H          -0.9661   -1.9098    0.9338 H       1  UNL1        0.0582
     23 H           3.1463   -1.4190    1.0320 H       1  UNL1        0.0883
     24 H           2.7307   -4.8935   -0.9926 H       1  UNL1        0.0656
     25 H           5.0368   -6.3062   -0.5210 H       1  UNL1        0.0673
     26 H           0.7989    2.7453   -0.4415 H       1  UNL1        0.0606
     27 H          -0.9579    2.6785   -0.2187 H       1  UNL1        0.0606
     28 H           0.3750    3.4191    3.7408 H       1  UNL1        0.1228
@<TRIPOS>BOND
     1     2     1    2
     2     3     2    1
     3     3    21    1
     4     3    22    1
     5     4     3    1
     6     5     4    1
     7     6     5    2
     8     6    23    1
     9     7     6    1
    10     8     7   ar
    11     8    24    1
    12     9     8   ar
    13     9    25    1
    14    10     9   ar
    15    11    10   ar
    16    11     7   ar
    17    12    10    1
    18    13    12    2
    19    14    12    2
    20    15     4   am
    21    16    15    2
    22    17    15   am
    23    17     2   am
    24    18    17    1
    25    18    26    1
    26    18    27    1
    27    19    18    1
    28    20    19    3
    29    20    28    1
