@<TRIPOS>MOLECULE
>151.sdf
 77 80 0 0 0
SMALL
GASTEIGER

@<TRIPOS>ATOM
      1 C          -3.9435   -7.3394    3.8272 C.3     1  UNL1       -0.0616
      2 C          -3.8672   -6.9299    2.3656 C.3     1  UNL1       -0.0343
      3 C          -2.4712   -6.5795    1.8888 C.2     1  UNL1       -0.0661
      4 C          -1.4334   -7.6620    2.0690 C.3     1  UNL1       -0.0433
      5 C          -2.2441   -5.3817    1.3056 C.2     1  UNL1        0.0215
      6 C          -0.9653   -4.9460    0.7063 C.2     1  UNL1        0.3324
      7 O          -0.1780   -5.6729    0.1264 O.2     1  UNL1       -0.2456
      8 O          -0.7984   -3.6220    0.9521 O.3     1  UNL1       -0.4504
      9 C           0.5345   -3.1135    0.6731 C.3     1  UNL1        0.1819
     10 C           1.5629   -3.7134    1.6687 C.3     1  UNL1        0.1250
     11 O           2.8612   -3.8748    1.0802 O.3     1  UNL1       -0.3853
     12 C           1.6570   -2.8360    2.9256 C.3     1  UNL1        0.1105
     13 O           0.3580   -2.7752    3.5366 O.3     1  UNL1       -0.3865
     14 C           2.1148   -1.4114    2.5424 C.3     1  UNL1        0.0874
     15 C           3.6207   -1.2556    2.7279 C.3     1  UNL1       -0.0361
     16 O           1.7985   -1.0861    1.1734 O.3     1  UNL1       -0.3421
     17 C           0.5041   -1.5570    0.7973 C.3     1  UNL1        0.1997
     18 O           0.1092   -1.0363   -0.4760 O.3     1  UNL1       -0.3412
     19 C          -0.2388    0.3603   -0.6131 C.3     1  UNL1        0.0730
     20 C           1.0267    1.2340   -0.5708 C.3     1  UNL1       -0.0354
     21 C          -0.7635    0.4467   -2.0839 C.3     1  UNL1       -0.0234
     22 C          -2.1142   -0.1952   -2.4342 C.3     1  UNL1       -0.0468
     23 C          -3.2194   -0.1947   -1.4136 C.3     1  UNL1       -0.0319
     24 C          -3.6005    0.8897   -0.4048 C.3     1  UNL1       -0.0289
     25 C          -2.3990    1.7757   -0.1708 C.3     1  UNL1       -0.0294
     26 C          -2.4354    3.0085    0.7541 C.3     1  UNL1       -0.0404
     27 C          -3.6617    3.2190    1.6233 C.3     1  UNL1       -0.0621
     28 C          -1.1369    2.9203    1.5731 C.3     1  UNL1       -0.0498
     29 C          -0.8895    1.4372    1.7485 C.3     1  UNL1       -0.0471
     30 C          -1.3203    0.8057    0.4218 C.3     1  UNL1       -0.0087
     31 C          -4.4825    0.6071   -1.6365 C.3     1  UNL1       -0.0284
     32 C          -4.6634    1.7904   -2.5513 C.3     1  UNL1       -0.0593
     33 C          -5.6891   -0.3138   -1.6008 C.3     1  UNL1       -0.0593
     34 H          -3.3777   -6.6575    4.4704 H       1  UNL1        0.0233
     35 H          -3.5560   -8.3539    3.9733 H       1  UNL1        0.0233
     36 H          -4.9862   -7.3385    4.1621 H       1  UNL1        0.0233
     37 H          -4.5405   -6.0765    2.2139 H       1  UNL1        0.0307
     38 H          -4.2618   -7.7448    1.7407 H       1  UNL1        0.0307
     39 H          -0.4268   -7.3632    1.7699 H       1  UNL1        0.0274
     40 H          -1.3588   -7.9389    3.1257 H       1  UNL1        0.0274
     41 H          -1.7055   -8.5536    1.4971 H       1  UNL1        0.0274
     42 H          -3.0314   -4.6310    1.2571 H       1  UNL1        0.0688
     43 H           0.7956   -3.3803   -0.3599 H       1  UNL1        0.0813
     44 H           1.2512   -4.7129    1.9868 H       1  UNL1        0.0659
     45 H           2.9231   -3.2885    0.3033 H       1  UNL1        0.2101
     46 H           2.3328   -3.2848    3.6623 H       1  UNL1        0.0646
     47 H           0.4387   -2.2770    4.3687 H       1  UNL1        0.2100
     48 H           1.6124   -0.6720    3.1776 H       1  UNL1        0.0621
     49 H           3.9150   -1.4839    3.7581 H       1  UNL1        0.0255
     50 H           3.9334   -0.2330    2.4970 H       1  UNL1        0.0255
     51 H           4.1817   -1.9136    2.0567 H       1  UNL1        0.0255
     52 H          -0.2363   -1.2657    1.5484 H       1  UNL1        0.0949
     53 H           0.8047    2.2724   -0.8441 H       1  UNL1        0.0257
     54 H           1.5088    1.2452    0.4088 H       1  UNL1        0.0257
     55 H           1.7829    0.8553   -1.2697 H       1  UNL1        0.0257
     56 H          -0.7798    1.4923   -2.4184 H       1  UNL1        0.0293
     57 H          -0.0212   -0.0266   -2.7443 H       1  UNL1        0.0293
     58 H          -1.9241   -1.2453   -2.6927 H       1  UNL1        0.0269
     59 H          -2.4643    0.2519   -3.3712 H       1  UNL1        0.0269
     60 H          -3.2816   -1.1974   -0.9907 H       1  UNL1        0.0309
     61 H          -4.0411    0.5817    0.5411 H       1  UNL1        0.0312
     62 H          -2.0939    2.2020   -1.1277 H       1  UNL1        0.0310
     63 H          -2.3493    3.9115    0.1325 H       1  UNL1        0.0301
     64 H          -4.5306    3.4555    1.0010 H       1  UNL1        0.0233
     65 H          -3.5019    4.0740    2.2946 H       1  UNL1        0.0233
     66 H          -3.8862    2.3400    2.2379 H       1  UNL1        0.0233
     67 H          -0.3045    3.3656    1.0138 H       1  UNL1        0.0268
     68 H          -1.1932    3.4377    2.5364 H       1  UNL1        0.0268
     69 H          -1.5472    1.0666    2.5477 H       1  UNL1        0.0269
     70 H           0.1302    1.2030    2.0568 H       1  UNL1        0.0269
     71 H          -1.8173   -0.1254    0.7330 H       1  UNL1        0.0331
     72 H          -5.6404    1.7500   -3.0478 H       1  UNL1        0.0235
     73 H          -4.6499    2.7244   -1.9787 H       1  UNL1        0.0235
     74 H          -3.9033    1.8483   -3.3321 H       1  UNL1        0.0235
     75 H          -5.9350   -0.6325   -2.6221 H       1  UNL1        0.0235
     76 H          -5.4992   -1.2312   -1.0297 H       1  UNL1        0.0235
     77 H          -6.5604    0.1791   -1.1685 H       1  UNL1        0.0235
@<TRIPOS>BOND
     1     1    34    1
     2     1    35    1
     3     1    36    1
     4     2     1    1
     5     2    37    1
     6     2    38    1
     7     3     2    1
     8     4     3    1
     9     4    39    1
    10     4    40    1
    11     4    41    1
    12     5     3    2
    13     5    42    1
    14     6     5    1
    15     7     6    2
    16     8     6    1
    17     9     8    1
    18     9    43    1
    19    10     9    1
    20    10    44    1
    21    11    10    1
    22    11    45    1
    23    12    10    1
    24    13    47    1
    25    14    12    1
    26    14    48    1
    27    15    14    1
    28    15    49    1
    29    15    50    1
    30    15    51    1
    31    16    14    1
    32    17    16    1
    33    17     9    1
    34    20    53    1
    35    20    54    1
    36    20    55    1
    37    21    19    1
    38    21    56    1
    39    21    57    1
    40    22    21    1
    41    22    58    1
    42    22    59    1
    43    23    22    1
    44    23    60    1
    45    24    23    1
    46    24    61    1
    47    25    24    1
    48    25    62    1
    49    26    25    1
    50    27    64    1
    51    27    65    1
    52    27    66    1
    53    28    26    1
    54    28    67    1
    55    28    68    1
    56    29    28    1
    57    29    69    1
    58    29    70    1
    59    30    29    1
    60    30    19    1
    61    30    25    1
    62    30    71    1
    63    31    24    1
    64    31    23    1
    65    32    31    1
    66    32    72    1
    67    32    73    1
    68    32    74    1
    69    33    31    1
    70    33    75    1
    71    33    76    1
    72    33    77    1
    73    12    13    1
    74    12    46    1
    75    17    18    1
    76    17    52    1
    77    19    20    1
    78    19    18    1
    79    26    27    1
    80    26    63    1
