@<TRIPOS>MOLECULE
>52.sdf
 46 49 0 0 0
SMALL
GASTEIGER

@<TRIPOS>ATOM
      1 F           2.0868   -0.2023   -0.0119 F       1  UNL1       -0.2055
      2 C           0.7498   -0.1370   -0.0042 C.ar    1  UNL1        0.1235
      3 C           0.0739   -0.0671    1.2018 C.ar    1  UNL1       -0.0247
      4 C          -1.3219    0.0099    1.2034 C.ar    1  UNL1       -0.0379
      5 C          -2.0672    0.0178    0.0098 C.ar    1  UNL1        0.0299
      6 C          -1.3431   -0.0558   -1.1910 C.ar    1  UNL1       -0.0379
      7 C           0.0545   -0.1333   -1.2027 C.ar    1  UNL1       -0.0247
      8 N          -3.4421    0.1373    0.0363 N.pl3   1  UNL1       -0.3269
      9 C          -4.2096    0.7144   -1.0713 C.3     1  UNL1        0.0281
     10 C          -5.2764    1.6811   -0.5036 C.3     1  UNL1        0.0319
     11 N          -6.0796    1.0644    0.5650 N.am    1  UNL1       -0.2824
     12 C          -5.2807    0.4269    1.6269 C.3     1  UNL1        0.0319
     13 C          -4.2501   -0.5571    1.0502 C.3     1  UNL1        0.0281
     14 C          -7.4423    1.0379    0.7129 C.2     1  UNL1        0.3076
     15 O          -8.0275    0.4809    1.6276 O.2     1  UNL1       -0.2522
     16 N          -8.1699    1.7296   -0.2990 N.am    1  UNL1       -0.2544
     17 C          -9.5564    1.6756   -0.4071 C.ar    1  UNL1        0.1221
     18 C         -10.4664    0.9722    0.3427 C.ar    1  UNL1        0.0071
     19 C         -11.7463    1.2643   -0.2070 C.ar    1  UNL1        0.1125
     20 N         -11.6258    2.1032   -1.2531 N.ar    1  UNL1       -0.1707
     21 N         -10.3079    2.3345   -1.3422 N.ar    1  UNL1       -0.2633
     22 C         -13.0330    0.7475    0.2756 C.ar    1  UNL1        0.0909
     23 N         -12.9714   -0.0839    1.3489 N.ar    1  UNL1       -0.2534
     24 C         -14.1408   -0.5568    1.8297 C.ar    1  UNL1        0.0283
     25 C         -15.3778   -0.2445    1.2918 C.ar    1  UNL1       -0.0436
     26 C         -15.4208    0.6015    0.1900 C.ar    1  UNL1       -0.0583
     27 C         -14.2314    1.1069   -0.3307 C.ar    1  UNL1       -0.0341
     28 H           0.6295   -0.0598    2.1340 H       1  UNL1        0.0647
     29 H          -1.8173    0.1076    2.1651 H       1  UNL1        0.0637
     30 H          -1.8557   -0.0798   -2.1487 H       1  UNL1        0.0637
     31 H           0.5990   -0.1923   -2.1395 H       1  UNL1        0.0647
     32 H          -3.5845    1.2845   -1.7670 H       1  UNL1        0.0479
     33 H          -4.6980   -0.0900   -1.6350 H       1  UNL1        0.0479
     34 H          -4.7796    2.5495   -0.0534 H       1  UNL1        0.0480
     35 H          -5.8910    2.0434   -1.3271 H       1  UNL1        0.0480
     36 H          -4.7685    1.2341    2.1659 H       1  UNL1        0.0480
     37 H          -5.9130   -0.0981    2.3492 H       1  UNL1        0.0480
     38 H          -4.7710   -1.3960    0.5712 H       1  UNL1        0.0479
     39 H          -3.6600   -0.9851    1.8674 H       1  UNL1        0.0479
     40 H          -7.6833    2.3014   -0.9632 H       1  UNL1        0.1578
     41 H         -10.2888    0.3200    1.1864 H       1  UNL1        0.0674
     42 H          -9.9921    2.9562   -2.0769 H       1  UNL1        0.1903
     43 H         -14.0574   -1.2168    2.6895 H       1  UNL1        0.0830
     44 H         -16.2878   -0.6494    1.7219 H       1  UNL1        0.0633
     45 H         -16.3716    0.8705   -0.2603 H       1  UNL1        0.0619
     46 H         -14.2465    1.7709   -1.1881 H       1  UNL1        0.0639
@<TRIPOS>BOND
     1     2     1    1
     2     3     2   ar
     3     3    28    1
     4     4     3   ar
     5     4    29    1
     6     5     4   ar
     7     6     5   ar
     8     6    30    1
     9     7     6   ar
    10     7     2   ar
    11     7    31    1
    12     8     5    1
    13     9     8    1
    14     9    32    1
    15     9    33    1
    16    10     9    1
    17    10    34    1
    18    10    35    1
    19    11    10    1
    20    12    11    1
    21    12    36    1
    22    12    37    1
    23    13    12    1
    24    13     8    1
    25    13    38    1
    26    13    39    1
    27    14    11   am
    28    15    14    2
    29    16    14   am
    30    16    40    1
    31    17    16    1
    32    18    17   ar
    33    18    41    1
    34    19    18   ar
    35    20    19   ar
    36    21    20   ar
    37    21    17   ar
    38    21    42    1
    39    22    19    1
    40    23    22   ar
    41    24    23   ar
    42    24    43    1
    43    25    24   ar
    44    25    44    1
    45    26    25   ar
    46    26    45    1
    47    27    26   ar
    48    27    22   ar
    49    27    46    1
