@<TRIPOS>MOLECULE
>168_2.sdf
 22 23 0 0 0
SMALL
GASTEIGER

@<TRIPOS>ATOM
      1 C           4.1181   -0.2163    2.2712 C.3     1  UNL1       -0.0619
      2 C           3.1751   -1.3404    1.8669 C.3     1  UNL1       -0.0168
      3 C           3.0247   -1.4752    0.3497 C.3     1  UNL1        0.1209
      4 C           2.0716   -2.6377   -0.0331 C.3     1  UNL1        0.0646
      5 N           2.9185   -3.3951   -0.9118 N.ar    1  UNL1       -0.2952
      6 C           2.8837   -4.5459   -1.6011 C.ar    1  UNL1        0.0586
      7 C           4.1589   -4.6006   -2.1634 C.ar    1  UNL1        0.2357
      8 N           4.9494   -3.5173   -1.7722 N.ar    1  UNL1       -0.1709
      9 C           4.1455   -2.8427   -1.0016 C.ar    1  UNL1        0.3007
     10 O           4.3178   -1.7514   -0.2744 O.3     1  UNL1       -0.4584
     11 N           4.6800   -5.6367   -3.0290 N.pl3   1  UNL1        0.0767
     12 O           3.9288   -6.5978   -3.2557 O.2     1  UNL1       -0.1246
     13 O           5.8245   -5.4944   -3.4835 O.2     1  UNL1       -0.1246
     14 H           4.1002   -0.0862    3.3581 H       1  UNL1        0.0231
     15 H           5.1483   -0.4391    1.9779 H       1  UNL1        0.0231
     16 H           3.8240    0.7324    1.8125 H       1  UNL1        0.0231
     17 H           3.5585   -2.2760    2.2911 H       1  UNL1        0.0299
     18 H           2.1898   -1.1559    2.3115 H       1  UNL1        0.0299
     19 H           2.6531   -0.5342   -0.0747 H       1  UNL1        0.0752
     20 H           1.7783   -3.2699    0.8083 H       1  UNL1        0.0530
     21 H           1.1957   -2.2899   -0.5870 H       1  UNL1        0.0530
     22 H           2.0351   -5.2138   -1.6528 H       1  UNL1        0.0850
@<TRIPOS>BOND
     1     1    14    1
     2     1    15    1
     3     1    16    1
     4     2     1    1
     5     2    17    1
     6     2    18    1
     7     4     3    1
     8     4    20    1
     9     4    21    1
    10     5     4    1
    11     6     5   ar
    12     6    22    1
    13     7     6   ar
    14     8     7   ar
    15     9     8   ar
    16     9     5   ar
    17    10     9    1
    18    10     3    1
    19    11     7    1
    20    12    11    2
    21    13    11    2
    22     3    19    1
    23     3     2    1
