@<TRIPOS>MOLECULE
>182.sdf
 55 60 0 0 0
SMALL
GASTEIGER

@<TRIPOS>ATOM
      1 O           2.7074   -0.4793    1.1221 O.2     1  UNL1       -0.2667
      2 C           2.3917    0.1536    0.1201 C.2     1  UNL1        0.2840
      3 N           1.3727    1.0983    0.0469 N.am    1  UNL1       -0.2016
      4 N           0.6382    1.3448    1.1790 N.2     1  UNL1       -0.1869
      5 C          -0.3202    2.2206    1.1162 C.2     1  UNL1        0.0594
      6 C          -1.1239    2.5007    2.2858 C.ar    1  UNL1        0.0323
      7 C          -1.0311    1.9576    3.5515 C.ar    1  UNL1       -0.0454
      8 C          -2.0127    2.4814    4.4457 C.ar    1  UNL1       -0.0458
      9 C          -2.8436    3.4204    3.8539 C.ar    1  UNL1        0.0265
     10 S          -2.3927    3.6434    2.2015 S.2     1  UNL1       -0.0868
     11 C          -3.9425    4.1484    4.4635 C.ar    1  UNL1        0.0259
     12 C          -4.8142    5.0520    3.8734 C.ar    1  UNL1       -0.0464
     13 C          -5.7788    5.5839    4.7830 C.ar    1  UNL1       -0.0541
     14 C          -5.6263    5.0722    6.0492 C.ar    1  UNL1       -0.0237
     15 S          -4.3327    3.9625    6.1352 S.2     1  UNL1       -0.0961
     16 C           3.1523   -0.1073   -1.1888 C.ar    1  UNL1        0.1586
     17 N           2.8218    0.5637   -2.2667 N.ar    1  UNL1       -0.1578
     18 N           3.4612    0.2730   -3.5106 N.ar    1  UNL1       -0.1943
     19 C           2.8779    0.9303   -4.6563 C.ar    1  UNL1        0.0693
     20 C           3.0394    0.4379   -5.9639 C.ar    1  UNL1       -0.0361
     21 C           2.4378    1.0465   -7.0667 C.ar    1  UNL1       -0.0598
     22 C           1.6583    2.1756   -6.8843 C.ar    1  UNL1       -0.0616
     23 C           1.4971    2.7024   -5.6032 C.ar    1  UNL1       -0.0598
     24 C           2.1001    2.0857   -4.4994 C.ar    1  UNL1       -0.0361
     25 C           4.5106   -0.6769   -3.6573 C.ar    1  UNL1        0.2981
     26 O           5.0494   -0.9595   -4.7203 O.2     1  UNL1       -0.2635
     27 C           4.8849   -1.3076   -2.4319 C.ar    1  UNL1        0.1429
     28 C           4.2064   -1.0938   -1.2582 C.ar    1  UNL1        0.0577
     29 C           4.7448   -2.0295   -0.3661 C.ar    1  UNL1        0.0600
     30 N           5.6740   -2.7992   -0.9415 N.ar    1  UNL1       -0.1734
     31 N           5.8401   -2.2730   -2.1904 N.ar    1  UNL1       -0.2267
     32 C           6.8931   -2.7443   -3.0256 C.ar    1  UNL1        0.0662
     33 C           7.3282   -4.0710   -2.9086 C.ar    1  UNL1       -0.0362
     34 C           8.3128   -4.5622   -3.7728 C.ar    1  UNL1       -0.0598
     35 C           8.8856   -3.7300   -4.7347 C.ar    1  UNL1       -0.0616
     36 C           8.4907   -2.3990   -4.8232 C.ar    1  UNL1       -0.0598
     37 C           7.5105   -1.9039   -3.9616 C.ar    1  UNL1       -0.0362
     38 H           1.1633    1.5582   -0.8314 H       1  UNL1        0.1776
     39 H          -0.5430    2.7609    0.1806 H       1  UNL1        0.0857
     40 H          -0.2914    1.2122    3.8270 H       1  UNL1        0.0629
     41 H          -2.0957    2.1700    5.4799 H       1  UNL1        0.0629
     42 H          -4.7731    5.3321    2.8283 H       1  UNL1        0.0629
     43 H          -6.5438    6.3042    4.5183 H       1  UNL1        0.0623
     44 H          -6.2133    5.2963    6.9309 H       1  UNL1        0.0693
     45 H           3.6012   -0.4643   -6.1856 H       1  UNL1        0.0639
     46 H           2.5757    0.6214   -8.0583 H       1  UNL1        0.0618
     47 H           1.1739    2.6442   -7.7385 H       1  UNL1        0.0618
     48 H           0.8970    3.5986   -5.4631 H       1  UNL1        0.0618
     49 H           1.9733    2.5382   -3.5215 H       1  UNL1        0.0639
     50 H           4.4840   -2.2185    0.6695 H       1  UNL1        0.0855
     51 H           6.8784   -4.7443   -2.1817 H       1  UNL1        0.0639
     52 H           8.6258   -5.6008   -3.7035 H       1  UNL1        0.0618
     53 H           9.6436   -4.1154   -5.4114 H       1  UNL1        0.0618
     54 H           8.9384   -1.7416   -5.5644 H       1  UNL1        0.0618
     55 H           7.2602   -0.8497   -4.0384 H       1  UNL1        0.0639
@<TRIPOS>BOND
     1     2     1    2
     2     3     2   am
     3     3    38    1
     4     4     3    1
     5     5     4    2
     6     5    39    1
     7     6     5    1
     8     7     6   ar
     9     7    40    1
    10     8     7   ar
    11     8    41    1
    12     9     8   ar
    13    10     9   ar
    14    10     6   ar
    15    11     9    1
    16    12    11   ar
    17    12    42    1
    18    13    12   ar
    19    13    43    1
    20    14    13   ar
    21    14    44    1
    22    15    14   ar
    23    15    11   ar
    24    16     2    1
    25    17    16   ar
    26    18    17   ar
    27    19    18    1
    28    20    19   ar
    29    20    45    1
    30    21    20   ar
    31    21    46    1
    32    22    21   ar
    33    22    47    1
    34    23    22   ar
    35    23    48    1
    36    24    23   ar
    37    24    19   ar
    38    24    49    1
    39    25    18   ar
    40    26    25    2
    41    27    25   ar
    42    28    27   ar
    43    28    16   ar
    44    29    28   ar
    45    29    50    1
    46    30    29   ar
    47    31    30   ar
    48    31    27   ar
    49    32    31    1
    50    33    32   ar
    51    33    51    1
    52    34    33   ar
    53    34    52    1
    54    35    34   ar
    55    35    53    1
    56    36    35   ar
    57    36    54    1
    58    37    36   ar
    59    37    32   ar
    60    37    55    1
