@<TRIPOS>MOLECULE
>156.sdf
 32 33 0 0 0
SMALL
GASTEIGER

@<TRIPOS>ATOM
      1 O           1.0522   -0.1350    0.1745 O.2     1  UNL1       -0.2879
      2 C           2.2721   -0.0573    0.1591 C.2     1  UNL1        0.1790
      3 C           3.0401    0.8584    1.0470 C.2     1  UNL1       -0.0144
      4 C           2.4131    1.6938    1.8895 C.2     1  UNL1       -0.0510
      5 C           3.1097    2.6745    2.7396 C.ar    1  UNL1       -0.0249
      6 C           4.3109    3.2830    2.3442 C.ar    1  UNL1       -0.0546
      7 C           4.9202    4.2542    3.1428 C.ar    1  UNL1       -0.0612
      8 C           4.3296    4.6409    4.3422 C.ar    1  UNL1       -0.0617
      9 C           3.1310    4.0550    4.7437 C.ar    1  UNL1       -0.0612
     10 C           2.5225    3.0803    3.9457 C.ar    1  UNL1       -0.0546
     11 C           3.1275   -0.8568   -0.7615 C.2     1  UNL1       -0.0144
     12 C           2.5838   -1.6963   -1.6568 C.2     1  UNL1       -0.0510
     13 C           3.3660   -2.5148   -2.5999 C.ar    1  UNL1       -0.0249
     14 C           4.6561   -2.9804   -2.3060 C.ar    1  UNL1       -0.0546
     15 C           5.3565   -3.7763   -3.2169 C.ar    1  UNL1       -0.0612
     16 C           4.7706   -4.1294   -4.4295 C.ar    1  UNL1       -0.0617
     17 C           3.4830   -3.6897   -4.7293 C.ar    1  UNL1       -0.0612
     18 C           2.7837   -2.8909   -3.8178 C.ar    1  UNL1       -0.0546
     19 H           4.1199    0.8340    0.9713 H       1  UNL1        0.0656
     20 H           1.3262    1.6806    1.9636 H       1  UNL1        0.0625
     21 H           4.7819    3.0275    1.3992 H       1  UNL1        0.0623
     22 H           5.8489    4.7168    2.8190 H       1  UNL1        0.0618
     23 H           4.7978    5.4044    4.9578 H       1  UNL1        0.0618
     24 H           2.6638    4.3627    5.6760 H       1  UNL1        0.0618
     25 H           1.5833    2.6428    4.2776 H       1  UNL1        0.0623
     26 H           4.1988   -0.7203   -0.6885 H       1  UNL1        0.0656
     27 H           1.5006   -1.7869   -1.7270 H       1  UNL1        0.0625
     28 H           5.1334   -2.7441   -1.3587 H       1  UNL1        0.0623
     29 H           6.3563   -4.1268   -2.9745 H       1  UNL1        0.0618
     30 H           5.3131   -4.7518   -5.1359 H       1  UNL1        0.0618
     31 H           3.0199   -3.9707   -5.6716 H       1  UNL1        0.0618
     32 H           1.7796   -2.5616   -4.0757 H       1  UNL1        0.0623
@<TRIPOS>BOND
     1     2     1    2
     2     3     2    1
     3     3    19    1
     4     4     3    2
     5     4    20    1
     6     5     4    1
     7     6     5   ar
     8     6    21    1
     9     7     6   ar
    10     7    22    1
    11     8     7   ar
    12     8    23    1
    13     9     8   ar
    14     9    24    1
    15    10     9   ar
    16    10     5   ar
    17    10    25    1
    18    11     2    1
    19    11    26    1
    20    12    11    2
    21    12    27    1
    22    13    12    1
    23    14    13   ar
    24    14    28    1
    25    15    14   ar
    26    15    29    1
    27    16    15   ar
    28    16    30    1
    29    17    16   ar
    30    17    31    1
    31    18    17   ar
    32    18    13   ar
    33    18    32    1
