@<TRIPOS>MOLECULE
>57.sdf
 41 43 0 0 0
SMALL
GASTEIGER

@<TRIPOS>ATOM
      1 C           3.5272    0.7080    1.0665 C.3     1  UNL1       -0.0494
      2 C           2.5488   -0.1471    0.2684 C.3     1  UNL1        0.0097
      3 N           3.0116   -0.5578   -1.0722 N.pl3   1  UNL1       -0.3258
      4 C           2.0046   -1.2557   -1.9055 C.3     1  UNL1        0.0372
      5 C           1.2480   -0.3493   -2.8650 C.ar    1  UNL1       -0.0301
      6 C           1.4154    1.0427   -2.9022 C.ar    1  UNL1       -0.0557
      7 C           0.6133    1.8384   -3.7265 C.ar    1  UNL1       -0.0431
      8 C          -0.3559    1.2483   -4.5333 C.ar    1  UNL1        0.0410
      9 CL         -1.3936    2.2347   -5.4877 Cl      1  UNL1       -0.0835
     10 C          -0.5020   -0.1353   -4.5557 C.ar    1  UNL1       -0.0431
     11 C           0.2984   -0.9291   -3.7283 C.ar    1  UNL1       -0.0557
     12 C           4.3259   -0.9391   -1.3267 C.ar    1  UNL1        0.0308
     13 C           5.1911   -1.4493   -0.3617 C.ar    1  UNL1       -0.0386
     14 C           6.5461   -1.6656   -0.6402 C.ar    1  UNL1       -0.0338
     15 C           7.0767   -1.4506   -1.9019 C.ar    1  UNL1        0.0780
     16 N           8.3767   -1.6654   -2.1084 N.ar    1  UNL1       -0.2146
     17 C           8.8323   -1.4890   -3.3481 C.ar    1  UNL1        0.2148
     18 N          10.1800   -1.6867   -3.5502 N.pl3   1  UNL1       -0.3274
     19 N           8.1046   -1.0815   -4.3900 N.ar    1  UNL1       -0.1995
     20 C           6.8057   -0.8543   -4.1616 C.ar    1  UNL1        0.1291
     21 N           6.0559   -0.4736   -5.2822 N.pl3   1  UNL1       -0.3425
     22 C           6.2135   -1.0209   -2.9074 C.ar    1  UNL1        0.0418
     23 C           4.8511   -0.7744   -2.6149 C.ar    1  UNL1       -0.0282
     24 H           3.0011    1.2367    1.8703 H       1  UNL1        0.0245
     25 H           4.2905    0.1083    1.5670 H       1  UNL1        0.0245
     26 H           4.0360    1.4542    0.4428 H       1  UNL1        0.0245
     27 H           2.2496   -1.0208    0.8582 H       1  UNL1        0.0461
     28 H           1.6481    0.4641    0.1270 H       1  UNL1        0.0461
     29 H           2.4568   -2.0727   -2.4853 H       1  UNL1        0.0513
     30 H           1.2637   -1.7308   -1.2476 H       1  UNL1        0.0513
     31 H           2.1638    1.5229   -2.2755 H       1  UNL1        0.0621
     32 H           0.7403    2.9177   -3.7198 H       1  UNL1        0.0632
     33 H          -1.2449   -0.6002   -5.1986 H       1  UNL1        0.0632
     34 H           0.1637   -2.0094   -3.7498 H       1  UNL1        0.0621
     35 H           4.8361   -1.6905    0.6354 H       1  UNL1        0.0637
     36 H           7.2026   -2.0098    0.1547 H       1  UNL1        0.0639
     37 H          10.6741   -1.5693   -2.6770 H       1  UNL1        0.1452
     38 H          10.4947   -1.1425   -4.3427 H       1  UNL1        0.1452
     39 H           5.5328    0.3771   -5.1128 H       1  UNL1        0.1437
     40 H           6.7051   -0.3762   -6.0579 H       1  UNL1        0.1437
     41 H           4.1999   -0.4105   -3.4063 H       1  UNL1        0.0644
@<TRIPOS>BOND
     1     1    24    1
     2     1    25    1
     3     1    26    1
     4     2     1    1
     5     2    27    1
     6     2    28    1
     7     3     2    1
     8     4     3    1
     9     4    29    1
    10     4    30    1
    11     5     4    1
    12     6     5   ar
    13     6    31    1
    14     7     6   ar
    15     7    32    1
    16     8     7   ar
    17     9     8    1
    18    10     8   ar
    19    10    33    1
    20    11    10   ar
    21    11     5   ar
    22    11    34    1
    23    12     3    1
    24    13    12   ar
    25    13    35    1
    26    14    13   ar
    27    14    36    1
    28    15    14   ar
    29    16    15   ar
    30    17    16   ar
    31    18    17    1
    32    18    37    1
    33    18    38    1
    34    19    17   ar
    35    20    19   ar
    36    21    20    1
    37    21    39    1
    38    21    40    1
    39    22    20   ar
    40    22    15   ar
    41    23    22   ar
    42    23    12   ar
    43    23    41    1
