@<TRIPOS>MOLECULE
>15.sdf
 37 39 0 0 0
SMALL
GASTEIGER

@<TRIPOS>ATOM
      1 C           1.0803    0.0901    1.1629 C.3     1  UNL1        0.0125
      2 C           2.5050   -0.1139    1.6003 C.2     1  UNL1        0.2141
      3 O           2.8943    0.2893    2.6931 O.2     1  UNL1       -0.2758
      4 N           3.2919   -0.7661    0.6659 N.am    1  UNL1       -0.2857
      5 C           4.6912   -0.8145    0.7809 C.ar    1  UNL1        0.0354
      6 C           5.3789   -2.0321    0.7070 C.ar    1  UNL1       -0.0145
      7 C           6.7707   -2.0840    0.7985 C.ar    1  UNL1        0.0734
      8 N           7.4242   -3.2705    0.8137 N.ar    1  UNL1       -0.2466
      9 C           8.7705   -3.2905    0.9602 C.ar    1  UNL1        0.0734
     10 C           9.5153   -2.1038    1.0548 C.ar    1  UNL1        0.0011
     11 C          10.9031   -2.1393    1.2336 C.ar    1  UNL1       -0.0508
     12 C          11.5706   -3.3571    1.3282 C.ar    1  UNL1       -0.0398
     13 C          10.8647   -4.5554    1.2171 C.ar    1  UNL1        0.0354
     14 N          11.4889   -5.8258    1.2876 N.am    1  UNL1       -0.2857
     15 C          12.8394   -6.0797    1.4768 C.2     1  UNL1        0.2141
     16 C          13.1875   -7.5455    1.4849 C.3     1  UNL1        0.0125
     17 O          13.7309   -5.2374    1.6130 O.2     1  UNL1       -0.2758
     18 C           9.4750   -4.4992    1.0321 C.ar    1  UNL1       -0.0145
     19 C           8.8459   -0.8883    0.9880 C.ar    1  UNL1       -0.0434
     20 C           7.4600   -0.8584    0.8881 C.ar    1  UNL1        0.0011
     21 C           6.7787    0.3652    0.9072 C.ar    1  UNL1       -0.0508
     22 C           5.3934    0.3829    0.8877 C.ar    1  UNL1       -0.0398
     23 H           0.4025   -0.3932    1.8710 H       1  UNL1        0.0323
     24 H           0.8846    1.1667    1.1437 H       1  UNL1        0.0323
     25 H           0.8994   -0.3113    0.1631 H       1  UNL1        0.0323
     26 H           2.8478   -1.3989    0.0136 H       1  UNL1        0.1548
     27 H           4.8302   -2.9690    0.6609 H       1  UNL1        0.0657
     28 H          11.4773   -1.2199    1.3209 H       1  UNL1        0.0625
     29 H          12.6396   -3.3252    1.4944 H       1  UNL1        0.0636
     30 H          10.8747   -6.6249    1.1892 H       1  UNL1        0.1548
     31 H          13.7557   -7.7786    0.5795 H       1  UNL1        0.0323
     32 H          13.8068   -7.7553    2.3630 H       1  UNL1        0.0323
     33 H          12.3043   -8.1860    1.5273 H       1  UNL1        0.0323
     34 H           8.8953   -5.4164    0.9500 H       1  UNL1        0.0657
     35 H           9.4036    0.0451    1.0458 H       1  UNL1        0.0631
     36 H           7.3197    1.3074    0.9577 H       1  UNL1        0.0625
     37 H           4.8688    1.3347    0.9139 H       1  UNL1        0.0636
@<TRIPOS>BOND
     1     1    23    1
     2     1    24    1
     3     1    25    1
     4     2     1    1
     5     3     2    2
     6     4     2   am
     7     4    26    1
     8     5     4    1
     9     6     5   ar
    10     6    27    1
    11     7     6   ar
    12     8     7   ar
    13     9     8   ar
    14    10     9   ar
    15    11    10   ar
    16    11    28    1
    17    12    11   ar
    18    12    29    1
    19    13    12   ar
    20    14    13    1
    21    14    30    1
    22    15    14   am
    23    16    15    1
    24    16    31    1
    25    16    32    1
    26    16    33    1
    27    17    15    2
    28    18    13   ar
    29    18     9   ar
    30    18    34    1
    31    19    10   ar
    32    19    35    1
    33    20    19   ar
    34    20     7   ar
    35    21    20   ar
    36    21    36    1
    37    22    21   ar
    38    22     5   ar
    39    22    37    1
