@<TRIPOS>MOLECULE
>61.sdf
 54 59 0 0 0
SMALL
GASTEIGER

@<TRIPOS>ATOM
      1 C           2.9729   -3.9371    3.5088 C.3     1  UNL1        0.0820
      2 O           3.8261   -2.8452    3.8516 O.3     1  UNL1       -0.4634
      3 C           3.5296   -2.2427    5.0340 C.2     1  UNL1        0.3575
      4 O           2.6105   -2.5481    5.7794 O.2     1  UNL1       -0.2432
      5 C           4.5037   -1.1387    5.3129 C.ar    1  UNL1        0.1487
      6 N           5.4533   -0.8879    4.3704 N.ar    1  UNL1       -0.2394
      7 C           6.3764    0.1126    4.5518 C.ar    1  UNL1        0.1046
      8 C           7.4123    0.2952    3.4297 C.3     1  UNL1        0.1400
      9 N           8.2074   -0.9242    3.2556 N.pl3   1  UNL1       -0.3200
     10 C           9.2651   -1.0846    4.1562 C.ar    1  UNL1        0.0410
     11 C           9.8115   -2.3510    4.3861 C.ar    1  UNL1       -0.0401
     12 C          10.9127   -2.5125    5.2343 C.ar    1  UNL1       -0.0600
     13 C          11.4964   -1.4053    5.8459 C.ar    1  UNL1       -0.0609
     14 C          10.9937   -0.1340    5.5870 C.ar    1  UNL1       -0.0478
     15 C           9.8972    0.0182    4.7269 C.ar    1  UNL1        0.0581
     16 C           9.4086    1.3664    4.3821 C.2     1  UNL1        0.2544
     17 O           9.9561    2.3336    4.9107 O.2     1  UNL1       -0.2695
     18 N           8.2861    1.4588    3.5486 N.am    1  UNL1       -0.2427
     19 C           7.8966    2.7097    2.9476 C.ar    1  UNL1        0.0389
     20 C           8.8511    3.7144    2.7135 C.ar    1  UNL1       -0.0388
     21 C           8.5125    4.9175    2.0849 C.ar    1  UNL1       -0.0416
     22 C           7.2050    5.1369    1.6753 C.ar    1  UNL1        0.0411
     23 CL          6.7911    6.5995    0.8736 Cl      1  UNL1       -0.0835
     24 C           6.2339    4.1691    1.9051 C.ar    1  UNL1       -0.0416
     25 C           6.5769    2.9649    2.5359 C.ar    1  UNL1       -0.0388
     26 C           6.2766    0.8511    5.7444 C.ar    1  UNL1        0.0726
     27 N           7.0111    1.9226    6.2028 N.ar    1  UNL1       -0.3526
     28 C           6.6290    2.2988    7.4616 C.ar    1  UNL1        0.0475
     29 C           5.5600    1.4887    7.8232 C.ar    1  UNL1        0.0075
     30 C           4.9767    1.6907    9.0916 C.ar    1  UNL1       -0.0520
     31 C           5.4968    2.6851    9.9350 C.ar    1  UNL1       -0.0611
     32 C           6.5721    3.4729    9.5347 C.ar    1  UNL1       -0.0598
     33 C           7.1608    3.2964    8.2837 C.ar    1  UNL1       -0.0378
     34 C           5.3214    0.5856    6.7332 C.ar    1  UNL1        0.0115
     35 C           4.3924   -0.4422    6.5091 C.ar    1  UNL1       -0.0195
     36 H           2.9567   -4.6859    4.3071 H       1  UNL1        0.0661
     37 H           1.9622   -3.5779    3.2921 H       1  UNL1        0.0661
     38 H           3.3750   -4.4068    2.6066 H       1  UNL1        0.0661
     39 H           6.8458    0.3848    2.4951 H       1  UNL1        0.0781
     40 H           7.5922   -1.7376    3.2348 H       1  UNL1        0.1482
     41 H           9.3854   -3.2270    3.9035 H       1  UNL1        0.0636
     42 H          11.3218   -3.5047    5.4081 H       1  UNL1        0.0618
     43 H          12.3537   -1.5282    6.5031 H       1  UNL1        0.0618
     44 H          11.4643    0.7360    6.0392 H       1  UNL1        0.0626
     45 H           9.8964    3.5748    2.9803 H       1  UNL1        0.0637
     46 H           9.2823    5.6647    1.9115 H       1  UNL1        0.0633
     47 H           5.2059    4.3411    1.5953 H       1  UNL1        0.0633
     48 H           5.7674    2.2606    2.7069 H       1  UNL1        0.0637
     49 H           7.7597    2.3817    5.7019 H       1  UNL1        0.1660
     50 H           4.1418    1.0805    9.4228 H       1  UNL1        0.0624
     51 H           5.0555    2.8394   10.9176 H       1  UNL1        0.0618
     52 H           6.9642    4.2366   10.2027 H       1  UNL1        0.0618
     53 H           8.0024    3.9037    7.9657 H       1  UNL1        0.0638
     54 H           3.6264   -0.6844    7.2378 H       1  UNL1        0.0648
@<TRIPOS>BOND
     1     1    36    1
     2     1    37    1
     3     1    38    1
     4     2     1    1
     5     3     2    1
     6     4     3    2
     7     5     3    1
     8     6     5   ar
     9     7     6   ar
    10     9     8    1
    11     9    40    1
    12    10     9    1
    13    11    10   ar
    14    11    41    1
    15    12    11   ar
    16    12    42    1
    17    13    12   ar
    18    13    43    1
    19    14    13   ar
    20    14    44    1
    21    15    14   ar
    22    15    10   ar
    23    16    15    1
    24    17    16    2
    25    18    16   am
    26    18     8    1
    27    19    18    1
    28    20    19   ar
    29    20    45    1
    30    21    20   ar
    31    21    46    1
    32    22    21   ar
    33    23    22    1
    34    24    22   ar
    35    24    47    1
    36    25    24   ar
    37    25    19   ar
    38    25    48    1
    39    26     7   ar
    40    27    26   ar
    41    27    49    1
    42    28    27   ar
    43    29    28   ar
    44    30    29   ar
    45    30    50    1
    46    31    30   ar
    47    31    51    1
    48    32    31   ar
    49    32    52    1
    50    33    32   ar
    51    33    28   ar
    52    33    53    1
    53    34    29   ar
    54    34    26   ar
    55    35    34   ar
    56    35     5   ar
    57    35    54    1
    58     8    39    1
    59     8     7    1
