@<TRIPOS>MOLECULE
>161.sdf
 44 46 0 0 0
SMALL
GASTEIGER

@<TRIPOS>ATOM
      1 C           0.9453    0.8459   -2.5993 C.3     1  UNL1       -0.0650
      2 C           2.4659    0.8574   -2.6350 C.3     1  UNL1       -0.0519
      3 C           3.0589    0.1483   -1.4148 C.3     1  UNL1       -0.0278
      4 C           4.5709    0.1436   -1.4151 C.ar    1  UNL1       -0.0431
      5 C           5.2705   -1.0745   -1.4504 C.ar    1  UNL1       -0.0131
      6 C           6.6685   -1.1146   -1.4158 C.ar    1  UNL1        0.1631
      7 O           7.1922   -2.3782   -1.4511 O.3     1  UNL1       -0.4914
      8 C           8.6099   -2.5268   -1.4343 C.3     1  UNL1        0.0790
      9 C           7.3549    0.1008   -1.3420 C.ar    1  UNL1        0.1805
     10 O           8.7543    0.0875   -1.2328 O.2     1  UNL1       -0.4179
     11 C           9.4813    1.2161   -0.9259 C.ar    1  UNL1        0.3483
     12 O          10.6280    1.1223   -0.5004 O.2     1  UNL1       -0.2444
     13 C           8.8271    2.5057   -1.2067 C.ar    1  UNL1        0.1072
     14 C           7.4883    2.5558   -1.3369 C.ar    1  UNL1       -0.0332
     15 C           6.6948    1.3308   -1.3295 C.ar    1  UNL1        0.0222
     16 C           5.2950    1.3470   -1.3570 C.ar    1  UNL1       -0.0476
     17 C           9.5903    3.7864   -1.2972 C.2     1  UNL1        0.2000
     18 O           9.0532    4.8616   -1.0383 O.2     1  UNL1       -0.2864
     19 C          11.0220    3.7795   -1.7236 C.ar    1  UNL1        0.0229
     20 C          11.5495    2.8225   -2.6048 C.ar    1  UNL1       -0.0445
     21 C          12.9123    2.8232   -2.9234 C.ar    1  UNL1        0.0163
     22 C          13.7404    3.8272   -2.4112 C.ar    1  UNL1        0.2732
     23 C          13.2152    4.8279   -1.5837 C.ar    1  UNL1        0.0163
     24 C          11.8594    4.7952   -1.2371 C.ar    1  UNL1       -0.0445
     25 N          15.1696    3.8300   -2.7511 N.pl3   1  UNL1        0.0796
     26 O          15.6006    2.8959   -3.4402 O.co2   1  UNL1       -0.5760
     27 O          15.8602    4.7720   -2.3299 O.2     1  UNL1        0.0414
     28 H           0.5428    1.3680   -3.4730 H       1  UNL1        0.0230
     29 H           0.5586   -0.1781   -2.6069 H       1  UNL1        0.0230
     30 H           0.5709    1.3489   -1.7019 H       1  UNL1        0.0230
     31 H           2.8108    0.3705   -3.5548 H       1  UNL1        0.0266
     32 H           2.8064    1.8977   -2.6786 H       1  UNL1        0.0266
     33 H           2.7135    0.6272   -0.4896 H       1  UNL1        0.0313
     34 H           2.6843   -0.8827   -1.3828 H       1  UNL1        0.0313
     35 H           4.7229   -2.0151   -1.4945 H       1  UNL1        0.0658
     36 H           9.0694   -2.0549   -2.3083 H       1  UNL1        0.0660
     37 H           9.0341   -2.1538   -0.4952 H       1  UNL1        0.0660
     38 H           8.8411   -3.5949   -1.4849 H       1  UNL1        0.0660
     39 H           6.9678    3.4998   -1.4873 H       1  UNL1        0.0634
     40 H           4.7630    2.2938   -1.3294 H       1  UNL1        0.0627
     41 H          10.9296    2.0408   -3.0359 H       1  UNL1        0.0627
     42 H          13.3063    2.0334   -3.5608 H       1  UNL1        0.0685
     43 H          13.8428    5.6274   -1.1944 H       1  UNL1        0.0685
     44 H          11.4597    5.5629   -0.5753 H       1  UNL1        0.0627
@<TRIPOS>UNITY_ATOM_ATTR
25 1
charge 1
26 1
charge -1
@<TRIPOS>BOND
     1     1    28    1
     2     1    29    1
     3     1    30    1
     4     2     1    1
     5     2    31    1
     6     2    32    1
     7     3     2    1
     8     3    33    1
     9     3    34    1
    10     4     3    1
    11     5     4   ar
    12     5    35    1
    13     6     5   ar
    14     7     6    1
    15     8     7    1
    16     8    36    1
    17     8    37    1
    18     8    38    1
    19     9     6   ar
    20    10     9   ar
    21    11    10   ar
    22    12    11    2
    23    13    11   ar
    24    14    13   ar
    25    14    39    1
    26    15    14   ar
    27    15     9   ar
    28    16    15   ar
    29    16     4   ar
    30    16    40    1
    31    17    13    1
    32    18    17    2
    33    19    17    1
    34    20    19   ar
    35    20    41    1
    36    21    20   ar
    37    21    42    1
    38    22    21   ar
    39    23    22   ar
    40    23    43    1
    41    24    23   ar
    42    24    19   ar
    43    24    44    1
    44    25    22    1
    45    26    25    1
    46    27    25    2
