@<TRIPOS>MOLECULE
>69.sdf
 49 52 0 0 0
SMALL
GASTEIGER

@<TRIPOS>ATOM
      1 C          -1.2677    0.7460    2.0057 C.3     1  UNL1        0.0154
      2 N          -1.3161    0.5173    0.5782 N.ar    1  UNL1       -0.3066
      3 C          -0.7722    1.3131   -0.4156 C.ar    1  UNL1        0.1695
      4 N          -1.0658    0.8412   -1.6164 N.ar    1  UNL1       -0.2315
      5 C          -1.7884   -0.3001   -1.4124 C.ar    1  UNL1        0.0774
      6 C          -1.9621   -0.5130   -0.0669 C.ar    1  UNL1        0.2157
      7 N          -2.6682   -1.5774    0.5511 N.pl3   1  UNL1        0.0750
      8 O          -2.7034   -1.6145    1.7859 O.2     1  UNL1       -0.1246
      9 O          -3.2025   -2.3984   -0.2061 O.2     1  UNL1       -0.1246
     10 C           0.0051    2.4986   -0.2115 C.ar    1  UNL1        0.1689
     11 N           0.7177    2.7123    0.8683 N.ar    1  UNL1       -0.1365
     12 N           1.3258    3.9385    0.8388 N.ar    1  UNL1       -0.1254
     13 C           1.0818    4.6302   -0.2598 C.ar    1  UNL1        0.1845
     14 S           0.0811    3.7565   -1.3656 S.2     1  UNL1       -0.0276
     15 N           1.5389    5.9016   -0.4594 N.pl3   1  UNL1       -0.3081
     16 C           2.5906    6.3567    0.4483 C.3     1  UNL1        0.0154
     17 C           2.4460    7.8496    0.6775 C.3     1  UNL1       -0.0214
     18 C           2.4330    8.6773   -0.6215 C.3     1  UNL1        0.0133
     19 C           1.3947    8.0764   -1.5912 C.3     1  UNL1       -0.0214
     20 C           1.4653    6.5585   -1.7607 C.3     1  UNL1        0.0154
     21 N           3.7421    9.0199   -1.2373 N.3     1  UNL1       -0.2993
     22 C           4.5896    9.7883   -0.3094 C.3     1  UNL1       -0.0008
     23 C           5.9029   10.2495   -0.9400 C.3     1  UNL1       -0.0402
     24 C           6.6699    9.0672   -1.5062 C.3     1  UNL1       -0.0507
     25 C           5.7932    8.3456   -2.5172 C.3     1  UNL1       -0.0402
     26 C           4.4653    7.9267   -1.8876 C.3     1  UNL1       -0.0008
     27 H          -2.2905    0.7845    2.3882 H       1  UNL1        0.0457
     28 H          -0.6980   -0.0645    2.4673 H       1  UNL1        0.0457
     29 H          -0.7984    1.6966    2.2519 H       1  UNL1        0.0457
     30 H          -2.1477   -0.8976   -2.2392 H       1  UNL1        0.0869
     31 H           3.5730    6.0756    0.0603 H       1  UNL1        0.0465
     32 H           2.5210    5.8795    1.4332 H       1  UNL1        0.0465
     33 H           3.2013    8.1937    1.3882 H       1  UNL1        0.0295
     34 H           1.4832    8.0115    1.1848 H       1  UNL1        0.0295
     35 H           2.0067    9.6525   -0.3414 H       1  UNL1        0.0463
     36 H           0.3983    8.3076   -1.1853 H       1  UNL1        0.0295
     37 H           1.4366    8.5735   -2.5675 H       1  UNL1        0.0295
     38 H           0.5626    6.2712   -2.3124 H       1  UNL1        0.0465
     39 H           2.3083    6.2476   -2.3843 H       1  UNL1        0.0465
     40 H           4.8373    9.1969    0.5785 H       1  UNL1        0.0427
     41 H           4.0480   10.6798    0.0307 H       1  UNL1        0.0427
     42 H           6.5137   10.7573   -0.1852 H       1  UNL1        0.0278
     43 H           5.6996   10.9762   -1.7352 H       1  UNL1        0.0278
     44 H           7.5967    9.4021   -1.9820 H       1  UNL1        0.0266
     45 H           6.9483    8.3776   -0.6985 H       1  UNL1        0.0266
     46 H           5.6067    8.9955   -3.3805 H       1  UNL1        0.0278
     47 H           6.3128    7.4557   -2.8906 H       1  UNL1        0.0278
     48 H           3.8662    7.5171   -2.7033 H       1  UNL1        0.0427
     49 H           4.6864    7.1258   -1.1821 H       1  UNL1        0.0427
@<TRIPOS>BOND
     1     1    27    1
     2     1    28    1
     3     1    29    1
     4     2     1    1
     5     3     2   ar
     6     4     3   ar
     7     5     4   ar
     8     5    30    1
     9     6     5   ar
    10     6     2   ar
    11     7     6    1
    12     8     7    2
    13     9     7    2
    14    10     3    1
    15    11    10   ar
    16    12    11   ar
    17    13    12   ar
    18    14    13   ar
    19    14    10   ar
    20    15    13    1
    21    16    15    1
    22    16    31    1
    23    16    32    1
    24    17    16    1
    25    17    33    1
    26    17    34    1
    27    18    17    1
    28    18    35    1
    29    19    18    1
    30    19    36    1
    31    19    37    1
    32    20    19    1
    33    20    15    1
    34    20    38    1
    35    20    39    1
    36    21    18    1
    37    22    21    1
    38    22    40    1
    39    22    41    1
    40    23    22    1
    41    23    42    1
    42    23    43    1
    43    24    23    1
    44    24    44    1
    45    24    45    1
    46    25    24    1
    47    25    46    1
    48    25    47    1
    49    26    25    1
    50    26    21    1
    51    26    48    1
    52    26    49    1
