@<TRIPOS>MOLECULE
>50.sdf
 57 61 0 0 0
SMALL
GASTEIGER

@<TRIPOS>ATOM
      1 C          -7.0797   -1.9911  -13.3810 C.3     1  UNL1       -0.0397
      2 C          -7.3141   -1.0930  -12.2038 C.ar    1  UNL1       -0.0503
      3 C          -7.1227   -1.5494  -10.8937 C.ar    1  UNL1       -0.0568
      4 C          -7.2925   -0.6917   -9.8028 C.ar    1  UNL1       -0.0360
      5 C          -7.6569    0.6436  -10.0068 C.ar    1  UNL1        0.0654
      6 C          -7.8753    1.0966  -11.3202 C.ar    1  UNL1       -0.0360
      7 C          -7.6971    0.2390  -12.4038 C.ar    1  UNL1       -0.0568
      8 N          -7.8021    1.5479   -8.9176 N.ar    1  UNL1       -0.2387
      9 C          -7.5440    1.3192   -7.5869 C.ar    1  UNL1        0.0405
     10 C          -7.8197    2.4898   -6.9016 C.ar    1  UNL1        0.0405
     11 C          -7.6803    2.6225   -5.4721 C.2     1  UNL1        0.0607
     12 N          -8.4596    3.4262   -4.8292 N.2     1  UNL1       -0.1547
     13 N          -8.1989    3.4610   -3.4722 N.2     1  UNL1       -0.1262
     14 C          -9.0866    4.0512   -2.7308 C.2     1  UNL1        0.1894
     15 S          -8.6541    4.2736   -1.0443 S.3     1  UNL1       -0.0786
     16 C         -10.1739    5.1439   -0.6632 C.3     1  UNL1        0.0784
     17 C         -10.9296    5.2945   -1.9545 C.2     1  UNL1        0.2359
     18 O         -11.9854    5.9220   -1.9962 O.2     1  UNL1       -0.2739
     19 N         -10.3207    4.6138   -2.9985 N.am    1  UNL1       -0.2169
     20 C         -10.9891    4.5277   -4.2471 C.ar    1  UNL1        0.0432
     21 C         -11.3700    5.6946   -4.9187 C.ar    1  UNL1       -0.0399
     22 C         -11.9403    5.6184   -6.1892 C.ar    1  UNL1       -0.0600
     23 C         -12.1524    4.3785   -6.7892 C.ar    1  UNL1       -0.0616
     24 C         -11.8357    3.2099   -6.1013 C.ar    1  UNL1       -0.0600
     25 C         -11.2684    3.2827   -4.8282 C.ar    1  UNL1       -0.0399
     26 C          -8.2339    3.4151   -7.9155 C.ar    1  UNL1        0.1017
     27 N          -8.2154    2.8159   -9.1232 N.ar    1  UNL1       -0.1657
     28 C          -8.6082    4.8342   -7.8243 C.ar    1  UNL1        0.0028
     29 C          -8.1596    5.6576   -6.7863 C.ar    1  UNL1       -0.0522
     30 C          -8.5341    7.0020   -6.7113 C.ar    1  UNL1       -0.0582
     31 C          -9.3206    7.5737   -7.7116 C.ar    1  UNL1       -0.0504
     32 C          -9.6950    9.0223   -7.6488 C.3     1  UNL1       -0.0397
     33 C          -9.7680    6.7673   -8.7628 C.ar    1  UNL1       -0.0582
     34 C          -9.4179    5.4129   -8.8153 C.ar    1  UNL1       -0.0522
     35 H          -7.9588   -1.9954  -14.0374 H       1  UNL1        0.0278
     36 H          -6.2105   -1.6488  -13.9489 H       1  UNL1        0.0278
     37 H          -6.8965   -3.0263  -13.0698 H       1  UNL1        0.0278
     38 H          -6.8344   -2.5817  -10.7148 H       1  UNL1        0.0621
     39 H          -7.1295   -1.1018   -8.8110 H       1  UNL1        0.0639
     40 H          -8.1649    2.1291  -11.5122 H       1  UNL1        0.0639
     41 H          -7.8476    0.6162  -13.4130 H       1  UNL1        0.0621
     42 H          -7.2087    0.3628   -7.2240 H       1  UNL1        0.0837
     43 H          -6.9219    2.0055   -4.9608 H       1  UNL1        0.0855
     44 H          -9.9647    6.1281   -0.2378 H       1  UNL1        0.0476
     45 H         -10.7694    4.5470    0.0328 H       1  UNL1        0.0476
     46 H         -11.1624    6.6729   -4.4932 H       1  UNL1        0.0636
     47 H         -12.1660    6.5307   -6.7341 H       1  UNL1        0.0618
     48 H         -12.5355    4.3268   -7.8045 H       1  UNL1        0.0618
     49 H         -12.0011    2.2431   -6.5696 H       1  UNL1        0.0618
     50 H         -11.0145    2.3624   -4.3092 H       1  UNL1        0.0636
     51 H          -7.5105    5.2805   -6.0045 H       1  UNL1        0.0624
     52 H          -8.2004    7.5918   -5.8611 H       1  UNL1        0.0620
     53 H          -9.4769    9.5078   -8.6051 H       1  UNL1        0.0278
     54 H         -10.7588    9.1313   -7.4179 H       1  UNL1        0.0278
     55 H          -9.1204    9.5461   -6.8772 H       1  UNL1        0.0278
     56 H         -10.3982    7.1828   -9.5453 H       1  UNL1        0.0620
     57 H          -9.7890    4.8054   -9.6390 H       1  UNL1        0.0624
@<TRIPOS>BOND
     1     1    35    1
     2     1    36    1
     3     1    37    1
     4     2     1    1
     5     3     2   ar
     6     3    38    1
     7     4     3   ar
     8     4    39    1
     9     5     4   ar
    10     6     5   ar
    11     6    40    1
    12     7     6   ar
    13     7     2   ar
    14     7    41    1
    15     8     5    1
    16     9     8   ar
    17     9    42    1
    18    10     9   ar
    19    11    10    1
    20    11    43    1
    21    12    11    2
    22    13    12    1
    23    14    13    2
    24    15    14    1
    25    16    15    1
    26    16    44    1
    27    16    45    1
    28    17    16    1
    29    18    17    2
    30    19    17   am
    31    19    14    1
    32    20    19    1
    33    21    20   ar
    34    21    46    1
    35    22    21   ar
    36    22    47    1
    37    23    22   ar
    38    23    48    1
    39    24    23   ar
    40    24    49    1
    41    25    24   ar
    42    25    20   ar
    43    25    50    1
    44    26    10   ar
    45    27    26   ar
    46    27     8   ar
    47    28    26    1
    48    29    28   ar
    49    29    51    1
    50    30    29   ar
    51    30    52    1
    52    31    30   ar
    53    32    31    1
    54    32    53    1
    55    32    54    1
    56    32    55    1
    57    33    31   ar
    58    33    56    1
    59    34    33   ar
    60    34    28   ar
    61    34    57    1
