@<TRIPOS>MOLECULE
>1.sdf
 43 47 0 0 0
SMALL
GASTEIGER

@<TRIPOS>ATOM
      1 C           1.2750    0.2255   -0.7045 C.3     1  UNL1        0.0788
      2 O           2.4101    0.0081    0.1299 O.3     1  UNL1       -0.4950
      3 C           3.0117   -1.2162    0.0383 C.ar    1  UNL1        0.1221
      4 C           4.1108   -1.4207    0.8754 C.ar    1  UNL1        0.0060
      5 C           4.8157   -2.6233    0.9109 C.ar    1  UNL1        0.0757
      6 N           5.8595   -2.7023    1.7512 N.ar    1  UNL1       -0.2458
      7 C           6.5583   -3.8557    1.8328 C.ar    1  UNL1        0.0839
      8 C           6.1978   -4.9843    1.0920 C.ar    1  UNL1        0.0598
      9 C           6.9988   -6.1865    1.3958 C.2     1  UNL1        0.2356
     10 O           6.5364   -7.3028    1.5510 O.2     1  UNL1       -0.2831
     11 C           8.4743   -5.9349    1.6574 C.2     1  UNL1        0.2336
     12 O           9.3440   -6.5743    1.1047 O.2     1  UNL1       -0.2832
     13 C           8.7161   -4.8590    2.6233 C.ar    1  UNL1        0.0347
     14 C           7.7331   -3.8565    2.7427 C.ar    1  UNL1        0.0120
     15 C           7.9341   -2.8875    3.7347 C.ar    1  UNL1       -0.0519
     16 C           9.0614   -2.9329    4.5690 C.ar    1  UNL1       -0.0611
     17 C          10.0258   -3.9286    4.4097 C.ar    1  UNL1       -0.0610
     18 C           9.8656   -4.8935    3.4225 C.ar    1  UNL1       -0.0502
     19 C           5.1119   -4.9498    0.1840 C.ar    1  UNL1        0.0043
     20 C           4.7085   -6.1705   -0.5960 C.ar    1  UNL1       -0.0164
     21 C           3.3588   -6.5603   -0.7254 C.ar    1  UNL1       -0.0526
     22 C           2.9831   -7.7313   -1.3969 C.ar    1  UNL1       -0.0428
     23 C           3.9590   -8.5956   -1.8735 C.ar    1  UNL1        0.0410
     24 CL          3.5075  -10.0970   -2.5782 Cl      1  UNL1       -0.0835
     25 C           5.2989   -8.2542   -1.7592 C.ar    1  UNL1       -0.0428
     26 C           5.6617   -7.0313   -1.1789 C.ar    1  UNL1       -0.0526
     27 C           4.4142   -3.6956    0.0735 C.ar    1  UNL1        0.0090
     28 C           3.3422   -3.4372   -0.8203 C.ar    1  UNL1       -0.0485
     29 C           2.6322   -2.2357   -0.8175 C.ar    1  UNL1       -0.0192
     30 H           1.5347    0.1229   -1.7640 H       1  UNL1        0.0660
     31 H           0.4559   -0.4504   -0.4341 H       1  UNL1        0.0660
     32 H           0.9274    1.2510   -0.5491 H       1  UNL1        0.0660
     33 H           4.4267   -0.6118    1.5310 H       1  UNL1        0.0676
     34 H           7.2065   -2.0909    3.8794 H       1  UNL1        0.0624
     35 H           9.1846   -2.1850    5.3505 H       1  UNL1        0.0618
     36 H          10.8947   -3.9601    5.0635 H       1  UNL1        0.0618
     37 H          10.6032   -5.6820    3.2953 H       1  UNL1        0.0625
     38 H           2.5611   -5.9635   -0.2876 H       1  UNL1        0.0624
     39 H           1.9302   -7.9756   -1.5081 H       1  UNL1        0.0632
     40 H           6.0745   -8.9395   -2.0916 H       1  UNL1        0.0632
     41 H           6.7257   -6.8085   -1.1297 H       1  UNL1        0.0624
     42 H           3.0302   -4.1759   -1.5532 H       1  UNL1        0.0625
     43 H           1.7925   -2.1382   -1.4975 H       1  UNL1        0.0654
@<TRIPOS>BOND
     1     1    30    1
     2     1    31    1
     3     1    32    1
     4     2     1    1
     5     3     2    1
     6     4     3   ar
     7     4    33    1
     8     5     4   ar
     9     6     5   ar
    10     7     6   ar
    11     8     7   ar
    12     9     8    1
    13    10     9    2
    14    11     9    1
    15    12    11    2
    16    13    11    1
    17    14    13   ar
    18    14     7    1
    19    15    14   ar
    20    15    34    1
    21    16    15   ar
    22    16    35    1
    23    17    16   ar
    24    17    36    1
    25    18    17   ar
    26    18    13   ar
    27    18    37    1
    28    19     8   ar
    29    20    19    1
    30    21    20   ar
    31    21    38    1
    32    22    21   ar
    33    22    39    1
    34    23    22   ar
    35    24    23    1
    36    25    23   ar
    37    25    40    1
    38    26    25   ar
    39    26    20   ar
    40    26    41    1
    41    27    19   ar
    42    27     5   ar
    43    28    27   ar
    44    28    42    1
    45    29    28   ar
    46    29     3   ar
    47    29    43    1
