@<TRIPOS>MOLECULE
>138.sdf
 51 53 0 0 0
SMALL
GASTEIGER

@<TRIPOS>ATOM
      1 C          -5.4612   -4.9387    4.4777 C.3     1  UNL1       -0.0428
      2 N          -5.1984   -6.1958    3.7039 N.4     1  UNL1        0.2353
      3 C          -6.3900   -7.1192    3.7039 C.3     1  UNL1       -0.0317
      4 C          -6.0699   -8.0993    2.6029 C.3     1  UNL1       -0.0074
      5 C          -5.2462   -7.3268    1.5838 C.3     1  UNL1       -0.0048
      6 C          -4.8322   -5.9998    2.2301 C.3     1  UNL1       -0.0188
      7 C          -3.3391   -5.6892    2.0720 C.3     1  UNL1        0.0138
      8 C          -2.8794   -5.5859    0.6078 C.3     1  UNL1        0.0543
      9 O          -3.5679   -4.5177   -0.0372 O.3     1  UNL1       -0.3642
     10 C          -3.2823   -4.2887   -1.4617 C.3     1  UNL1        0.1165
     11 C          -1.7922   -3.8822   -1.6152 C.3     1  UNL1       -0.0274
     12 C          -4.1979   -3.0899   -1.8511 C.ar    1  UNL1       -0.0117
     13 C          -5.4195   -2.8746   -1.1819 C.ar    1  UNL1       -0.0555
     14 C          -6.2314   -1.7611   -1.4491 C.ar    1  UNL1       -0.0614
     15 C          -5.8328   -0.8231   -2.3946 C.ar    1  UNL1       -0.0617
     16 C          -4.6399   -1.0132   -3.0820 C.ar    1  UNL1       -0.0614
     17 C          -3.8398   -2.1401   -2.8288 C.ar    1  UNL1       -0.0555
     18 C          -3.5940   -5.5718   -2.2744 C.ar    1  UNL1       -0.0116
     19 C          -2.6165   -6.1941   -3.0826 C.ar    1  UNL1       -0.0541
     20 C          -2.8628   -7.4014   -3.7419 C.ar    1  UNL1       -0.0430
     21 C          -4.0927   -8.0179   -3.6065 C.ar    1  UNL1        0.0410
     22 CL         -4.3794   -9.5211   -4.3897 Cl      1  UNL1       -0.0835
     23 C          -5.0898   -7.4289   -2.8273 C.ar    1  UNL1       -0.0430
     24 C          -4.8431   -6.2166   -2.1706 C.ar    1  UNL1       -0.0541
     25 H          -5.7533   -5.2266    5.4918 H       1  UNL1        0.0778
     26 H          -4.5401   -4.3535    4.5073 H       1  UNL1        0.0778
     27 H          -6.2672   -4.3846    3.9895 H       1  UNL1        0.0778
     28 H          -4.4246   -6.6910    4.1685 H       1  UNL1        0.2033
     29 H          -6.4753   -7.5845    4.6905 H       1  UNL1        0.0814
     30 H          -7.2818   -6.5257    3.4745 H       1  UNL1        0.0814
     31 H          -5.4761   -8.9299    3.0023 H       1  UNL1        0.0319
     32 H          -6.9737   -8.5289    2.1601 H       1  UNL1        0.0319
     33 H          -4.3833   -7.9345    1.2909 H       1  UNL1        0.0322
     34 H          -5.8265   -7.1344    0.6756 H       1  UNL1        0.0322
     35 H          -5.4605   -5.1811    1.8584 H       1  UNL1        0.0852
     36 H          -3.1117   -4.7477    2.5861 H       1  UNL1        0.0342
     37 H          -2.7479   -6.4743    2.5582 H       1  UNL1        0.0342
     38 H          -1.8052   -5.4044    0.5973 H       1  UNL1        0.0562
     39 H          -3.0795   -6.5276    0.0926 H       1  UNL1        0.0562
     40 H          -1.1140   -4.6855   -1.2996 H       1  UNL1        0.0264
     41 H          -1.5273   -3.6574   -2.6570 H       1  UNL1        0.0264
     42 H          -1.5373   -3.0054   -1.0103 H       1  UNL1        0.0264
     43 H          -5.7558   -3.5669   -0.4163 H       1  UNL1        0.0621
     44 H          -7.1633   -1.6260   -0.9154 H       1  UNL1        0.0618
     45 H          -6.4470    0.0479   -2.5935 H       1  UNL1        0.0618
     46 H          -4.3179   -0.2715   -3.8125 H       1  UNL1        0.0618
     47 H          -2.9252   -2.2303   -3.4055 H       1  UNL1        0.0621
     48 H          -1.6265   -5.7707   -3.2209 H       1  UNL1        0.0622
     49 H          -2.0741   -7.8512   -4.3444 H       1  UNL1        0.0632
     50 H          -6.0498   -7.9203   -2.7217 H       1  UNL1        0.0632
     51 H          -5.6373   -5.7779   -1.5758 H       1  UNL1        0.0622
@<TRIPOS>UNITY_ATOM_ATTR
2 1
charge 1
@<TRIPOS>BOND
     1     1    25    1
     2     1    26    1
     3     1    27    1
     4     2     1    1
     5     2    28    1
     6     3     2    1
     7     3    29    1
     8     3    30    1
     9     4     3    1
    10     4    31    1
    11     4    32    1
    12     5     4    1
    13     5    33    1
    14     5    34    1
    15     6     5    1
    16     6     2    1
    17     6    35    1
    18     7     6    1
    19     7    36    1
    20     7    37    1
    21     8     7    1
    22     8    38    1
    23     8    39    1
    24     9     8    1
    25    11    40    1
    26    11    41    1
    27    11    42    1
    28    12    10    1
    29    13    12   ar
    30    13    43    1
    31    14    13   ar
    32    14    44    1
    33    15    14   ar
    34    15    45    1
    35    16    15   ar
    36    16    46    1
    37    17    16   ar
    38    17    12   ar
    39    17    47    1
    40    18    10    1
    41    19    18   ar
    42    19    48    1
    43    20    19   ar
    44    20    49    1
    45    21    20   ar
    46    22    21    1
    47    23    21   ar
    48    23    50    1
    49    24    23   ar
    50    24    18   ar
    51    24    51    1
    52    10    11    1
    53    10     9    1
