@<TRIPOS>MOLECULE
>147.sdf
 48 51 0 0 0
SMALL
GASTEIGER

@<TRIPOS>ATOM
      1 C          -2.4337   -0.0651   -0.0789 C.3     1  UNL1       -0.0431
      2 N          -0.9621   -0.0365    0.2403 N.4     1  UNL1        0.2331
      3 C          -0.3173    1.2436   -0.2281 C.3     1  UNL1       -0.0315
      4 C           1.1372    1.2820    0.2123 C.3     1  UNL1       -0.0042
      5 C           1.9332    0.0382   -0.2232 C.3     1  UNL1        0.0089
      6 C           1.1918   -1.2421    0.2006 C.3     1  UNL1       -0.0042
      7 C          -0.2471   -1.2552   -0.2900 C.3     1  UNL1       -0.0315
      8 C           3.3134    0.0698    0.3790 C.ar    1  UNL1        0.0205
      9 C           3.6893    0.1103    1.7084 C.ar    1  UNL1       -0.0326
     10 C           5.1026    0.1576    1.7797 C.ar    1  UNL1        0.0077
     11 C           5.5925    0.0946    0.4685 C.ar    1  UNL1        0.0545
     12 N           4.4773    0.0753   -0.3566 N.ar    1  UNL1       -0.3572
     13 C           6.9670    0.0592   -0.0651 C.ar    1  UNL1       -0.0009
     14 C           7.9865   -0.6382    0.6183 C.ar    1  UNL1       -0.0499
     15 C           9.3227   -0.5234    0.2399 C.ar    1  UNL1       -0.0258
     16 C           9.6546    0.2169   -0.8835 C.ar    1  UNL1        0.1234
     17 F          10.9351    0.3319   -1.2564 F       1  UNL1       -0.2055
     18 C           8.6650    0.8489   -1.6265 C.ar    1  UNL1       -0.0258
     19 C           7.3231    0.7762   -1.2164 C.ar    1  UNL1       -0.0499
     20 C           5.9033    0.2292    3.0102 C.ar    1  UNL1       -0.0130
     21 C           5.4759   -0.4502    4.1571 C.ar    1  UNL1       -0.0358
     22 C           6.2796   -0.4209    5.2859 C.ar    1  UNL1        0.0281
     23 N           7.4669    0.2135    5.3437 N.ar    1  UNL1       -0.2632
     24 C           7.8506    0.8843    4.2403 C.ar    1  UNL1        0.0281
     25 C           7.0921    0.9562    3.0842 C.ar    1  UNL1       -0.0358
     26 H          -2.8513   -0.9937    0.3191 H       1  UNL1        0.0777
     27 H          -2.9020    0.7924    0.4117 H       1  UNL1        0.0777
     28 H          -2.5568   -0.0120   -1.1637 H       1  UNL1        0.0777
     29 H          -0.8941   -0.0621    1.2681 H       1  UNL1        0.2030
     30 H          -0.4170    1.2886   -1.3172 H       1  UNL1        0.0814
     31 H          -0.8742    2.0714    0.2245 H       1  UNL1        0.0814
     32 H           1.6116    2.1858   -0.1912 H       1  UNL1        0.0323
     33 H           1.1645    1.3859    1.3056 H       1  UNL1        0.0323
     34 H           2.0124    0.0441   -1.3205 H       1  UNL1        0.0367
     35 H           1.7169   -2.1246   -0.1865 H       1  UNL1        0.0323
     36 H           1.1935   -1.3381    1.2935 H       1  UNL1        0.0323
     37 H          -0.7745   -2.1365    0.0892 H       1  UNL1        0.0814
     38 H          -0.3107   -1.2309   -1.3829 H       1  UNL1        0.0814
     39 H           3.0067    0.1278    2.5489 H       1  UNL1        0.0642
     40 H           4.5347    0.0463   -1.3639 H       1  UNL1        0.1656
     41 H           7.7507   -1.2304    1.5015 H       1  UNL1        0.0625
     42 H          10.1062   -0.9912    0.8312 H       1  UNL1        0.0646
     43 H           8.9482    1.4169   -2.5079 H       1  UNL1        0.0646
     44 H           6.5859    1.3380   -1.7802 H       1  UNL1        0.0625
     45 H           4.5510   -1.0134    4.1801 H       1  UNL1        0.0639
     46 H           5.9850   -0.9314    6.1974 H       1  UNL1        0.0830
     47 H           8.8207    1.3686    4.3004 H       1  UNL1        0.0830
     48 H           7.4626    1.5359    2.2454 H       1  UNL1        0.0639
@<TRIPOS>UNITY_ATOM_ATTR
2 1
charge 1
@<TRIPOS>BOND
     1     1    26    1
     2     1    27    1
     3     1    28    1
     4     2     1    1
     5     2    29    1
     6     3     2    1
     7     3    30    1
     8     3    31    1
     9     4     3    1
    10     4    32    1
    11     4    33    1
    12     5     4    1
    13     5    34    1
    14     6     5    1
    15     6    35    1
    16     6    36    1
    17     7     6    1
    18     7     2    1
    19     7    37    1
    20     7    38    1
    21     8     5    1
    22     9     8   ar
    23     9    39    1
    24    10     9   ar
    25    11    10   ar
    26    12    11   ar
    27    12     8   ar
    28    12    40    1
    29    13    11    1
    30    14    13   ar
    31    14    41    1
    32    15    14   ar
    33    15    42    1
    34    16    15   ar
    35    17    16    1
    36    18    16   ar
    37    18    43    1
    38    19    18   ar
    39    19    13   ar
    40    19    44    1
    41    20    10    1
    42    21    20   ar
    43    21    45    1
    44    22    21   ar
    45    22    46    1
    46    23    22   ar
    47    24    23   ar
    48    24    47    1
    49    25    24   ar
    50    25    20   ar
    51    25    48    1
