@<TRIPOS>MOLECULE
>226_4.sdf
 35 38 0 0 0
SMALL
GASTEIGER

@<TRIPOS>ATOM
      1 CL         -2.2204   -0.2538    0.0696 Cl      1  UNL1       -0.0835
      2 C          -0.5034   -0.1569    0.0558 C.ar    1  UNL1        0.0410
      3 C           0.1536    0.3323   -1.0647 C.ar    1  UNL1       -0.0430
      4 C           1.5493    0.4073   -1.0745 C.ar    1  UNL1       -0.0536
      5 C           2.3134    0.0224    0.0440 C.ar    1  UNL1       -0.0048
      6 C           1.6244   -0.4995    1.1536 C.ar    1  UNL1       -0.0536
      7 C           0.2264   -0.5807    1.1623 C.ar    1  UNL1       -0.0430
      8 C           3.8528    0.1208    0.0541 C.3     1  UNL1        0.1546
      9 O           4.3557    0.6743   -1.1811 O.3     1  UNL1       -0.4809
     10 C           4.3214    2.0393   -1.2703 C.ar    1  UNL1        0.1320
     11 C           4.3977    2.5724   -2.5569 C.ar    1  UNL1       -0.0192
     12 C           4.2796    3.9491   -2.7487 C.ar    1  UNL1       -0.0583
     13 C           4.1102    4.7977   -1.6522 C.ar    1  UNL1       -0.0609
     14 C           4.0651    4.2697   -0.3620 C.ar    1  UNL1       -0.0477
     15 C           4.1701    2.8894   -0.1776 C.ar    1  UNL1        0.0613
     16 C           4.1330    2.3098    1.1754 C.2     1  UNL1        0.1949
     17 O           3.9248    3.0200    2.1569 O.2     1  UNL1       -0.2895
     18 C           4.4337    0.8405    1.2887 C.3     1  UNL1        0.1574
     19 N           5.8576    0.6608    1.5182 N.ar    1  UNL1       -0.2372
     20 C           6.5867    1.1152    2.5834 C.ar    1  UNL1        0.0464
     21 C           7.8737    0.7386    2.2906 C.ar    1  UNL1        0.0693
     22 N           7.8847    0.0411    1.1182 N.ar    1  UNL1       -0.1379
     23 N           6.6406   -0.0199    0.6633 N.ar    1  UNL1       -0.0649
     24 H          -0.4082    0.6544   -1.9381 H       1  UNL1        0.0632
     25 H           2.0228    0.7753   -1.9824 H       1  UNL1        0.0622
     26 H           2.1582   -0.8620    2.0293 H       1  UNL1        0.0622
     27 H          -0.2855   -0.9799    2.0345 H       1  UNL1        0.0632
     28 H           4.1969   -0.9225    0.0587 H       1  UNL1        0.0811
     29 H           4.5201    1.9132   -3.4127 H       1  UNL1        0.0654
     30 H           4.3109    4.3606   -3.7543 H       1  UNL1        0.0619
     31 H           4.0143    5.8696   -1.8045 H       1  UNL1        0.0618
     32 H           3.9467    4.9346    0.4914 H       1  UNL1        0.0626
     33 H           3.9535    0.4679    2.2011 H       1  UNL1        0.0669
     34 H           6.1507    1.6716    3.4011 H       1  UNL1        0.0842
     35 H           8.7790    0.9285    2.8495 H       1  UNL1        0.0864
@<TRIPOS>BOND
     1     2     1    1
     2     3     2   ar
     3     3    24    1
     4     4     3   ar
     5     4    25    1
     6     5     4   ar
     7     6     5   ar
     8     6    26    1
     9     7     6   ar
    10     7     2   ar
    11     7    27    1
    12     8     5    1
    13     8    28    1
    14     9     8    1
    15    10     9    1
    16    11    10   ar
    17    11    29    1
    18    12    11   ar
    19    12    30    1
    20    13    12   ar
    21    13    31    1
    22    14    13   ar
    23    14    32    1
    24    15    14   ar
    25    15    10   ar
    26    16    15    1
    27    17    16    2
    28    18    16    1
    29    18     8    1
    30    20    19   ar
    31    20    34    1
    32    21    20   ar
    33    21    35    1
    34    22    21   ar
    35    23    22   ar
    36    23    19   ar
    37    18    19    1
    38    18    33    1
