@<TRIPOS>MOLECULE
>16.sdf
 51 55 0 0 0
SMALL
GASTEIGER

@<TRIPOS>ATOM
      1 O           2.5372    1.8287   -1.6436 O.2     1  UNL1       -0.2699
      2 C           3.0759    1.0667   -0.8581 C.2     1  UNL1        0.2483
      3 N           2.8413    1.0314    0.5112 N.am    1  UNL1       -0.2814
      4 C           2.2555    2.1029    1.2063 C.ar    1  UNL1        0.0357
      5 C           2.8205    3.3858    1.1398 C.ar    1  UNL1       -0.0145
      6 C           2.2957    4.4613    1.8513 C.ar    1  UNL1        0.0734
      7 N           2.8737    5.6833    1.7642 N.ar    1  UNL1       -0.2466
      8 C           2.3777    6.7126    2.4850 C.ar    1  UNL1        0.0734
      9 C           1.2665    6.5363    3.3292 C.ar    1  UNL1        0.0011
     10 C           0.7938    7.5896    4.1088 C.ar    1  UNL1       -0.0508
     11 C           1.4166    8.8296    4.0558 C.ar    1  UNL1       -0.0398
     12 C           2.5086    9.0538    3.2230 C.ar    1  UNL1        0.0357
     13 N           3.1829   10.3099    3.1603 N.am    1  UNL1       -0.2814
     14 C           2.8288   11.4338    3.9042 C.2     1  UNL1        0.2483
     15 O           1.9058   11.5070    4.7022 O.2     1  UNL1       -0.2699
     16 C           3.6297   12.6766    3.7318 C.ar    1  UNL1        0.0370
     17 C           4.2892   13.0159    2.5497 C.ar    1  UNL1       -0.0496
     18 C           4.8842   14.2781    2.4313 C.ar    1  UNL1       -0.0610
     19 C           4.8226   15.1940    3.4834 C.ar    1  UNL1       -0.0617
     20 C           4.1790   14.8549    4.6696 C.ar    1  UNL1       -0.0610
     21 C           3.5889   13.5992    4.7930 C.ar    1  UNL1       -0.0496
     22 C           2.9677    7.9845    2.4317 C.ar    1  UNL1       -0.0145
     23 C           0.6518    5.2852    3.3910 C.ar    1  UNL1       -0.0434
     24 C           1.1653    4.2207    2.6553 C.ar    1  UNL1        0.0011
     25 C           0.5897    2.9386    2.7281 C.ar    1  UNL1       -0.0508
     26 C           1.1476    1.8776    2.0181 C.ar    1  UNL1       -0.0398
     27 C           4.0516    0.0609   -1.3663 C.ar    1  UNL1        0.0370
     28 C           4.8307    0.4002   -2.4804 C.ar    1  UNL1       -0.0496
     29 C           5.7555   -0.5130   -2.9893 C.ar    1  UNL1       -0.0610
     30 C           5.8962   -1.7646   -2.3916 C.ar    1  UNL1       -0.0617
     31 C           5.1160   -2.1096   -1.2881 C.ar    1  UNL1       -0.0610
     32 C           4.1924   -1.1985   -0.7738 C.ar    1  UNL1       -0.0496
     33 H           3.3457    0.3606    1.0745 H       1  UNL1        0.1551
     34 H           3.7123    3.5503    0.5426 H       1  UNL1        0.0657
     35 H          -0.0511    7.4608    4.7802 H       1  UNL1        0.0625
     36 H           1.0101    9.5961    4.7055 H       1  UNL1        0.0636
     37 H           4.0071   10.3551    2.5806 H       1  UNL1        0.1551
     38 H           4.3002   12.3490    1.6936 H       1  UNL1        0.0625
     39 H           5.3680   14.5667    1.5008 H       1  UNL1        0.0618
     40 H           5.2548   16.1864    3.3733 H       1  UNL1        0.0618
     41 H           4.1057   15.5689    5.4859 H       1  UNL1        0.0618
     42 H           3.0571   13.3530    5.7107 H       1  UNL1        0.0625
     43 H           3.8102    8.1170    1.7586 H       1  UNL1        0.0657
     44 H          -0.2174    5.1400    4.0292 H       1  UNL1        0.0631
     45 H          -0.2939    2.7684    3.3413 H       1  UNL1        0.0625
     46 H           0.6787    0.8984    2.0776 H       1  UNL1        0.0636
     47 H           4.7139    1.3733   -2.9545 H       1  UNL1        0.0625
     48 H           6.3569   -0.2501   -3.8558 H       1  UNL1        0.0618
     49 H           6.6064   -2.4813   -2.7980 H       1  UNL1        0.0618
     50 H           5.2134   -3.0952   -0.8401 H       1  UNL1        0.0618
     51 H           3.5675   -1.4993    0.0623 H       1  UNL1        0.0625
@<TRIPOS>BOND
     1     2     1    2
     2     3     2   am
     3     3    33    1
     4     4     3    1
     5     5     4   ar
     6     5    34    1
     7     6     5   ar
     8     7     6   ar
     9     8     7   ar
    10     9     8   ar
    11    10     9   ar
    12    10    35    1
    13    11    10   ar
    14    11    36    1
    15    12    11   ar
    16    13    12    1
    17    13    37    1
    18    14    13   am
    19    15    14    2
    20    16    14    1
    21    17    16   ar
    22    17    38    1
    23    18    17   ar
    24    18    39    1
    25    19    18   ar
    26    19    40    1
    27    20    19   ar
    28    20    41    1
    29    21    20   ar
    30    21    16   ar
    31    21    42    1
    32    22    12   ar
    33    22     8   ar
    34    22    43    1
    35    23     9   ar
    36    23    44    1
    37    24    23   ar
    38    24     6   ar
    39    25    24   ar
    40    25    45    1
    41    26    25   ar
    42    26     4   ar
    43    26    46    1
    44    27     2    1
    45    28    27   ar
    46    28    47    1
    47    29    28   ar
    48    29    48    1
    49    30    29   ar
    50    30    49    1
    51    31    30   ar
    52    31    50    1
    53    32    31   ar
    54    32    27   ar
    55    32    51    1
