@<TRIPOS>MOLECULE
>196.sdf
 54 55 0 0 0
SMALL
GASTEIGER

@<TRIPOS>ATOM
      1 C          26.2834   -8.5765   18.5217 C.3     1  UNL1       -0.0653
      2 C          24.7941   -8.7732   18.2940 C.3     1  UNL1       -0.0559
      3 C          24.0708   -7.4319   18.1973 C.3     1  UNL1       -0.0533
      4 C          22.5727   -7.6254   17.9707 C.3     1  UNL1       -0.0531
      5 C          21.8554   -6.2806   17.8766 C.3     1  UNL1       -0.0531
      6 C          20.3570   -6.4686   17.6481 C.3     1  UNL1       -0.0531
      7 C          19.6460   -5.1200   17.5582 C.3     1  UNL1       -0.0530
      8 C          18.1477   -5.2978   17.3259 C.3     1  UNL1       -0.0514
      9 C          17.4464   -3.9444   17.2352 C.3     1  UNL1       -0.0332
     10 C          15.9517   -4.1132   16.9925 C.3     1  UNL1        0.0469
     11 N          15.2697   -2.8155   16.9485 N.ar    1  UNL1       -0.2115
     12 C          14.7472   -2.1215   18.0266 C.ar    1  UNL1        0.1005
     13 C          14.1669   -1.0016   17.4914 C.ar    1  UNL1        0.2550
     14 C          13.4582    0.1223   18.1281 C.3     1  UNL1        0.1359
     15 O          12.1162    0.2022   17.6502 O.3     1  UNL1       -0.3664
     16 C          11.3903    1.2451   18.3347 C.3     1  UNL1        0.0767
     17 C           9.9997    1.3402   17.7939 C.3     1  UNL1        0.1052
     18 C           9.0115    2.3603   18.3152 C.3     1  UNL1        0.0766
     19 O           9.7170    2.5532   17.0825 O.3     1  UNL1       -0.3694
     20 N          14.4249   -1.1284   16.1203 N.ar    1  UNL1       -0.0674
     21 C          14.0225   -0.2202   15.0574 C.3     1  UNL1        0.1683
     22 N          15.0935   -2.2243   15.7793 N.ar    1  UNL1        0.0946
     23 H          26.7877   -9.5446   18.5901 H       1  UNL1        0.0230
     24 H          26.7337   -8.0128   17.6988 H       1  UNL1        0.0230
     25 H          26.4669   -8.0297   19.4529 H       1  UNL1        0.0230
     26 H          24.6415   -9.3475   17.3728 H       1  UNL1        0.0263
     27 H          24.3766   -9.3632   19.1182 H       1  UNL1        0.0263
     28 H          24.2326   -6.8607   19.1197 H       1  UNL1        0.0265
     29 H          24.4946   -6.8438   17.3736 H       1  UNL1        0.0265
     30 H          22.4100   -8.1948   17.0479 H       1  UNL1        0.0265
     31 H          22.1468   -8.2135   18.7932 H       1  UNL1        0.0265
     32 H          22.0178   -5.7108   18.8004 H       1  UNL1        0.0265
     33 H          22.2815   -5.6911   17.0551 H       1  UNL1        0.0265
     34 H          20.1931   -7.0346   16.7231 H       1  UNL1        0.0265
     35 H          19.9289   -7.0575   18.4691 H       1  UNL1        0.0265
     36 H          19.8110   -4.5550   18.4838 H       1  UNL1        0.0265
     37 H          20.0776   -4.5310   16.7392 H       1  UNL1        0.0265
     38 H          17.9816   -5.8636   16.4011 H       1  UNL1        0.0266
     39 H          17.7148   -5.8839   18.1459 H       1  UNL1        0.0266
     40 H          17.6085   -3.3809   18.1624 H       1  UNL1        0.0283
     41 H          17.8850   -3.3488   16.4256 H       1  UNL1        0.0283
     42 H          15.7660   -4.6434   16.0511 H       1  UNL1        0.0510
     43 H          15.4969   -4.7040   17.7967 H       1  UNL1        0.0510
     44 H          14.8639   -2.5208   19.0162 H       1  UNL1        0.0893
     45 H          13.4475   -0.0436   19.2114 H       1  UNL1        0.0672
     46 H          13.9921    1.0522   17.9105 H       1  UNL1        0.0672
     47 H          11.3504    1.0023   19.4025 H       1  UNL1        0.0586
     48 H          11.9248    2.1939   18.2066 H       1  UNL1        0.0586
     49 H           9.6043    0.4057   17.4205 H       1  UNL1        0.0642
     50 H           7.9512    2.1428   18.2431 H       1  UNL1        0.0586
     51 H           9.2762    2.9922   19.1543 H       1  UNL1        0.0586
     52 H          14.9173    0.1287   14.5314 H       1  UNL1        0.1018
     53 H          13.3753   -0.7560   14.3567 H       1  UNL1        0.1018
     54 H          13.4888    0.6483   15.4520 H       1  UNL1        0.1018
@<TRIPOS>UNITY_ATOM_ATTR
20 1
charge 1
@<TRIPOS>BOND
     1     1    23    1
     2     1    24    1
     3     1    25    1
     4     2     1    1
     5     2    26    1
     6     2    27    1
     7     3     2    1
     8     3    28    1
     9     3    29    1
    10     4     3    1
    11     4    30    1
    12     4    31    1
    13     5     4    1
    14     5    32    1
    15     5    33    1
    16     6     5    1
    17     6    34    1
    18     6    35    1
    19     7     6    1
    20     7    36    1
    21     7    37    1
    22     8     7    1
    23     8    38    1
    24     8    39    1
    25     9     8    1
    26     9    40    1
    27     9    41    1
    28    10     9    1
    29    10    42    1
    30    10    43    1
    31    11    10    1
    32    12    11   ar
    33    12    44    1
    34    13    12   ar
    35    14    13    1
    36    14    45    1
    37    14    46    1
    38    15    14    1
    39    16    15    1
    40    16    47    1
    41    16    48    1
    42    18    17    1
    43    18    50    1
    44    18    51    1
    45    19    18    1
    46    19    17    1
    47    20    13   ar
    48    21    20    1
    49    21    52    1
    50    21    53    1
    51    21    54    1
    52    22    20   ar
    53    22    11   ar
    54    17    49    1
    55    17    16    1
