@<TRIPOS>MOLECULE
>146.sdf
 39 41 0 0 0
SMALL
GASTEIGER

@<TRIPOS>ATOM
      1 C           3.6984   -0.0883   -0.9294 C.3     1  UNL1       -0.0423
      2 C           2.6182   -0.0073    0.1602 C.3     1  UNL1        0.0483
      3 N           3.1127   -0.4285    1.4672 N.pl3   1  UNL1       -0.2958
      4 C           4.0445   -1.5153    1.6815 C.3     1  UNL1        0.0040
      5 C           2.6789    0.2295    2.6014 C.ar    1  UNL1        0.2200
      6 N           3.4988    0.2461    3.6618 N.ar    1  UNL1       -0.2219
      7 C           3.0667    0.8679    4.7653 C.ar    1  UNL1        0.0452
      8 C           1.8138    1.4391    4.8655 C.ar    1  UNL1        0.0770
      9 C           1.2707    2.0460    5.9935 C.ar    1  UNL1        0.1320
     10 N           1.9782    2.1611    7.1949 N.pl3   1  UNL1       -0.3424
     11 N           0.0221    2.5096    6.0117 N.ar    1  UNL1       -0.1994
     12 C          -0.6690    2.3977    4.8783 C.ar    1  UNL1        0.2162
     13 N          -1.9761    2.8400    4.8965 N.pl3   1  UNL1       -0.3274
     14 N          -0.2128    1.8555    3.7500 N.ar    1  UNL1       -0.1947
     15 C           1.0275    1.3727    3.7372 C.ar    1  UNL1        0.1715
     16 N           1.4732    0.8147    2.6122 N.ar    1  UNL1       -0.1944
     17 C           1.3514   -0.7396   -0.2578 C.ar    1  UNL1       -0.0245
     18 C           0.1661   -0.0047   -0.4472 C.ar    1  UNL1       -0.0384
     19 C          -1.0076   -0.6323   -0.8661 C.ar    1  UNL1        0.0427
     20 CL         -2.4340    0.3012   -1.1066 Cl      1  UNL1       -0.0835
     21 C          -1.0311   -2.0015   -1.1022 C.ar    1  UNL1       -0.0250
     22 C           0.1327   -2.7378   -0.9109 C.ar    1  UNL1        0.0427
     23 CL          0.1168   -4.4366   -1.2077 Cl      1  UNL1       -0.0835
     24 C           1.3176   -2.1222   -0.4926 C.ar    1  UNL1       -0.0384
     25 H           4.0690   -1.1043   -1.0955 H       1  UNL1        0.0251
     26 H           3.3092    0.2633   -1.8917 H       1  UNL1        0.0251
     27 H           4.5566    0.5389   -0.6633 H       1  UNL1        0.0251
     28 H           2.3808    1.0659    0.2124 H       1  UNL1        0.0548
     29 H           4.9689   -1.1641    2.1550 H       1  UNL1        0.0429
     30 H           3.5945   -2.2827    2.3234 H       1  UNL1        0.0429
     31 H           4.3382   -2.0218    0.7596 H       1  UNL1        0.0429
     32 H           3.7684    0.8736    5.5923 H       1  UNL1        0.0839
     33 H           1.3761    2.6520    7.8544 H       1  UNL1        0.1437
     34 H           2.8607    2.6484    7.0792 H       1  UNL1        0.1437
     35 H          -2.5170    2.3463    4.1992 H       1  UNL1        0.1452
     36 H          -2.3313    2.8324    5.8427 H       1  UNL1        0.1452
     37 H           0.1583    1.0682   -0.2604 H       1  UNL1        0.0635
     38 H          -1.9458   -2.4862   -1.4301 H       1  UNL1        0.0647
     39 H           2.2117   -2.7233   -0.3575 H       1  UNL1        0.0635
@<TRIPOS>BOND
     1     1    25    1
     2     1    26    1
     3     1    27    1
     4     3     2    1
     5     4     3    1
     6     4    29    1
     7     4    30    1
     8     4    31    1
     9     5     3    1
    10     6     5   ar
    11     7     6   ar
    12     7    32    1
    13     8     7   ar
    14     9     8   ar
    15    10     9    1
    16    10    33    1
    17    10    34    1
    18    11     9   ar
    19    12    11   ar
    20    13    12    1
    21    13    35    1
    22    13    36    1
    23    14    12   ar
    24    15    14   ar
    25    15     8   ar
    26    16    15   ar
    27    16     5   ar
    28    17     2    1
    29    18    17   ar
    30    18    37    1
    31    19    18   ar
    32    20    19    1
    33    21    19   ar
    34    21    38    1
    35    22    21   ar
    36    23    22    1
    37    24    22   ar
    38    24    17   ar
    39    24    39    1
    40     2    28    1
    41     2     1    1
