@<TRIPOS>MOLECULE
>46.sdf
 59 62 0 0 0
SMALL
GASTEIGER

@<TRIPOS>ATOM
      1 C          11.1026    0.2908   -2.2616 C.3     1  UNL1        0.0788
      2 O          10.6673    0.7345   -3.5470 O.3     1  UNL1       -0.4951
      3 C           9.3201    0.7557   -3.7594 C.ar    1  UNL1        0.1201
      4 C           8.3520    0.8916   -2.7682 C.ar    1  UNL1       -0.0195
      5 C           6.9922    0.9066   -3.1074 C.ar    1  UNL1       -0.0501
      6 C           6.5729    0.7952   -4.4420 C.ar    1  UNL1       -0.0025
      7 C           5.0983    0.7619   -4.7652 C.3     1  UNL1        0.0001
      8 N           4.6056    1.9127   -5.6207 N.4     1  UNL1        0.2808
      9 C           4.7924    3.2919   -5.0464 C.3     1  UNL1        0.0156
     10 C           3.4385    3.6563   -4.4594 C.3     1  UNL1        0.0156
     11 N           2.4298    2.9165   -5.3102 N.4     1  UNL1        0.2808
     12 C           1.5466    3.8090   -6.1767 C.3     1  UNL1        0.0001
     13 C           0.6913    4.7983   -5.4276 C.ar    1  UNL1       -0.0025
     14 C           0.8570    6.1752   -5.6547 C.ar    1  UNL1       -0.0501
     15 C           0.0255    7.1164   -5.0350 C.ar    1  UNL1       -0.0195
     16 C          -0.9929    6.7007   -4.1836 C.ar    1  UNL1        0.1201
     17 O          -1.8764    7.5117   -3.5317 O.3     1  UNL1       -0.4951
     18 C          -1.7542    8.9167   -3.7401 C.3     1  UNL1        0.0788
     19 C          -1.1726    5.3332   -3.9620 C.ar    1  UNL1       -0.0195
     20 C          -0.3436    4.3855   -4.5766 C.ar    1  UNL1       -0.0501
     21 C           3.1619    1.8001   -6.0236 C.3     1  UNL1        0.0256
     22 C           2.9437    1.7364   -7.5239 C.ar    1  UNL1        0.0495
     23 C           3.7372    2.4559   -8.4391 C.ar    1  UNL1       -0.0474
     24 C           3.4262    2.4638   -9.8001 C.ar    1  UNL1       -0.0611
     25 C           2.3120    1.7758  -10.2679 C.ar    1  UNL1       -0.0617
     26 C           1.5174    1.0553   -9.3829 C.ar    1  UNL1       -0.0611
     27 C           1.8351    1.0220   -8.0239 C.ar    1  UNL1       -0.0474
     28 C           7.5556    0.6670   -5.4372 C.ar    1  UNL1       -0.0501
     29 C           8.9164    0.6601   -5.0921 C.ar    1  UNL1       -0.0195
     30 H          10.8034    0.9879   -1.4724 H       1  UNL1        0.0660
     31 H          10.7317   -0.7187   -2.0534 H       1  UNL1        0.0660
     32 H          12.1962    0.2547   -2.2666 H       1  UNL1        0.0660
     33 H           8.6288    0.9875   -1.7232 H       1  UNL1        0.0654
     34 H           6.2751    0.9863   -2.2887 H       1  UNL1        0.0623
     35 H           4.8779   -0.1618   -5.3141 H       1  UNL1        0.0869
     36 H           4.4962    0.7682   -3.8505 H       1  UNL1        0.0869
     37 H           5.1849    1.8310   -6.4646 H       1  UNL1        0.2104
     38 H           5.0403    3.9473   -5.8880 H       1  UNL1        0.0870
     39 H           5.6060    3.3107   -4.3181 H       1  UNL1        0.0870
     40 H           3.3301    3.2609   -3.4427 H       1  UNL1        0.0870
     41 H           3.2449    4.7299   -4.4647 H       1  UNL1        0.0870
     42 H           1.7556    2.4728   -4.6730 H       1  UNL1        0.2104
     43 H           2.2090    4.3255   -6.8797 H       1  UNL1        0.0869
     44 H           0.8648    3.1569   -6.7317 H       1  UNL1        0.0869
     45 H           1.6078    6.5492   -6.3492 H       1  UNL1        0.0623
     46 H           0.1805    8.1692   -5.2571 H       1  UNL1        0.0654
     47 H          -0.7902    9.2832   -3.3718 H       1  UNL1        0.0660
     48 H          -1.8965    9.1747   -4.7949 H       1  UNL1        0.0660
     49 H          -2.5424    9.4140   -3.1665 H       1  UNL1        0.0660
     50 H          -1.9936    5.0092   -3.3218 H       1  UNL1        0.0654
     51 H          -0.5719    3.3358   -4.4069 H       1  UNL1        0.0623
     52 H           2.7812    0.8733   -5.5753 H       1  UNL1        0.1531
     53 H           4.5981    3.0490   -8.1395 H       1  UNL1        0.0624
     54 H           4.0442    3.0189  -10.5065 H       1  UNL1        0.0618
     55 H           2.0613    1.8018  -11.3285 H       1  UNL1        0.0618
     56 H           0.6426    0.5254   -9.7611 H       1  UNL1        0.0618
     57 H           1.1715    0.4539   -7.3706 H       1  UNL1        0.0624
     58 H           7.3062    0.5347   -6.4871 H       1  UNL1        0.0623
     59 H           9.6768    0.5460   -5.8648 H       1  UNL1        0.0654
@<TRIPOS>UNITY_ATOM_ATTR
8 1
charge 1
11 1
charge 1
@<TRIPOS>BOND
     1     1    30    1
     2     1    31    1
     3     1    32    1
     4     2     1    1
     5     3     2    1
     6     4     3   ar
     7     4    33    1
     8     5     4   ar
     9     5    34    1
    10     6     5   ar
    11     7     6    1
    12     7    35    1
    13     7    36    1
    14     8     7    1
    15     8    37    1
    16     9     8    1
    17     9    38    1
    18     9    39    1
    19    10     9    1
    20    10    40    1
    21    10    41    1
    22    11    10    1
    23    11    42    1
    24    12    11    1
    25    12    43    1
    26    12    44    1
    27    13    12    1
    28    14    13   ar
    29    14    45    1
    30    15    14   ar
    31    15    46    1
    32    16    15   ar
    33    17    16    1
    34    18    17    1
    35    18    47    1
    36    18    48    1
    37    18    49    1
    38    19    16   ar
    39    19    50    1
    40    20    19   ar
    41    20    13   ar
    42    20    51    1
    43    21    11    1
    44    21     8    1
    45    21    52    1
    46    22    21    1
    47    23    22   ar
    48    23    53    1
    49    24    23   ar
    50    24    54    1
    51    25    24   ar
    52    25    55    1
    53    26    25   ar
    54    26    56    1
    55    27    26   ar
    56    27    22   ar
    57    27    57    1
    58    28     6   ar
    59    28    58    1
    60    29    28   ar
    61    29     3   ar
    62    29    59    1
