@<TRIPOS>MOLECULE
>166.sdf
 47 50 0 0 0
SMALL
GASTEIGER

@<TRIPOS>ATOM
      1 C           1.6693   -1.0146   -1.9646 C.3     1  UNL1        0.1346
      2 O           1.8985   -2.3955   -2.2257 O.3     1  UNL1       -0.4858
      3 C           1.0179   -3.0280   -3.0544 C.ar    1  UNL1        0.1211
      4 C          -0.0892   -2.4533   -3.6810 C.ar    1  UNL1       -0.0199
      5 C          -0.8921   -3.2249   -4.5265 C.ar    1  UNL1       -0.0583
      6 C          -0.5957   -4.5713   -4.7384 C.ar    1  UNL1       -0.0615
      7 C           0.5017   -5.1482   -4.1107 C.ar    1  UNL1       -0.0583
      8 C           1.3025   -4.3788   -3.2675 C.ar    1  UNL1       -0.0199
      9 C           2.7295   -0.4860   -1.0763 C.ar    1  UNL1        0.1204
     10 C           3.9430    0.0933   -1.3733 C.ar    1  UNL1        0.0578
     11 N           4.4562    0.4938   -0.1538 N.ar    1  UNL1       -0.2191
     12 N           3.6343    0.0567    0.8140 N.ar    1  UNL1       -0.0604
     13 N           2.5744   -0.5164    0.2732 N.ar    1  UNL1       -0.1307
     14 C           5.6530    1.2222    0.0865 C.ar    1  UNL1        0.0756
     15 C           5.8239    2.1273    1.1563 C.ar    1  UNL1        0.0200
     16 C           4.8126    2.5038    2.1707 C.2     1  UNL1        0.0547
     17 N           4.1317    1.6176    2.8076 N.2     1  UNL1       -0.1899
     18 N           3.1868    2.0709    3.6709 N.pl3   1  UNL1       -0.2378
     19 C           2.5513    1.0616    4.4456 C.ar    1  UNL1        0.0483
     20 C           3.0672   -0.2416    4.5280 C.ar    1  UNL1       -0.0391
     21 C           2.5257   -1.1828    5.4039 C.ar    1  UNL1       -0.0600
     22 C           1.4618   -0.8282    6.2264 C.ar    1  UNL1       -0.0616
     23 C           0.9285    0.4584    6.1541 C.ar    1  UNL1       -0.0600
     24 C           1.4711    1.3980    5.2706 C.ar    1  UNL1       -0.0391
     25 C           7.0210    2.8573    1.2602 C.ar    1  UNL1       -0.0511
     26 C           8.0510    2.6824    0.3354 C.ar    1  UNL1       -0.0610
     27 C           7.8928    1.7854   -0.7139 C.ar    1  UNL1       -0.0597
     28 C           6.7013    1.0688   -0.8461 C.ar    1  UNL1       -0.0356
     29 H           0.6974   -0.8795   -1.4726 H       1  UNL1        0.0764
     30 H           1.6776   -0.4445   -2.9021 H       1  UNL1        0.0764
     31 H          -0.3611   -1.4137   -3.5311 H       1  UNL1        0.0654
     32 H          -1.7521   -2.7742   -5.0155 H       1  UNL1        0.0619
     33 H          -1.2179   -5.1652   -5.3997 H       1  UNL1        0.0618
     34 H           0.7367   -6.1963   -4.2696 H       1  UNL1        0.0619
     35 H           2.1556   -4.8328   -2.7682 H       1  UNL1        0.0654
     36 H           4.4220    0.3156   -2.3153 H       1  UNL1        0.0851
     37 H           4.7131    3.5800    2.4008 H       1  UNL1        0.0852
     38 H           2.4893    2.7080    3.2846 H       1  UNL1        0.1744
     39 H           3.8999   -0.5334    3.8918 H       1  UNL1        0.0636
     40 H           2.9481   -2.1827    5.4426 H       1  UNL1        0.0618
     41 H           1.0562   -1.5525    6.9269 H       1  UNL1        0.0618
     42 H           0.0990    0.7352    6.7980 H       1  UNL1        0.0618
     43 H           1.0549    2.4005    5.2458 H       1  UNL1        0.0636
     44 H           7.1647    3.5675    2.0737 H       1  UNL1        0.0625
     45 H           8.9768    3.2434    0.4381 H       1  UNL1        0.0618
     46 H           8.6997    1.6360   -1.4286 H       1  UNL1        0.0618
     47 H           6.6287    0.3589   -1.6684 H       1  UNL1        0.0639
@<TRIPOS>BOND
     1     1    29    1
     2     1    30    1
     3     2     1    1
     4     3     2    1
     5     4     3   ar
     6     4    31    1
     7     5     4   ar
     8     5    32    1
     9     6     5   ar
    10     6    33    1
    11     7     6   ar
    12     7    34    1
    13     8     7   ar
    14     8     3   ar
    15     8    35    1
    16     9     1    1
    17    10     9   ar
    18    10    36    1
    19    11    10   ar
    20    12    11   ar
    21    13    12   ar
    22    13     9   ar
    23    14    11    1
    24    15    14   ar
    25    16    15    1
    26    16    37    1
    27    17    16    2
    28    18    17    1
    29    18    38    1
    30    19    18    1
    31    20    19   ar
    32    20    39    1
    33    21    20   ar
    34    21    40    1
    35    22    21   ar
    36    22    41    1
    37    23    22   ar
    38    23    42    1
    39    24    23   ar
    40    24    19   ar
    41    24    43    1
    42    25    15   ar
    43    25    44    1
    44    26    25   ar
    45    26    45    1
    46    27    26   ar
    47    27    46    1
    48    28    27   ar
    49    28    14   ar
    50    28    47    1
