@<TRIPOS>MOLECULE
>74.sdf
 44 48 0 0 0
SMALL
GASTEIGER

@<TRIPOS>ATOM
      1 C           0.9378    0.1759   -0.0445 C.3     1  UNL1       -0.0396
      2 C           2.4354    0.0853   -0.0581 C.ar    1  UNL1       -0.0484
      3 C           3.2221    1.2455   -0.0855 C.ar    1  UNL1       -0.0328
      4 C           4.6122    1.2126   -0.0992 C.ar    1  UNL1        0.0725
      5 N           5.2498    2.3913   -0.1318 N.ar    1  UNL1       -0.2459
      6 C           6.5982    2.4151   -0.1326 C.ar    1  UNL1        0.0839
      7 C           7.3557    1.2412   -0.0617 C.ar    1  UNL1        0.0598
      8 C           8.8137    1.4650    0.0310 C.2     1  UNL1        0.2356
      9 O           9.5599    0.8337    0.7601 O.2     1  UNL1       -0.2831
     10 C           9.3499    2.6435   -0.7585 C.2     1  UNL1        0.2336
     11 O          10.3265    2.5436   -1.4801 O.2     1  UNL1       -0.2832
     12 C           8.5815    3.8818   -0.5787 C.ar    1  UNL1        0.0347
     13 C           7.2266    3.7555   -0.2201 C.ar    1  UNL1        0.0120
     14 C           6.5262    4.9463    0.0282 C.ar    1  UNL1       -0.0519
     15 C           7.1592    6.1931   -0.0738 C.ar    1  UNL1       -0.0611
     16 C           8.4983    6.2801   -0.4545 C.ar    1  UNL1       -0.0610
     17 C           9.2156    5.1200   -0.7225 C.ar    1  UNL1       -0.0502
     18 C           6.7293   -0.0284   -0.0198 C.ar    1  UNL1        0.0043
     19 C           7.5290   -1.2968    0.0948 C.ar    1  UNL1       -0.0164
     20 C           7.1765   -2.3115    1.0109 C.ar    1  UNL1       -0.0518
     21 C           7.9394   -3.4771    1.1660 C.ar    1  UNL1       -0.0309
     22 C           9.1394   -3.6099    0.4669 C.ar    1  UNL1        0.1262
     23 C           9.5300   -2.6266   -0.4423 C.ar    1  UNL1       -0.0309
     24 C           8.7044   -1.5123   -0.6557 C.ar    1  UNL1       -0.0518
     25 N          10.0034   -4.7703    0.7133 N.pl3   1  UNL1        0.0564
     26 O           9.5687   -5.6636    1.4552 O.2     1  UNL1       -0.1261
     27 O          11.1152   -4.7906    0.1668 O.2     1  UNL1       -0.1261
     28 C           5.2906   -0.0353   -0.0767 C.ar    1  UNL1        0.0088
     29 C           4.4721   -1.2004   -0.1095 C.ar    1  UNL1       -0.0517
     30 C           3.0763   -1.1451   -0.0731 C.ar    1  UNL1       -0.0581
     31 H           0.5959    0.7325    0.8335 H       1  UNL1        0.0278
     32 H           0.5835    0.6754   -0.9514 H       1  UNL1        0.0278
     33 H           0.4768   -0.8177   -0.0088 H       1  UNL1        0.0278
     34 H           2.7277    2.2170   -0.0969 H       1  UNL1        0.0642
     35 H           5.4761    4.9143    0.3162 H       1  UNL1        0.0624
     36 H           6.6013    7.1018    0.1445 H       1  UNL1        0.0618
     37 H           8.9840    7.2503   -0.5314 H       1  UNL1        0.0618
     38 H          10.2636    5.1751   -1.0099 H       1  UNL1        0.0625
     39 H           6.2942   -2.2073    1.6409 H       1  UNL1        0.0624
     40 H           7.5992   -4.2456    1.8573 H       1  UNL1        0.0640
     41 H          10.4776   -2.6908   -0.9743 H       1  UNL1        0.0640
     42 H           9.0487   -0.7758   -1.3803 H       1  UNL1        0.0624
     43 H           4.9107   -2.1935   -0.1717 H       1  UNL1        0.0624
     44 H           2.5045   -2.0712   -0.0639 H       1  UNL1        0.0620
@<TRIPOS>BOND
     1     1    31    1
     2     1    32    1
     3     1    33    1
     4     2     1    1
     5     3     2   ar
     6     3    34    1
     7     4     3   ar
     8     5     4   ar
     9     6     5   ar
    10     7     6   ar
    11     8     7    1
    12     9     8    2
    13    10     8    1
    14    11    10    2
    15    12    10    1
    16    13    12   ar
    17    13     6    1
    18    14    13   ar
    19    14    35    1
    20    15    14   ar
    21    15    36    1
    22    16    15   ar
    23    16    37    1
    24    17    16   ar
    25    17    12   ar
    26    17    38    1
    27    18     7   ar
    28    19    18    1
    29    20    19   ar
    30    20    39    1
    31    21    20   ar
    32    21    40    1
    33    22    21   ar
    34    23    22   ar
    35    23    41    1
    36    24    23   ar
    37    24    19   ar
    38    24    42    1
    39    25    22    1
    40    26    25    2
    41    27    25    2
    42    28    18   ar
    43    28     4   ar
    44    29    28   ar
    45    29    43    1
    46    30    29   ar
    47    30     2   ar
    48    30    44    1
