@<TRIPOS>MOLECULE
>109.sdf
 22 24 0 0 0
SMALL
GASTEIGER

@<TRIPOS>ATOM
      1 O           2.5962   -1.5078   -6.5896 O.2     1  UNL1       -0.2456
      2 C           3.4480   -0.6576   -6.4276 C.2     1  UNL1        0.3327
      3 O           4.7204   -0.6522   -6.9378 O.3     1  UNL1       -0.4464
      4 C           5.5105    0.1186   -6.0024 C.3     1  UNL1        0.1755
      5 C           6.8098    0.8481   -6.4129 C.3     1  UNL1       -0.0008
      6 C           7.6484   -0.2773   -5.8044 C.3     1  UNL1       -0.0008
      7 C           6.3911   -0.8217   -5.0743 C.3     1  UNL1        0.1755
      8 O           6.2743   -0.6231   -3.6595 O.3     1  UNL1       -0.4464
      9 C           5.8963   -1.8133   -3.0924 C.2     1  UNL1        0.3327
     10 O           5.5843   -1.9925   -1.9290 O.2     1  UNL1       -0.2456
     11 C           5.9237   -2.8580   -4.1274 C.2     1  UNL1        0.0225
     12 C           6.2279   -2.2805   -5.2976 C.2     1  UNL1       -0.0300
     13 C           4.5292    1.0435   -5.3963 C.2     1  UNL1       -0.0300
     14 C           3.3023    0.5761   -5.6363 C.2     1  UNL1        0.0225
     15 H           6.9551    1.0351   -7.4783 H       1  UNL1        0.0310
     16 H           6.9807    1.7950   -5.8792 H       1  UNL1        0.0310
     17 H           8.4651    0.0424   -5.1506 H       1  UNL1        0.0310
     18 H           8.0666   -0.9392   -6.5720 H       1  UNL1        0.0310
     19 H           5.7552   -3.9037   -3.9205 H       1  UNL1        0.0687
     20 H           6.3596   -2.7910   -6.2338 H       1  UNL1        0.0615
     21 H           4.7474    2.0154   -4.9746 H       1  UNL1        0.0615
     22 H           2.3510    1.0223   -5.4047 H       1  UNL1        0.0687
@<TRIPOS>BOND
     1     3     2    1
     2     4     3    1
     3     5     4    1
     4     6     5    1
     5     7     6    1
     6     7     4    1
     7     8     7    1
     8     9     8    1
     9    11     9    1
    10    12    11    2
    11    12     7    1
    12    13     4    1
    13    14    13    2
    14    14     2    1
    15     2     1    2
    16     5    15    1
    17     5    16    1
    18     6    17    1
    19     6    18    1
    20    10     9    2
    21    11    19    1
    22    12    20    1
    23    13    21    1
    24    14    22    1
