@<TRIPOS>MOLECULE
>185.sdf
 39 43 0 0 0
SMALL
GASTEIGER

@<TRIPOS>ATOM
      1 CL          2.4444    2.3590   -1.3745 Cl      1  UNL1       -0.0829
      2 C           1.5365    1.0457   -0.6964 C.ar    1  UNL1        0.0502
      3 C           0.2661    1.2001   -0.0972 C.ar    1  UNL1        0.0207
      4 C          -0.3225    0.0258    0.4309 C.ar    1  UNL1       -0.0511
      5 C           0.3295   -1.2113    0.4212 C.ar    1  UNL1       -0.0610
      6 C           1.5755   -1.3300   -0.1747 C.ar    1  UNL1       -0.0603
      7 C           2.1699   -0.2081   -0.7444 C.ar    1  UNL1       -0.0427
      8 C          -0.4644    2.4836   -0.0295 C.ar    1  UNL1        0.0970
      9 C          -1.3069    2.8739    1.0277 C.ar    1  UNL1        0.0739
     10 N          -1.5880    2.2695    2.2334 N.ar    1  UNL1       -0.3525
     11 C          -2.5665    2.9399    2.9181 C.ar    1  UNL1        0.0475
     12 C          -2.8520    4.0924    2.1910 C.ar    1  UNL1        0.0075
     13 C          -3.8179    4.9830    2.7008 C.ar    1  UNL1       -0.0520
     14 C          -4.4692    4.6774    3.9037 C.ar    1  UNL1       -0.0611
     15 C          -4.1674    3.5081    4.5964 C.ar    1  UNL1       -0.0598
     16 C          -3.2058    2.6151    4.1196 C.ar    1  UNL1       -0.0378
     17 C          -2.0418    4.0633    1.0097 C.ar    1  UNL1        0.0117
     18 C          -1.8920    4.9283   -0.0827 C.ar    1  UNL1       -0.0213
     19 C          -1.0335    4.5126   -1.0924 C.ar    1  UNL1        0.1262
     20 N          -0.3695    3.3299   -1.0867 N.ar    1  UNL1       -0.2398
     21 C          -0.8215    5.3916   -2.2653 C.2     1  UNL1        0.2366
     22 N          -1.3871    6.5424   -2.4750 N.2     1  UNL1       -0.2456
     23 C          -0.8777    6.9358   -3.7954 C.3     1  UNL1        0.0775
     24 C           0.2330    5.9608   -4.1104 C.3     1  UNL1        0.1108
     25 O           0.0575    4.9090   -3.1782 O.2     1  UNL1       -0.4733
     26 H          -1.3295    0.0479    0.8418 H       1  UNL1        0.0625
     27 H          -0.1500   -2.0821    0.8622 H       1  UNL1        0.0618
     28 H           2.0794   -2.2924   -0.2074 H       1  UNL1        0.0618
     29 H           3.1395   -0.3109   -1.2274 H       1  UNL1        0.0632
     30 H          -1.1621    1.4133    2.5607 H       1  UNL1        0.1660
     31 H          -4.0716    5.8923    2.1638 H       1  UNL1        0.0624
     32 H          -5.2226    5.3584    4.2950 H       1  UNL1        0.0618
     33 H          -4.6888    3.2855    5.5249 H       1  UNL1        0.0618
     34 H          -2.9734    1.7049    4.6621 H       1  UNL1        0.0638
     35 H          -2.4222    5.8706   -0.1434 H       1  UNL1        0.0647
     36 H          -0.5133    7.9677   -3.7889 H       1  UNL1        0.0543
     37 H          -1.6843    6.8671   -4.5335 H       1  UNL1        0.0543
     38 H           0.1610    5.5718   -5.1317 H       1  UNL1        0.0716
     39 H           1.2227    6.4046   -3.9716 H       1  UNL1        0.0716
@<TRIPOS>BOND
     1     2     1    1
     2     3     2   ar
     3     4     3   ar
     4     4    26    1
     5     5     4   ar
     6     5    27    1
     7     6     5   ar
     8     6    28    1
     9     7     6   ar
    10     7     2   ar
    11     7    29    1
    12     8     3    1
    13     9     8   ar
    14    10     9   ar
    15    10    30    1
    16    11    10   ar
    17    12    11   ar
    18    13    12   ar
    19    13    31    1
    20    14    13   ar
    21    14    32    1
    22    15    14   ar
    23    15    33    1
    24    16    15   ar
    25    16    11   ar
    26    16    34    1
    27    17    12   ar
    28    17     9   ar
    29    18    17   ar
    30    18    35    1
    31    19    18   ar
    32    20    19   ar
    33    20     8   ar
    34    21    19    1
    35    22    21    2
    36    23    22    1
    37    23    36    1
    38    23    37    1
    39    24    23    1
    40    24    38    1
    41    24    39    1
    42    25    24    1
    43    25    21    1
