@<TRIPOS>MOLECULE
>99.sdf
 62 68 0 0 0
SMALL
GASTEIGER

@<TRIPOS>ATOM
      1 C           3.2101    2.2308    0.1210 C.3     1  UNL1        0.0956
      2 O           3.3791    3.0633    1.2739 O.3     1  UNL1       -0.4611
      3 C           4.6384    3.4061    1.5310 C.ar    1  UNL1        0.3412
      4 N           5.6684    3.1922    0.7411 N.ar    1  UNL1       -0.0706
      5 N           6.7655    3.6429    1.4203 N.ar    1  UNL1       -0.0195
      6 N           6.4303    4.1280    2.6062 N.ar    1  UNL1       -0.0362
      7 N           5.0816    3.9892    2.7106 N.ar    1  UNL1       -0.1626
      8 C           4.3896    4.3273    3.9035 C.ar    1  UNL1        0.0723
      9 C           5.1301    4.7090    5.0356 C.ar    1  UNL1       -0.0360
     10 C           4.4904    4.9165    6.2592 C.ar    1  UNL1       -0.0597
     11 C           3.1097    4.7700    6.3588 C.ar    1  UNL1       -0.0616
     12 C           2.3614    4.4503    5.2276 C.ar    1  UNL1       -0.0597
     13 C           2.9952    4.2341    4.0001 C.ar    1  UNL1       -0.0360
     14 C           1.7408    1.8025    0.0553 C.3     1  UNL1       -0.0063
     15 C           0.7864    2.9888   -0.1269 C.3     1  UNL1       -0.0422
     16 C          -0.6671    2.5416    0.0622 C.3     1  UNL1        0.0046
     17 C          -0.9401    1.1103   -0.4400 C.3     1  UNL1        0.2059
     18 C           0.0474    0.7096   -1.5332 C.3     1  UNL1        0.0046
     19 C           1.5045    0.7595   -1.0516 C.3     1  UNL1       -0.0422
     20 O          -0.8156    0.2031    0.6619 O.3     1  UNL1       -0.1965
     21 O          -2.0671   -0.5509    0.6735 O.3     1  UNL1       -0.1960
     22 C          -2.9974    0.2976    0.0170 C.3     1  UNL1        0.2114
     23 O          -2.2663    1.0471   -0.9505 O.3     1  UNL1       -0.3112
     24 C          -4.0761   -0.5443   -0.6975 C.3     1  UNL1        0.0168
     25 C          -5.0460    0.3912   -1.4463 C.3     1  UNL1       -0.0424
     26 C          -5.7204    1.3556   -0.4526 C.3     1  UNL1       -0.0400
     27 C          -6.5092    0.5332    0.5814 C.3     1  UNL1       -0.0473
     28 C          -5.5611   -0.4137    1.3396 C.3     1  UNL1       -0.0400
     29 C          -4.8775   -1.3609    0.3380 C.3     1  UNL1       -0.0424
     30 C          -4.4900    0.4197    2.0587 C.3     1  UNL1       -0.0424
     31 C          -3.6873    1.2425    1.0331 C.3     1  UNL1        0.0168
     32 C          -4.6478    2.1830    0.2782 C.3     1  UNL1       -0.0424
     33 H           3.8379    1.3364    0.2213 H       1  UNL1        0.0700
     34 H           3.4945    2.7789   -0.7839 H       1  UNL1        0.0700
     35 H           6.2132    4.8153    4.9959 H       1  UNL1        0.0639
     36 H           5.0754    5.1742    7.1391 H       1  UNL1        0.0618
     37 H           2.6161    4.9044    7.3182 H       1  UNL1        0.0618
     38 H           1.2809    4.3540    5.3040 H       1  UNL1        0.0618
     39 H           2.3650    3.9917    3.1503 H       1  UNL1        0.0639
     40 H           1.5021    1.3450    1.0253 H       1  UNL1        0.0334
     41 H           0.9099    3.4093   -1.1325 H       1  UNL1        0.0271
     42 H           1.0041    3.7984    0.5774 H       1  UNL1        0.0271
     43 H          -1.3273    3.2645   -0.4315 H       1  UNL1        0.0318
     44 H          -0.8932    2.5985    1.1341 H       1  UNL1        0.0318
     45 H          -0.1749   -0.2972   -1.9083 H       1  UNL1        0.0318
     46 H          -0.0779    1.3776   -2.3964 H       1  UNL1        0.0318
     47 H           1.7962   -0.2270   -0.6693 H       1  UNL1        0.0271
     48 H           2.1497    0.9554   -1.9167 H       1  UNL1        0.0271
     49 H          -3.6057   -1.2304   -1.4117 H       1  UNL1        0.0354
     50 H          -4.5117    0.9585   -2.2175 H       1  UNL1        0.0272
     51 H          -5.8087   -0.2025   -1.9655 H       1  UNL1        0.0272
     52 H          -6.3997    2.0258   -0.9905 H       1  UNL1        0.0301
     53 H          -7.0123    1.2046    1.2882 H       1  UNL1        0.0271
     54 H          -7.2936   -0.0464    0.0792 H       1  UNL1        0.0271
     55 H          -6.1301   -0.9968    2.0724 H       1  UNL1        0.0301
     56 H          -4.2173   -2.0572    0.8706 H       1  UNL1        0.0272
     57 H          -5.6322   -1.9704   -0.1712 H       1  UNL1        0.0272
     58 H          -4.9630    1.0912    2.7855 H       1  UNL1        0.0272
     59 H          -3.8193   -0.2373    2.6263 H       1  UNL1        0.0272
     60 H          -2.9509    1.8421    1.5760 H       1  UNL1        0.0354
     61 H          -4.0940    2.7997   -0.4387 H       1  UNL1        0.0272
     62 H          -5.1230    2.8739    0.9849 H       1  UNL1        0.0272
@<TRIPOS>BOND
     1     1    33    1
     2     1    34    1
     3     2     1    1
     4     3     2    1
     5     4     3   ar
     6     5     4   ar
     7     6     5   ar
     8     7     6   ar
     9     7     3   ar
    10     8     7    1
    11     9     8   ar
    12     9    35    1
    13    10     9   ar
    14    10    36    1
    15    11    10   ar
    16    11    37    1
    17    12    11   ar
    18    12    38    1
    19    13    12   ar
    20    13     8   ar
    21    13    39    1
    22    15    14    1
    23    16    15    1
    24    17    16    1
    25    18    17    1
    26    19    18    1
    27    19    14    1
    28    20    17    1
    29    21    20    1
    30    22    21    1
    31    23    22    1
    32    23    17    1
    33    24    22    1
    34    25    24    1
    35    26    25    1
    36    27    26    1
    37    28    27    1
    38    29    28    1
    39    29    24    1
    40    30    28    1
    41    31    30    1
    42    31    22    1
    43    32    31    1
    44    32    26    1
    45    14     1    1
    46    14    40    1
    47    15    41    1
    48    15    42    1
    49    16    43    1
    50    16    44    1
    51    18    45    1
    52    18    46    1
    53    19    47    1
    54    19    48    1
    55    24    49    1
    56    25    50    1
    57    25    51    1
    58    26    52    1
    59    27    53    1
    60    27    54    1
    61    28    55    1
    62    29    56    1
    63    29    57    1
    64    30    58    1
    65    30    59    1
    66    31    60    1
    67    32    61    1
    68    32    62    1
