@<TRIPOS>MOLECULE
>67.sdf
 59 63 0 0 0
SMALL
GASTEIGER

@<TRIPOS>ATOM
      1 F           1.9313    0.0849   -0.1738 F       1  UNL1       -0.2016
      2 C           0.7822   -0.0044    0.5133 C.ar    1  UNL1        0.1669
      3 C           0.1077    1.1925    0.7455 C.ar    1  UNL1        0.0074
      4 C          -1.0891    1.1693    1.4622 C.ar    1  UNL1        0.1291
      5 C          -1.6021   -0.0422    1.9436 C.ar    1  UNL1       -0.0278
      6 C          -0.9091   -1.2382    1.6984 C.ar    1  UNL1       -0.0149
      7 C           0.2874   -1.2398    0.9745 C.ar    1  UNL1        0.1557
      8 O           0.8738   -2.4772    0.8056 O.3     1  UNL1       -0.4881
      9 C           2.1113   -2.4661    0.0900 C.3     1  UNL1        0.1028
     10 C           2.8324   -3.8222   -0.0159 C.3     1  UNL1        0.0723
     11 C           4.1428   -3.5348   -0.8100 C.3     1  UNL1        0.0388
     12 N           5.0224   -4.6424   -1.1191 N.ar    1  UNL1       -0.3358
     13 C           4.9452   -5.4541   -2.2176 C.ar    1  UNL1        0.0240
     14 C           6.0383   -6.2826   -2.1261 C.ar    1  UNL1        0.0454
     15 N           6.8025   -5.9582   -1.0350 N.ar    1  UNL1       -0.2441
     16 C           6.1801   -4.9515   -0.4640 C.ar    1  UNL1        0.0959
     17 C           3.0960   -4.3679    1.4167 C.3     1  UNL1       -0.0110
     18 C           2.9659   -5.8457    1.2733 C.ar    1  UNL1       -0.0373
     19 C           2.3601   -6.2105    0.0748 C.ar    1  UNL1        0.0033
     20 C           2.2254   -7.5375   -0.2926 C.ar    1  UNL1       -0.0525
     21 C           2.6838   -8.5119    0.6024 C.ar    1  UNL1       -0.0611
     22 C           3.2484   -8.1529    1.8353 C.ar    1  UNL1       -0.0615
     23 C           3.3842   -6.8091    2.1811 C.ar    1  UNL1       -0.0579
     24 C           2.1007   -4.9859   -0.7007 C.2     1  UNL1        0.0988
     25 N           1.4615   -5.0059   -1.8321 N.2     1  UNL1       -0.0879
     26 O           1.4564   -3.7515   -2.4602 O.2     1  UNL1       -0.3887
     27 C           0.8025   -3.8494   -3.7389 C.3     1  UNL1        0.1443
     28 C           0.8049   -2.5035   -4.4431 C.ar    1  UNL1        0.0118
     29 C           0.8175   -2.3850   -5.8422 C.ar    1  UNL1        0.0475
     30 CL          0.7273   -3.7640   -6.8795 Cl      1  UNL1       -0.0831
     31 C           0.8650   -1.1238   -6.4594 C.ar    1  UNL1       -0.0416
     32 C           0.8496    0.0374   -5.6875 C.ar    1  UNL1       -0.0420
     33 C           0.7583   -0.0628   -4.3061 C.ar    1  UNL1        0.0414
     34 CL          0.6598    1.3605   -3.3443 Cl      1  UNL1       -0.0835
     35 C           0.7327   -1.3156   -3.6893 C.ar    1  UNL1       -0.0355
     36 N          -1.7979    2.4336    1.7085 N.pl3   1  UNL1        0.0565
     37 O          -1.2902    3.4746    1.2781 O.2     1  UNL1       -0.1261
     38 O          -2.8642    2.3736    2.3396 O.2     1  UNL1       -0.1261
     39 H           0.5340    2.1134    0.3606 H       1  UNL1        0.0670
     40 H          -2.5350   -0.0742    2.5073 H       1  UNL1        0.0641
     41 H          -1.3129   -2.1765    2.0745 H       1  UNL1        0.0656
     42 H           1.9433   -2.0562   -0.9079 H       1  UNL1        0.0707
     43 H           2.8000   -1.8015    0.6307 H       1  UNL1        0.0707
     44 H           3.9001   -3.0747   -1.7772 H       1  UNL1        0.0502
     45 H           4.7487   -2.7962   -0.2678 H       1  UNL1        0.0502
     46 H           4.1454   -5.3892   -2.9428 H       1  UNL1        0.0825
     47 H           6.3242   -7.0826   -2.7964 H       1  UNL1        0.0845
     48 H           6.5294   -4.4141    0.4079 H       1  UNL1        0.1029
     49 H           4.0838   -4.0811    1.7910 H       1  UNL1        0.0324
     50 H           2.3401   -4.0317    2.1359 H       1  UNL1        0.0324
     51 H           1.8237   -7.8148   -1.2610 H       1  UNL1        0.0624
     52 H           2.6332   -9.5673    0.3266 H       1  UNL1        0.0618
     53 H           3.6012   -8.9257    2.5135 H       1  UNL1        0.0618
     54 H           3.8351   -6.5302    3.1311 H       1  UNL1        0.0620
     55 H           1.3497   -4.5934   -4.3269 H       1  UNL1        0.0775
     56 H          -0.2324   -4.1784   -3.5946 H       1  UNL1        0.0775
     57 H           0.9024   -1.0412   -7.5436 H       1  UNL1        0.0633
     58 H           0.8880    1.0113   -6.1719 H       1  UNL1        0.0633
     59 H           0.6467   -1.3660   -2.6072 H       1  UNL1        0.0636
@<TRIPOS>BOND
     1     2     1    1
     2     3     2   ar
     3     3    39    1
     4     4     3   ar
     5     5     4   ar
     6     5    40    1
     7     6     5   ar
     8     6    41    1
     9     7     6   ar
    10     7     2   ar
    11     8     7    1
    12     9     8    1
    13     9    42    1
    14     9    43    1
    15    10     9    1
    16    11    10    1
    17    11    44    1
    18    11    45    1
    19    12    11    1
    20    13    12   ar
    21    13    46    1
    22    14    13   ar
    23    14    47    1
    24    15    14   ar
    25    16    15   ar
    26    16    12   ar
    27    16    48    1
    28    17    10    1
    29    17    49    1
    30    17    50    1
    31    18    17    1
    32    19    18   ar
    33    20    19   ar
    34    20    51    1
    35    21    20   ar
    36    21    52    1
    37    22    21   ar
    38    22    53    1
    39    23    22   ar
    40    23    18   ar
    41    23    54    1
    42    24    19    1
    43    24    10    1
    44    25    24    2
    45    26    25    1
    46    27    26    1
    47    27    55    1
    48    27    56    1
    49    28    27    1
    50    29    28   ar
    51    30    29    1
    52    31    29   ar
    53    31    57    1
    54    32    31   ar
    55    32    58    1
    56    33    32   ar
    57    34    33    1
    58    35    33   ar
    59    35    28   ar
    60    35    59    1
    61    36     4    1
    62    37    36    2
    63    38    36    2
