@<TRIPOS>MOLECULE
>96.sdf
 65 68 0 0 0
SMALL
GASTEIGER

@<TRIPOS>ATOM
      1 C          -1.0538   -2.5696   -1.7801 C.3     1  UNL1        0.0788
      2 O           0.1036   -1.7773   -1.5688 O.3     1  UNL1       -0.4951
      3 C           1.2794   -2.4609   -1.4893 C.ar    1  UNL1        0.1201
      4 C           1.5006   -3.7736   -1.8886 C.ar    1  UNL1       -0.0194
      5 C           2.8036   -4.2768   -1.9733 C.ar    1  UNL1       -0.0505
      6 C           3.9149   -3.4630   -1.7180 C.ar    1  UNL1       -0.0162
      7 C           3.6243   -2.2909   -0.9950 C.ar    1  UNL1       -0.0505
      8 C           2.3420   -1.7433   -0.9767 C.ar    1  UNL1       -0.0194
      9 C           5.1776   -3.5479   -2.6036 C.ar    1  UNL1        0.0053
     10 C           5.8839   -2.3602   -2.7754 C.ar    1  UNL1        0.0680
     11 C           5.7302   -1.7288   -3.9838 C.ar    1  UNL1        0.0719
     12 C           5.5984   -0.2412   -3.7553 C.3     1  UNL1        0.0589
     13 N           5.8978   -0.0882   -2.3377 N.am    1  UNL1       -0.2779
     14 C           6.2648   -1.3169   -1.8099 C.2     1  UNL1        0.2501
     15 O           6.7734   -1.5566   -0.7302 O.2     1  UNL1       -0.2699
     16 C           5.8628    1.2025   -1.5888 C.3     1  UNL1        0.1084
     17 C           5.2552    1.0218   -0.1728 C.3     1  UNL1       -0.0352
     18 C           7.2988    1.7164   -1.4287 C.3     1  UNL1       -0.0352
     19 C           4.9800    2.3087   -2.2848 C.2     1  UNL1        0.2366
     20 O           4.0282    2.8440   -1.7202 O.2     1  UNL1       -0.2735
     21 N           5.3664    2.6735   -3.5606 N.am    1  UNL1       -0.3088
     22 C           4.7245    3.7299   -4.3619 C.3     1  UNL1        0.0262
     23 C           4.9433    5.1050   -3.7155 C.3     1  UNL1       -0.0442
     24 C           5.3847    3.7252   -5.7532 C.3     1  UNL1       -0.0442
     25 C           3.2193    3.4684   -4.5540 C.3     1  UNL1       -0.0442
     26 N           5.3665   -2.3349   -5.1248 N.ar    1  UNL1       -0.2492
     27 C           5.1497   -3.6556   -5.0426 C.ar    1  UNL1        0.0722
     28 C           5.0870   -4.3551   -3.8041 C.ar    1  UNL1        0.0123
     29 C           4.8352   -5.7657   -3.8475 C.ar    1  UNL1       -0.0102
     30 C           4.5748   -6.4232   -5.0520 C.ar    1  UNL1        0.1208
     31 O           4.2741   -7.7407   -5.2358 O.3     1  UNL1       -0.4951
     32 C           4.1345   -8.5709   -4.0943 C.3     1  UNL1        0.0788
     33 C           4.5974   -5.6911   -6.2339 C.ar    1  UNL1       -0.0179
     34 C           4.8923   -4.3332   -6.2197 C.ar    1  UNL1       -0.0323
     35 H          -1.0202   -3.0927   -2.7419 H       1  UNL1        0.0660
     36 H          -1.1786   -3.2715   -0.9501 H       1  UNL1        0.0660
     37 H          -1.9181   -1.9011   -1.7977 H       1  UNL1        0.0660
     38 H           0.6967   -4.4086   -2.2402 H       1  UNL1        0.0654
     39 H           2.9037   -5.2737   -2.3825 H       1  UNL1        0.0625
     40 H           4.3921   -1.6814   -0.5410 H       1  UNL1        0.0625
     41 H           2.1929   -0.7300   -0.6093 H       1  UNL1        0.0654
     42 H           6.3227    0.2988   -4.3649 H       1  UNL1        0.0530
     43 H           4.5656    0.0727   -3.9445 H       1  UNL1        0.0530
     44 H           5.7913    0.2900    0.4364 H       1  UNL1        0.0255
     45 H           5.2731    1.9657    0.3871 H       1  UNL1        0.0255
     46 H           4.2074    0.7056   -0.2274 H       1  UNL1        0.0255
     47 H           7.7835    1.8631   -2.3991 H       1  UNL1        0.0255
     48 H           7.3204    2.6741   -0.8977 H       1  UNL1        0.0255
     49 H           7.9132    1.0033   -0.8679 H       1  UNL1        0.0255
     50 H           6.2850    2.3770   -3.8596 H       1  UNL1        0.1493
     51 H           6.0102    5.3057   -3.5711 H       1  UNL1        0.0250
     52 H           4.5267    5.9050   -4.3414 H       1  UNL1        0.0250
     53 H           4.4645    5.1770   -2.7344 H       1  UNL1        0.0250
     54 H           5.2557    2.7544   -6.2468 H       1  UNL1        0.0250
     55 H           4.9565    4.4948   -6.4028 H       1  UNL1        0.0250
     56 H           6.4628    3.9092   -5.6779 H       1  UNL1        0.0250
     57 H           3.0434    2.4787   -4.9917 H       1  UNL1        0.0250
     58 H           2.6638    3.5123   -3.6126 H       1  UNL1        0.0250
     59 H           2.7739    4.2154   -5.2212 H       1  UNL1        0.0250
     60 H           4.8269   -6.3148   -2.9093 H       1  UNL1        0.0661
     61 H           5.0300   -8.5527   -3.4682 H       1  UNL1        0.0660
     62 H           3.2399   -8.3028   -3.5241 H       1  UNL1        0.0660
     63 H           4.0047   -9.5987   -4.4541 H       1  UNL1        0.0660
     64 H           4.3718   -6.1796   -7.1790 H       1  UNL1        0.0655
     65 H           4.8933   -3.7773   -7.1541 H       1  UNL1        0.0640
@<TRIPOS>BOND
     1     1    35    1
     2     1    36    1
     3     1    37    1
     4     2     1    1
     5     3     2    1
     6     4     3   ar
     7     4    38    1
     8     5     4   ar
     9     5    39    1
    10     6     5   ar
    11     7     6   ar
    12     7    40    1
    13     8     7   ar
    14     8     3   ar
    15     8    41    1
    16     9     6    1
    17    10     9   ar
    18    11    10   ar
    19    12    11    1
    20    12    42    1
    21    12    43    1
    22    13    12    1
    23    14    13   am
    24    14    10    1
    25    15    14    2
    26    16    13    1
    27    17    16    1
    28    17    44    1
    29    17    45    1
    30    17    46    1
    31    18    16    1
    32    18    47    1
    33    18    48    1
    34    18    49    1
    35    19    16    1
    36    20    19    2
    37    21    19   am
    38    21    50    1
    39    22    21    1
    40    23    22    1
    41    23    51    1
    42    23    52    1
    43    23    53    1
    44    24    22    1
    45    24    54    1
    46    24    55    1
    47    24    56    1
    48    25    22    1
    49    25    57    1
    50    25    58    1
    51    25    59    1
    52    26    11   ar
    53    27    26   ar
    54    28    27   ar
    55    28     9   ar
    56    29    28   ar
    57    29    60    1
    58    30    29   ar
    59    31    30    1
    60    32    31    1
    61    32    61    1
    62    32    62    1
    63    32    63    1
    64    33    30   ar
    65    33    64    1
    66    34    33   ar
    67    34    27   ar
    68    34    65    1
