@<TRIPOS>MOLECULE
>129.sdf
 42 43 0 0 0
SMALL
GASTEIGER

@<TRIPOS>ATOM
      1 C           0.9299   -0.1587   -0.0053 C.3     1  UNL1        0.0790
      2 O           2.3248    0.0548   -0.1788 O.3     1  UNL1       -0.4913
      3 C           2.9986    0.6886    0.8344 C.ar    1  UNL1        0.1657
      4 C           2.5693    0.6412    2.1710 C.ar    1  UNL1       -0.0089
      5 C           3.3412    1.1978    3.1974 C.ar    1  UNL1       -0.0177
      6 C           2.8756    1.1092    4.5916 C.2     1  UNL1       -0.0494
      7 C           3.7353    0.9907    5.6144 C.2     1  UNL1        0.0013
      8 C           3.2866    0.9816    7.0312 C.2     1  UNL1        0.2459
      9 O           2.1608    0.5843    7.3249 O.2     1  UNL1       -0.2702
     10 N           4.2250    1.4254    7.9643 N.am    1  UNL1       -0.2348
     11 C           3.9174    1.1523    9.3646 C.3     1  UNL1        0.0263
     12 C           5.1780    0.9593   10.2042 C.3     1  UNL1       -0.0179
     13 C           6.1502    2.0609    9.9363 C.2     1  UNL1       -0.0776
     14 C           6.1173    2.7535    8.7930 C.2     1  UNL1       -0.0031
     15 C           5.1810    2.4071    7.6856 C.2     1  UNL1        0.2456
     16 O           5.3463    2.9792    6.6120 O.2     1  UNL1       -0.2702
     17 C           4.5390    1.8440    2.8699 C.ar    1  UNL1       -0.0089
     18 C           5.0040    1.8685    1.5530 C.ar    1  UNL1        0.1657
     19 O           6.1952    2.4589    1.1999 O.3     1  UNL1       -0.4913
     20 C           7.2312    2.3628    2.1757 C.3     1  UNL1        0.0790
     21 C           4.2219    1.3162    0.5210 C.ar    1  UNL1        0.2035
     22 O           4.7812    1.3809   -0.7348 O.3     1  UNL1       -0.4885
     23 C           3.8841    1.5849   -1.8186 C.3     1  UNL1        0.0791
     24 H           0.7248   -0.8690    0.8008 H       1  UNL1        0.0660
     25 H           0.4061    0.7893    0.1554 H       1  UNL1        0.0660
     26 H           0.5470   -0.6032   -0.9292 H       1  UNL1        0.0660
     27 H           1.6510    0.1322    2.4441 H       1  UNL1        0.0661
     28 H           1.8030    1.1534    4.7655 H       1  UNL1        0.0625
     29 H           4.8038    0.9109    5.4515 H       1  UNL1        0.0670
     30 H           3.3449    2.0101    9.7429 H       1  UNL1        0.0473
     31 H           3.2805    0.2668    9.4577 H       1  UNL1        0.0473
     32 H           4.9109    0.9448   11.2646 H       1  UNL1        0.0323
     33 H           5.6559    0.0007    9.9673 H       1  UNL1        0.0323
     34 H           6.8924    2.2976   10.6961 H       1  UNL1        0.0574
     35 H           6.8190    3.5524    8.5820 H       1  UNL1        0.0666
     36 H           5.1079    2.3384    3.6528 H       1  UNL1        0.0661
     37 H           7.0929    3.1092    2.9643 H       1  UNL1        0.0660
     38 H           7.2991    1.3544    2.6002 H       1  UNL1        0.0660
     39 H           8.1818    2.5784    1.6789 H       1  UNL1        0.0660
     40 H           3.5144    0.6262   -2.1935 H       1  UNL1        0.0660
     41 H           3.0595    2.2592   -1.5621 H       1  UNL1        0.0660
     42 H           4.4481    2.0497   -2.6337 H       1  UNL1        0.0660
@<TRIPOS>BOND
     1     1    24    1
     2     1    25    1
     3     1    26    1
     4     2     1    1
     5     3     2    1
     6     4     3   ar
     7     4    27    1
     8     5     4   ar
     9     6     5    1
    10     6    28    1
    11     7     6    2
    12     7    29    1
    13     8     7    1
    14     9     8    2
    15    10     8   am
    16    11    10    1
    17    11    30    1
    18    11    31    1
    19    12    11    1
    20    12    32    1
    21    12    33    1
    22    13    12    1
    23    13    34    1
    24    14    13    2
    25    14    35    1
    26    15    14    1
    27    15    10   am
    28    16    15    2
    29    17     5   ar
    30    17    36    1
    31    18    17   ar
    32    19    18    1
    33    20    19    1
    34    20    37    1
    35    20    38    1
    36    20    39    1
    37    21    18   ar
    38    21     3   ar
    39    22    21    1
    40    23    22    1
    41    23    40    1
    42    23    41    1
    43    23    42    1
