@<TRIPOS>MOLECULE
>183.sdf
 40 43 0 0 0
SMALL
GASTEIGER

@<TRIPOS>ATOM
      1 N           1.0623   -0.4036   -0.0957 N.1     1  UNL1       -0.1908
      2 C           2.2027   -0.2884   -0.0530 C.1     1  UNL1        0.1021
      3 C           3.6366   -0.1412    0.0388 C.ar    1  UNL1        0.0877
      4 C           4.2796    1.0776   -0.0733 C.ar    1  UNL1        0.1190
      5 S           5.9790    0.8598    0.0739 S.2     1  UNL1       -0.0727
      6 C           5.8519   -0.8339    0.2285 C.ar    1  UNL1       -0.0037
      7 C           4.5324   -1.2600    0.2076 C.ar    1  UNL1       -0.0177
      8 C           4.0867   -2.6991    0.2956 C.3     1  UNL1       -0.0256
      9 C           4.9616   -3.6324   -0.5350 C.3     1  UNL1       -0.0490
     10 C           6.2606   -4.0467    0.1592 C.3     1  UNL1       -0.0524
     11 C           6.9485   -2.9777    1.0119 C.3     1  UNL1       -0.0486
     12 C           7.1213   -1.6377    0.3052 C.3     1  UNL1       -0.0211
     13 N           3.8787    2.3444   -0.3457 N.2     1  UNL1       -0.2451
     14 C           2.7590    2.7531    0.1504 C.2     1  UNL1        0.0522
     15 C           2.3031    4.0651   -0.1984 C.ar    1  UNL1        0.0586
     16 C           1.0537    4.6084   -0.0017 C.ar    1  UNL1       -0.0278
     17 C           1.1137    5.9573   -0.4112 C.ar    1  UNL1        0.0003
     18 C           0.1867    7.0083   -0.3653 C.ar    1  UNL1       -0.0526
     19 C           0.7724    8.1937    0.0764 C.ar    1  UNL1       -0.0611
     20 C           2.0793    8.5096   -0.2852 C.ar    1  UNL1       -0.0598
     21 C           2.9092    7.5474   -0.8679 C.ar    1  UNL1       -0.0378
     22 C           2.4380    6.2400   -0.7445 C.ar    1  UNL1        0.0469
     23 N           3.0823    5.0287   -0.8089 N.ar    1  UNL1       -0.3534
     24 H           3.0612   -2.7859   -0.0838 H       1  UNL1        0.0314
     25 H           4.0534   -3.0136    1.3458 H       1  UNL1        0.0314
     26 H           5.1934   -3.1660   -1.5020 H       1  UNL1        0.0268
     27 H           4.3958   -4.5430   -0.7666 H       1  UNL1        0.0268
     28 H           6.0549   -4.9098    0.8042 H       1  UNL1        0.0265
     29 H           6.9595   -4.4016   -0.6084 H       1  UNL1        0.0265
     30 H           6.4040   -2.8423    1.9550 H       1  UNL1        0.0269
     31 H           7.9398   -3.3585    1.2868 H       1  UNL1        0.0269
     32 H           7.5100   -1.7922   -0.7094 H       1  UNL1        0.0318
     33 H           7.8801   -1.0640    0.8533 H       1  UNL1        0.0318
     34 H           2.1176    2.1701    0.8300 H       1  UNL1        0.0851
     35 H           0.2092    4.1161    0.4643 H       1  UNL1        0.0645
     36 H          -0.2861    7.1377   -1.3592 H       1  UNL1        0.0624
     37 H           0.2329    8.7997    0.7990 H       1  UNL1        0.0618
     38 H           2.4833    9.4829   -0.0216 H       1  UNL1        0.0618
     39 H           3.9357    7.7736   -1.1308 H       1  UNL1        0.0638
     40 H           4.0582    4.8921   -1.0403 H       1  UNL1        0.1659
@<TRIPOS>BOND
     1     2     1    3
     2     3     2    1
     3     4     3   ar
     4     5     4   ar
     5     6     5   ar
     6     7     6   ar
     7     7     3   ar
     8     8     7    1
     9     8    24    1
    10     8    25    1
    11     9     8    1
    12     9    26    1
    13     9    27    1
    14    10     9    1
    15    10    28    1
    16    10    29    1
    17    11    10    1
    18    11    30    1
    19    11    31    1
    20    12    11    1
    21    12     6    1
    22    12    32    1
    23    12    33    1
    24    13     4    1
    25    14    13    2
    26    14    34    1
    27    15    14    1
    28    16    15   ar
    29    16    35    1
    30    17    16   ar
    31    18    17   ar
    32    18    36    1
    33    19    18   ar
    34    19    37    1
    35    20    19   ar
    36    20    38    1
    37    21    20   ar
    38    21    39    1
    39    22    21   ar
    40    22    17   ar
    41    23    22   ar
    42    23    15   ar
    43    23    40    1
