@<TRIPOS>MOLECULE
>215.sdf
 46 49 0 0 0
SMALL
GASTEIGER

@<TRIPOS>ATOM
      1 F          -8.3446   -6.0993   -0.0564 F       1  UNL1       -0.2055
      2 C          -7.7274   -4.9082   -0.0608 C.ar    1  UNL1        0.1234
      3 C          -8.4905   -3.7457   -0.0638 C.ar    1  UNL1       -0.0258
      4 C          -7.8512   -2.5053   -0.0682 C.ar    1  UNL1       -0.0504
      5 C          -6.4512   -2.4421   -0.0672 C.ar    1  UNL1       -0.0050
      6 C          -5.7616   -1.1367   -0.0562 C.2     1  UNL1        0.0571
      7 N          -6.4268   -0.0238   -0.0680 N.2     1  UNL1       -0.1551
      8 N          -5.5672    1.0785   -0.0130 N.2     1  UNL1       -0.1297
      9 C          -6.2179    2.2109   -0.0849 C.ar    1  UNL1        0.1754
     10 N          -7.5913    2.2799   -0.2432 N.ar    1  UNL1       -0.2801
     11 N          -8.2810    3.4022    0.1058 N.ar    1  UNL1       -0.2801
     12 C          -7.6870    4.6511    0.0919 C.ar    1  UNL1        0.1754
     13 N          -8.3702    5.7648    0.0930 N.2     1  UNL1       -0.1297
     14 N          -9.7505    5.5313    0.1240 N.2     1  UNL1       -0.1551
     15 C         -10.4114    6.6415    0.2151 C.2     1  UNL1        0.0571
     16 C         -11.8858    6.6500    0.2853 C.ar    1  UNL1       -0.0050
     17 C         -12.6022    5.4470    0.3093 C.ar    1  UNL1       -0.0504
     18 C         -13.9943    5.4683    0.3722 C.ar    1  UNL1       -0.0258
     19 C         -14.6593    6.6901    0.4125 C.ar    1  UNL1        0.1234
     20 F         -15.9968    6.7080    0.4690 F       1  UNL1       -0.2055
     21 C         -13.9564    7.8917    0.3944 C.ar    1  UNL1       -0.0258
     22 C         -12.5607    7.8761    0.3313 C.ar    1  UNL1       -0.0504
     23 C          -6.1962    4.6993    0.0964 C.ar    1  UNL1        0.0310
     24 C          -5.4740    3.4980    0.0310 C.ar    1  UNL1        0.0310
     25 C          -4.0763    3.5194    0.1072 C.ar    1  UNL1       -0.0503
     26 C          -3.4054    4.7359    0.2519 C.ar    1  UNL1       -0.0610
     27 C          -4.1238    5.9315    0.3084 C.ar    1  UNL1       -0.0610
     28 C          -5.5174    5.9174    0.2235 C.ar    1  UNL1       -0.0503
     29 C          -5.6917   -3.6174   -0.0633 C.ar    1  UNL1       -0.0504
     30 C          -6.3379   -4.8566   -0.0611 C.ar    1  UNL1       -0.0258
     31 H          -9.5740   -3.8094   -0.0611 H       1  UNL1        0.0646
     32 H          -8.4459   -1.5960   -0.0664 H       1  UNL1        0.0625
     33 H          -4.6567   -1.1444   -0.0299 H       1  UNL1        0.0854
     34 H          -8.0145    1.3693   -0.0581 H       1  UNL1        0.1884
     35 H          -9.2778    3.4635   -0.1021 H       1  UNL1        0.1884
     36 H          -9.8950    7.6171    0.2379 H       1  UNL1        0.0854
     37 H         -12.0815    4.4929    0.2809 H       1  UNL1        0.0625
     38 H         -14.5621    4.5434    0.3904 H       1  UNL1        0.0646
     39 H         -14.4996    8.8311    0.4311 H       1  UNL1        0.0646
     40 H         -12.0148    8.8151    0.3168 H       1  UNL1        0.0625
     41 H          -3.5075    2.5937    0.0670 H       1  UNL1        0.0625
     42 H          -2.3207    4.7501    0.3281 H       1  UNL1        0.0618
     43 H          -3.5987    6.8759    0.4312 H       1  UNL1        0.0618
     44 H          -6.0685    6.8529    0.2788 H       1  UNL1        0.0625
     45 H          -4.6054   -3.5810   -0.0585 H       1  UNL1        0.0625
     46 H          -5.7687   -5.7811   -0.0546 H       1  UNL1        0.0646
@<TRIPOS>BOND
     1     2     1    1
     2     3     2   ar
     3     3    31    1
     4     4     3   ar
     5     4    32    1
     6     5     4   ar
     7     6     5    1
     8     6    33    1
     9     7     6    2
    10     8     7    1
    11     9     8    2
    12    10     9   ar
    13    10    34    1
    14    11    10   ar
    15    11    35    1
    16    12    11   ar
    17    13    12    2
    18    14    13    1
    19    15    14    2
    20    15    36    1
    21    16    15    1
    22    17    16   ar
    23    17    37    1
    24    18    17   ar
    25    18    38    1
    26    19    18   ar
    27    20    19    1
    28    21    19   ar
    29    21    39    1
    30    22    21   ar
    31    22    16   ar
    32    22    40    1
    33    23    12   ar
    34    24    23   ar
    35    24     9   ar
    36    25    24   ar
    37    25    41    1
    38    26    25   ar
    39    26    42    1
    40    27    26   ar
    41    27    43    1
    42    28    27   ar
    43    28    23   ar
    44    28    44    1
    45    29     5   ar
    46    29    45    1
    47    30    29   ar
    48    30     2   ar
    49    30    46    1
