@<TRIPOS>MOLECULE
>51.sdf
 59 63 0 0 0
SMALL
GASTEIGER

@<TRIPOS>ATOM
      1 C           7.5064   -5.0565    2.0076 C.3     1  UNL1       -0.0569
      2 C           7.7469   -3.6809    2.6050 C.3     1  UNL1        0.0230
      3 C           7.2084   -2.3768    1.9998 C.2     1  UNL1        0.2351
      4 O           7.6212   -1.3091    2.4721 O.2     1  UNL1       -0.2739
      5 N           6.3041   -2.3812    0.9602 N.am    1  UNL1       -0.1850
      6 N           5.8983   -3.5313    0.3650 N.2     1  UNL1       -0.1809
      7 C           5.3164   -3.2128   -0.7504 C.2     1  UNL1        0.0688
      8 C           5.2435   -1.7664   -1.0674 C.3     1  UNL1        0.0165
      9 C           6.0906   -1.2309    0.0935 C.3     1  UNL1        0.0828
     10 C           5.3889   -0.0499    0.6569 C.ar    1  UNL1        0.0210
     11 C           5.7704    1.2532    0.3878 C.ar    1  UNL1        0.0369
     12 N           4.5770    1.8685    0.0794 N.ar    1  UNL1       -0.2390
     13 N           3.5375    1.2456    0.7275 N.ar    1  UNL1       -0.1660
     14 C           4.0353    0.0439    1.1018 C.ar    1  UNL1        0.0981
     15 C           3.2010   -1.0932    1.5596 C.ar    1  UNL1        0.0025
     16 C           2.0834   -1.4928    0.8127 C.ar    1  UNL1       -0.0523
     17 C           1.4113   -2.6953    1.1028 C.ar    1  UNL1       -0.0582
     18 C           1.8132   -3.5114    2.1632 C.ar    1  UNL1       -0.0504
     19 C           1.0941   -4.7965    2.4820 C.3     1  UNL1       -0.0397
     20 C           2.9169   -3.1101    2.9257 C.ar    1  UNL1       -0.0582
     21 C           3.5984   -1.9116    2.6249 C.ar    1  UNL1       -0.0523
     22 C           4.3984    2.8254   -0.9789 C.ar    1  UNL1        0.0654
     23 C           5.4766    3.2168   -1.8006 C.ar    1  UNL1       -0.0363
     24 C           5.2760    4.0448   -2.9123 C.ar    1  UNL1       -0.0598
     25 C           3.9990    4.5050   -3.2120 C.ar    1  UNL1       -0.0616
     26 C           2.9255    4.1392   -2.3972 C.ar    1  UNL1       -0.0598
     27 C           3.1187    3.3078   -1.2893 C.ar    1  UNL1       -0.0363
     28 C           4.8401   -4.2202   -1.6928 C.ar    1  UNL1       -0.0022
     29 C           3.8099   -3.9948   -2.6108 C.ar    1  UNL1       -0.0528
     30 C           3.4790   -5.0123   -3.5068 C.ar    1  UNL1       -0.0611
     31 C           4.1755   -6.2237   -3.4865 C.ar    1  UNL1       -0.0617
     32 C           5.2002   -6.4364   -2.5645 C.ar    1  UNL1       -0.0611
     33 C           5.5241   -5.4456   -1.6674 C.ar    1  UNL1       -0.0528
     34 H           7.9893   -5.8152    2.6361 H       1  UNL1        0.0234
     35 H           6.4452   -5.3172    1.9634 H       1  UNL1        0.0234
     36 H           7.9423   -5.1466    1.0072 H       1  UNL1        0.0234
     37 H           7.4174   -3.7009    3.6496 H       1  UNL1        0.0356
     38 H           8.8374   -3.5471    2.6158 H       1  UNL1        0.0356
     39 H           4.1964   -1.4481   -1.0649 H       1  UNL1        0.0351
     40 H           5.6682   -1.5199   -2.0432 H       1  UNL1        0.0351
     41 H           7.0769   -0.9312   -0.2852 H       1  UNL1        0.0576
     42 H           6.7151    1.6385    0.0392 H       1  UNL1        0.0834
     43 H           1.7659   -0.9021   -0.0407 H       1  UNL1        0.0624
     44 H           0.5782   -2.9976    0.4711 H       1  UNL1        0.0620
     45 H           1.7640   -5.6574    2.3829 H       1  UNL1        0.0278
     46 H           0.7044   -4.7679    3.5052 H       1  UNL1        0.0278
     47 H           0.2433   -4.9597    1.8119 H       1  UNL1        0.0278
     48 H           3.2695   -3.7373    3.7415 H       1  UNL1        0.0620
     49 H           4.4731   -1.6567    3.2219 H       1  UNL1        0.0624
     50 H           6.4918    2.8647   -1.6378 H       1  UNL1        0.0639
     51 H           6.1138    4.3188   -3.5508 H       1  UNL1        0.0618
     52 H           3.8386    5.1408   -4.0793 H       1  UNL1        0.0618
     53 H           1.9280    4.4988   -2.6378 H       1  UNL1        0.0618
     54 H           2.2579    3.0158   -0.6876 H       1  UNL1        0.0639
     55 H           3.2602   -3.0616   -2.6310 H       1  UNL1        0.0624
     56 H           2.6733   -4.8634   -4.2241 H       1  UNL1        0.0618
     57 H           3.9251   -7.0102   -4.1948 H       1  UNL1        0.0618
     58 H           5.7533   -7.3704   -2.5485 H       1  UNL1        0.0618
     59 H           6.3331   -5.5966   -0.9538 H       1  UNL1        0.0624
@<TRIPOS>BOND
     1     1    34    1
     2     1    35    1
     3     1    36    1
     4     2     1    1
     5     2    37    1
     6     2    38    1
     7     3     2    1
     8     4     3    2
     9     5     3   am
    10     6     5    1
    11     7     6    2
    12     8     7    1
    13     8    39    1
    14     8    40    1
    15     9     8    1
    16     9     5    1
    17    11    10   ar
    18    11    42    1
    19    12    11   ar
    20    13    12   ar
    21    14    13   ar
    22    14    10   ar
    23    15    14    1
    24    16    15   ar
    25    16    43    1
    26    17    16   ar
    27    17    44    1
    28    18    17   ar
    29    19    18    1
    30    19    45    1
    31    19    46    1
    32    19    47    1
    33    20    18   ar
    34    20    48    1
    35    21    20   ar
    36    21    15   ar
    37    21    49    1
    38    22    12    1
    39    23    22   ar
    40    23    50    1
    41    24    23   ar
    42    24    51    1
    43    25    24   ar
    44    25    52    1
    45    26    25   ar
    46    26    53    1
    47    27    26   ar
    48    27    22   ar
    49    27    54    1
    50    28     7    1
    51    29    28   ar
    52    29    55    1
    53    30    29   ar
    54    30    56    1
    55    31    30   ar
    56    31    57    1
    57    32    31   ar
    58    32    58    1
    59    33    32   ar
    60    33    28   ar
    61    33    59    1
    62     9    10    1
    63     9    41    1
