@<TRIPOS>MOLECULE
>10.sdf
 89 91 0 0 0
SMALL
GASTEIGER

@<TRIPOS>ATOM
      1 C           0.9228    0.2335   -0.0714 C.3     1  UNL1       -0.0388
      2 C           2.4243    0.1274   -0.0743 C.ar    1  UNL1       -0.0326
      3 C           3.1694    1.3128   -0.0741 C.ar    1  UNL1       -0.0161
      4 C           4.5678    1.2973   -0.0760 C.ar    1  UNL1        0.1243
      5 O           5.3671    2.4130   -0.0751 O.3     1  UNL1       -0.4918
      6 C           4.6517    3.6415   -0.0714 C.3     1  UNL1        0.0896
      7 C           5.6128    4.8204   -0.0669 C.3     1  UNL1       -0.0185
      8 C           4.7894    6.1029   -0.0334 C.3     1  UNL1       -0.0452
      9 C           5.6536    7.3561    0.0118 C.3     1  UNL1       -0.0125
     10 C           4.8170    8.6322   -0.0227 C.3     1  UNL1       -0.0332
     11 N           3.9153    8.7026    1.1776 N.4     1  UNL1        0.2307
     12 C           2.9917    9.8981    1.3107 C.3     1  UNL1       -0.0204
     13 C           1.9985    9.9027    0.1451 C.3     1  UNL1       -0.0193
     14 C           2.2315    9.7168    2.6332 C.3     1  UNL1       -0.0193
     15 C           3.8266   11.1770    1.3598 C.3     1  UNL1       -0.0193
     16 C           5.2353    0.0760   -0.0795 C.ar    1  UNL1        0.0231
     17 C           4.5105   -1.1202   -0.0813 C.ar    1  UNL1        0.1430
     18 C           3.1129   -1.0990   -0.0784 C.ar    1  UNL1        0.0678
     19 C           2.4031   -2.3934   -0.0801 C.ar    1  UNL1        0.2040
     20 O           1.1816   -2.4353   -0.0832 O.2     1  UNL1       -0.2863
     21 C           3.2175   -3.6174   -0.0785 C.ar    1  UNL1        0.1061
     22 C           2.6493   -4.8973   -0.0734 C.ar    1  UNL1        0.1347
     23 O           1.2972   -5.0732   -0.0640 O.3     1  UNL1       -0.5058
     24 C           3.4676   -6.0175   -0.0732 C.ar    1  UNL1        0.0225
     25 C           4.8524   -5.8780   -0.0787 C.ar    1  UNL1        0.1275
     26 O           5.5200   -7.0673   -0.0810 O.3     1  UNL1       -0.4917
     27 C           6.9312   -6.9868   -0.0988 C.3     1  UNL1        0.0896
     28 C           7.4638   -8.4105   -0.0997 C.3     1  UNL1       -0.0185
     29 C           8.9797   -8.3717   -0.0858 C.3     1  UNL1       -0.0452
     30 C           9.5860   -9.7683   -0.0423 C.3     1  UNL1       -0.0125
     31 C          11.1073   -9.7237   -0.0972 C.3     1  UNL1       -0.0332
     32 N          11.6467   -8.9777    1.0906 N.4     1  UNL1        0.2307
     33 C          13.1458   -8.7929    1.1965 C.3     1  UNL1       -0.0204
     34 C          13.6347   -7.9469    0.0171 C.3     1  UNL1       -0.0193
     35 C          13.3993   -8.0382    2.5099 C.3     1  UNL1       -0.0193
     36 C          13.8168  -10.1644    1.2410 C.3     1  UNL1       -0.0193
     37 C           5.4250   -4.6059   -0.0838 C.ar    1  UNL1        0.0233
     38 C           4.6040   -3.4758   -0.0831 C.ar    1  UNL1        0.1463
     39 O           5.2601   -2.2695   -0.0862 O.2     1  UNL1       -0.4542
     40 H           0.5050   -0.2256   -0.9727 H       1  UNL1        0.0278
     41 H           0.5084   -0.2338    0.8274 H       1  UNL1        0.0278
     42 H           0.5925    1.2777   -0.0657 H       1  UNL1        0.0278
     43 H           2.6136    2.2446   -0.0740 H       1  UNL1        0.0657
     44 H           4.0223    3.7121   -0.9683 H       1  UNL1        0.0696
     45 H           4.0279    3.7027    0.8305 H       1  UNL1        0.0696
     46 H           6.2748    4.7591    0.8048 H       1  UNL1        0.0298
     47 H           6.2561    4.7865   -0.9535 H       1  UNL1        0.0298
     48 H           4.1346    6.1429   -0.9134 H       1  UNL1        0.0268
     49 H           4.1385    6.0637    0.8470 H       1  UNL1        0.0268
     50 H           6.2864    7.3441    0.9068 H       1  UNL1        0.0317
     51 H           6.3253    7.3607   -0.8554 H       1  UNL1        0.0317
     52 H           5.4742    9.5042   -0.0013 H       1  UNL1        0.0814
     53 H           4.1911    8.6535   -0.9183 H       1  UNL1        0.0814
     54 H           3.3189    7.8662    1.2036 H       1  UNL1        0.2019
     55 H           4.5011    8.6468    2.0231 H       1  UNL1        0.2019
     56 H           1.4118    8.9768    0.1179 H       1  UNL1        0.0287
     57 H           1.2955   10.7377    0.2382 H       1  UNL1        0.0287
     58 H           2.4963   10.0123   -0.8232 H       1  UNL1        0.0287
     59 H           2.9176    9.6442    3.4847 H       1  UNL1        0.0287
     60 H           1.5620   10.5645    2.8176 H       1  UNL1        0.0287
     61 H           1.6181    8.8080    2.6225 H       1  UNL1        0.0287
     62 H           4.5643   11.1372    2.1693 H       1  UNL1        0.0287
     63 H           4.3626   11.3525    0.4217 H       1  UNL1        0.0287
     64 H           3.1891   12.0508    1.5311 H       1  UNL1        0.0287
     65 H           6.3224    0.0566   -0.0824 H       1  UNL1        0.0691
     66 H           1.0707   -6.0156   -0.0868 H       1  UNL1        0.2922
     67 H           3.0403   -7.0182   -0.0672 H       1  UNL1        0.0691
     68 H           7.2779   -6.4665   -1.0005 H       1  UNL1        0.0696
     69 H           7.2934   -6.4643    0.7962 H       1  UNL1        0.0696
     70 H           7.0818   -8.9492    0.7766 H       1  UNL1        0.0298
     71 H           7.0911   -8.9505   -0.9785 H       1  UNL1        0.0298
     72 H           9.3440   -7.8387   -0.9726 H       1  UNL1        0.0268
     73 H           9.2917   -7.7937    0.7904 H       1  UNL1        0.0268
     74 H           9.2550  -10.2960    0.8601 H       1  UNL1        0.0317
     75 H           9.2243  -10.3474   -0.9011 H       1  UNL1        0.0317
     76 H          11.5100  -10.7385   -0.0711 H       1  UNL1        0.0814
     77 H          11.4383   -9.2082   -1.0021 H       1  UNL1        0.0814
     78 H          11.2336   -8.0380    1.1182 H       1  UNL1        0.2019
     79 H          11.3106   -9.4482    1.9433 H       1  UNL1        0.2019
     80 H          13.1381   -6.9694   -0.0047 H       1  UNL1        0.0287
     81 H          14.7132   -7.7694    0.0881 H       1  UNL1        0.0287
     82 H          13.4552   -8.4340   -0.9461 H       1  UNL1        0.0287
     83 H          12.9989   -8.5845    3.3716 H       1  UNL1        0.0287
     84 H          14.4728   -7.8950    2.6762 H       1  UNL1        0.0287
     85 H          12.9316   -7.0464    2.4999 H       1  UNL1        0.0287
     86 H          13.4170  -10.7732    2.0601 H       1  UNL1        0.0287
     87 H          13.6758  -10.7190    0.3079 H       1  UNL1        0.0287
     88 H          14.8963  -10.0643    1.3935 H       1  UNL1        0.0287
     89 H           6.4997   -4.4574   -0.0871 H       1  UNL1        0.0691
@<TRIPOS>UNITY_ATOM_ATTR
11 1
charge 1
32 1
charge 1
@<TRIPOS>BOND
     1     1    40    1
     2     1    41    1
     3     1    42    1
     4     2     1    1
     5     3     2   ar
     6     3    43    1
     7     4     3   ar
     8     5     4    1
     9     6     5    1
    10     6    44    1
    11     6    45    1
    12     7     6    1
    13     7    46    1
    14     7    47    1
    15     8     7    1
    16     8    48    1
    17     8    49    1
    18     9     8    1
    19     9    50    1
    20     9    51    1
    21    10     9    1
    22    10    52    1
    23    10    53    1
    24    11    10    1
    25    11    54    1
    26    11    55    1
    27    12    11    1
    28    13    12    1
    29    13    56    1
    30    13    57    1
    31    13    58    1
    32    14    12    1
    33    14    59    1
    34    14    60    1
    35    14    61    1
    36    15    12    1
    37    15    62    1
    38    15    63    1
    39    15    64    1
    40    16     4   ar
    41    16    65    1
    42    17    16   ar
    43    18    17   ar
    44    18     2   ar
    45    19    18   ar
    46    20    19    2
    47    21    19   ar
    48    22    21   ar
    49    23    22    1
    50    23    66    1
    51    24    22   ar
    52    24    67    1
    53    25    24   ar
    54    26    25    1
    55    27    26    1
    56    27    68    1
    57    27    69    1
    58    28    27    1
    59    28    70    1
    60    28    71    1
    61    29    28    1
    62    29    72    1
    63    29    73    1
    64    30    29    1
    65    30    74    1
    66    30    75    1
    67    31    30    1
    68    31    76    1
    69    31    77    1
    70    32    31    1
    71    32    78    1
    72    32    79    1
    73    33    32    1
    74    34    33    1
    75    34    80    1
    76    34    81    1
    77    34    82    1
    78    35    33    1
    79    35    83    1
    80    35    84    1
    81    35    85    1
    82    36    33    1
    83    36    86    1
    84    36    87    1
    85    36    88    1
    86    37    25   ar
    87    37    89    1
    88    38    37   ar
    89    38    21   ar
    90    39    38   ar
    91    39    17   ar
