@<TRIPOS>MOLECULE
>60.sdf
 70 74 0 0 0
SMALL
GASTEIGER

@<TRIPOS>ATOM
      1 C          13.2961    5.9737    2.5284 C.3     1  UNL1        0.0788
      2 O          12.2351    5.2088    1.9513 O.3     1  UNL1       -0.4951
      3 C          10.9235    5.5488    2.1739 C.ar    1  UNL1        0.1201
      4 C           9.9473    4.9487    1.3703 C.ar    1  UNL1       -0.0193
      5 C           8.4871    5.1385    1.5603 C.ar    1  UNL1       -0.0490
      6 C           7.8989    5.9529    2.5723 C.ar    1  UNL1        0.0026
      7 C           8.9510    6.5009    3.3835 C.ar    1  UNL1       -0.0490
      8 C          10.3986    6.3016    3.2066 C.ar    1  UNL1       -0.0193
      9 C           6.4330    5.8062    3.1769 C.ar    1  UNL1        0.0957
     10 C           4.9832    6.1524    3.1131 C.ar    1  UNL1        0.0738
     11 N           4.3223    7.2760    3.7977 N.ar    1  UNL1       -0.3525
     12 C           3.2497    6.8958    4.6567 C.ar    1  UNL1        0.0475
     13 C           2.8968    5.6075    4.3370 C.ar    1  UNL1        0.0075
     14 C           1.9712    4.8997    5.1955 C.ar    1  UNL1       -0.0520
     15 C           1.5058    5.4532    6.3884 C.ar    1  UNL1       -0.0611
     16 C           1.8954    6.7586    6.7375 C.ar    1  UNL1       -0.0598
     17 C           2.7284    7.5009    5.8440 C.ar    1  UNL1       -0.0378
     18 C           4.0859    5.0861    3.6487 C.ar    1  UNL1        0.0117
     19 C           4.7679    3.9859    4.2152 C.ar    1  UNL1       -0.0214
     20 C           5.6399    4.6697    5.0366 C.ar    1  UNL1        0.1267
     21 N           6.5795    5.4271    4.4515 N.ar    1  UNL1       -0.2400
     22 C           5.3075    5.2236    6.4318 C.2     1  UNL1        0.2625
     23 O           4.6741    4.5368    7.2305 O.2     1  UNL1       -0.2685
     24 N           5.7467    6.5031    6.6878 N.am    1  UNL1       -0.3086
     25 C           5.4327    7.2420    7.8938 C.3     1  UNL1        0.0275
     26 C           6.5253    7.1751    8.9705 C.3     1  UNL1        0.0274
     27 N           7.7313    7.8791    8.5496 N.pl3   1  UNL1       -0.3118
     28 C           8.8067    7.1103    8.1401 C.ar    1  UNL1        0.2211
     29 N           8.6308    5.9005    7.6383 N.ar    1  UNL1       -0.1809
     30 C           9.6879    5.2540    7.1358 C.ar    1  UNL1        0.2232
     31 N          10.8935    5.7613    7.2055 N.ar    1  UNL1       -0.1807
     32 C          11.0172    6.9563    7.7623 C.ar    1  UNL1        0.2232
     33 N           9.9942    7.6686    8.2395 N.ar    1  UNL1       -0.1809
     34 N          12.2897    7.5280    7.8098 N.pl3   1  UNL1       -0.3056
     35 C          13.3733    6.6862    7.3376 C.3     1  UNL1        0.0031
     36 C          12.5131    8.3133    9.0110 C.3     1  UNL1        0.0031
     37 N           9.5078    4.0322    6.4717 N.pl3   1  UNL1       -0.3056
     38 C           8.2858    4.0402    5.7411 C.3     1  UNL1        0.0031
     39 C          10.5881    3.4162    5.7280 C.3     1  UNL1        0.0031
     40 H          13.2611    7.0235    2.2206 H       1  UNL1        0.0660
     41 H          13.3532    5.8801    3.6162 H       1  UNL1        0.0660
     42 H          14.2506    5.5750    2.1393 H       1  UNL1        0.0660
     43 H          10.2960    4.2559    0.5979 H       1  UNL1        0.0654
     44 H           7.8647    4.4987    0.9184 H       1  UNL1        0.0625
     45 H           8.6766    7.0008    4.3087 H       1  UNL1        0.0625
     46 H          11.0622    6.6862    3.9832 H       1  UNL1        0.0654
     47 H           4.8567    8.0949    4.0293 H       1  UNL1        0.1660
     48 H           1.8044    3.8390    5.0518 H       1  UNL1        0.0624
     49 H           0.9522    4.8468    7.1109 H       1  UNL1        0.0618
     50 H           1.6585    7.1205    7.7152 H       1  UNL1        0.0618
     51 H           3.0946    8.4438    6.2163 H       1  UNL1        0.0638
     52 H           5.2595    3.3575    3.4670 H       1  UNL1        0.0647
     53 H           6.4290    6.8805    6.0447 H       1  UNL1        0.1491
     54 H           5.2677    8.2879    7.5946 H       1  UNL1        0.0477
     55 H           4.4977    6.8638    8.3142 H       1  UNL1        0.0477
     56 H           6.1385    7.6807    9.8641 H       1  UNL1        0.0477
     57 H           6.7162    6.1367    9.2585 H       1  UNL1        0.0477
     58 H           8.0804    8.5907    9.1821 H       1  UNL1        0.1490
     59 H          14.1759    7.3269    6.9605 H       1  UNL1        0.0428
     60 H          13.7709    6.0554    8.1390 H       1  UNL1        0.0428
     61 H          13.0941    6.0417    6.4935 H       1  UNL1        0.0428
     62 H          12.0520    9.3016    8.9104 H       1  UNL1        0.0428
     63 H          12.1127    7.8251    9.9097 H       1  UNL1        0.0428
     64 H          13.5840    8.4666    9.1778 H       1  UNL1        0.0428
     65 H           8.4244    3.8864    4.6611 H       1  UNL1        0.0428
     66 H           7.5810    3.2933    6.1082 H       1  UNL1        0.0428
     67 H           7.8727    5.0256    5.8565 H       1  UNL1        0.0428
     68 H          11.2926    4.1323    5.3004 H       1  UNL1        0.0428
     69 H          11.0877    2.6915    6.3684 H       1  UNL1        0.0428
     70 H          10.1909    2.8372    4.8776 H       1  UNL1        0.0428
@<TRIPOS>BOND
     1     1    40    1
     2     1    41    1
     3     1    42    1
     4     2     1    1
     5     3     2    1
     6     4     3   ar
     7     4    43    1
     8     5     4   ar
     9     5    44    1
    10     6     5   ar
    11     7     6   ar
    12     7    45    1
    13     8     7   ar
    14     8     3   ar
    15     8    46    1
    16     9     6    1
    17    10     9   ar
    18    11    10   ar
    19    11    47    1
    20    12    11   ar
    21    13    12   ar
    22    14    13   ar
    23    14    48    1
    24    15    14   ar
    25    15    49    1
    26    16    15   ar
    27    16    50    1
    28    17    16   ar
    29    17    12   ar
    30    17    51    1
    31    18    13   ar
    32    18    10   ar
    33    19    18   ar
    34    19    52    1
    35    20    19   ar
    36    21    20   ar
    37    21     9   ar
    38    22    20    1
    39    23    22    2
    40    24    22   am
    41    24    53    1
    42    25    24    1
    43    25    54    1
    44    25    55    1
    45    26    25    1
    46    26    56    1
    47    26    57    1
    48    27    26    1
    49    27    58    1
    50    28    27    1
    51    29    28   ar
    52    30    29   ar
    53    31    30   ar
    54    32    31   ar
    55    33    32   ar
    56    33    28   ar
    57    34    32    1
    58    35    34    1
    59    35    59    1
    60    35    60    1
    61    35    61    1
    62    36    34    1
    63    36    62    1
    64    36    63    1
    65    36    64    1
    66    37    30    1
    67    38    37    1
    68    38    65    1
    69    38    66    1
    70    38    67    1
    71    39    37    1
    72    39    68    1
    73    39    69    1
    74    39    70    1
