@<TRIPOS>MOLECULE
>171.sdf
 38 40 0 0 0
SMALL
GASTEIGER

@<TRIPOS>ATOM
      1 C           3.1513   -1.3598   -0.7203 C.3     1  UNL1       -0.0198
      2 C           2.6770   -0.0269   -0.1357 C.3     1  UNL1        0.1623
      3 C           3.0924    0.1124    1.3360 C.3     1  UNL1        0.1306
      4 O           4.5181    0.1221    1.4443 O.3     1  UNL1       -0.4880
      5 C           5.0299    0.1456    2.7134 C.ar    1  UNL1        0.1209
      6 C           4.2903    0.3110    3.8850 C.ar    1  UNL1       -0.0165
      7 C           4.9230    0.3066    5.1353 C.ar    1  UNL1       -0.0162
      8 C           6.2955    0.0957    5.2274 C.ar    1  UNL1        0.1302
      9 O           7.0196    0.0274    6.3771 O.3     1  UNL1       -0.4057
     10 C           6.4028   -0.4518    7.5653 C.3     1  UNL1        0.5752
     11 F           5.2021   -1.0368    7.3712 F       1  UNL1       -0.1328
     12 F           7.2186   -1.3724    8.1278 F       1  UNL1       -0.1328
     13 F           6.2552    0.5683    8.4373 F       1  UNL1       -0.1328
     14 C           7.0426   -0.0183    4.0523 C.ar    1  UNL1       -0.0162
     15 C           6.4135    0.0032    2.8037 C.ar    1  UNL1       -0.0165
     16 C           3.1905    1.1718   -0.9872 C.3     1  UNL1        0.0704
     17 N           1.9410    1.7080   -1.4552 N.ar    1  UNL1       -0.2963
     18 C           1.5080    2.7124   -2.2307 C.ar    1  UNL1        0.0420
     19 CA          0.1223    2.5685   -2.1944 C.ar    1  UNL1        0.1688
     20 N          -0.2552    1.4813   -1.3866 N.ar    1  UNL1       -0.1883
     21 C           0.8910    1.0129   -0.9804 C.ar    1  UNL1        0.2997
     22 O           1.2046   -0.0054   -0.2006 O.3     1  UNL1       -0.4520
     23 C          -0.8696    3.3921   -2.8762 C.2     1  UNL1        0.3569
     24 O          -2.1389    2.9663   -2.6308 O.3     1  UNL1       -0.4760
     25 OXT        -0.6085    4.3519   -3.5878 O.2     1  UNL1       -0.2433
     26 H           4.2433   -1.4180   -0.7629 H       1  UNL1        0.0270
     27 H           2.7820   -2.1987   -0.1201 H       1  UNL1        0.0270
     28 H           2.7558   -1.5054   -1.7319 H       1  UNL1        0.0270
     29 H           2.6792    1.0461    1.7389 H       1  UNL1        0.0737
     30 H           2.6683   -0.7242    1.9078 H       1  UNL1        0.0737
     31 H           3.2140    0.4484    3.8699 H       1  UNL1        0.0655
     32 H           4.3060    0.4708    6.0137 H       1  UNL1        0.0655
     33 H           8.1224   -0.1390    4.1055 H       1  UNL1        0.0655
     34 H           7.0126   -0.1042    1.9017 H       1  UNL1        0.0655
     35 H           3.6967    1.9458   -0.4022 H       1  UNL1        0.0534
     36 H           3.7914    0.8783   -1.8487 H       1  UNL1        0.0534
     37 H           2.1461    3.4233   -2.7369 H       1  UNL1        0.0834
     38 H          -2.0709    2.1835   -2.0400 H       1  UNL1        0.2955
@<TRIPOS>BOND
     1     1    26    1
     2     1    27    1
     3     1    28    1
     4     2     1    1
     5     3     2    1
     6     3    29    1
     7     3    30    1
     8     4     3    1
     9     5     4    1
    10     6     5   ar
    11     6    31    1
    12     7     6   ar
    13     7    32    1
    14     8     7   ar
    15     9     8    1
    16    10     9    1
    17    11    10    1
    18    12    10    1
    19    13    10    1
    20    14     8   ar
    21    14    33    1
    22    15    14   ar
    23    15     5   ar
    24    15    34    1
    25    16     2    1
    26    16    35    1
    27    16    36    1
    28    17    16    1
    29    18    17   ar
    30    18    37    1
    31    19    18   ar
    32    20    19   ar
    33    21    20   ar
    34    21    17   ar
    35    22    21    1
    36    22     2    1
    37    23    19    1
    38    24    23    1
    39    25    23    2
    40    24    38    1
