@<TRIPOS>MOLECULE
>139.sdf
 47 50 0 0 0
SMALL
GASTEIGER

@<TRIPOS>ATOM
      1 O           6.5876    3.2588   -0.1463 O.3     1  UNL1       -0.3940
      2 C           5.3212    3.6566   -0.6599 C.3     1  UNL1        0.0573
      3 C           4.1585    2.9267    0.0383 C.3     1  UNL1        0.0614
      4 C           4.1912    3.1248    1.5721 C.3     1  UNL1        0.0377
      5 N           4.0750    4.5145    1.9989 N.ar    1  UNL1       -0.3358
      6 C           2.9156    5.1876    2.2766 C.ar    1  UNL1        0.0240
      7 C           3.2973    6.4986    2.4457 C.ar    1  UNL1        0.0454
      8 N           4.6589    6.6180    2.3759 N.ar    1  UNL1       -0.2441
      9 C           5.1029    5.4019    2.1434 C.ar    1  UNL1        0.0959
     10 C           2.8044    3.3797   -0.5841 C.3     1  UNL1       -0.0121
     11 C           2.0746    2.1104   -0.8812 C.ar    1  UNL1       -0.0374
     12 C           2.8814    0.9838   -0.7809 C.ar    1  UNL1        0.0033
     13 C           2.3795   -0.2814   -1.0544 C.ar    1  UNL1       -0.0525
     14 C           1.0430   -0.4061   -1.4370 C.ar    1  UNL1       -0.0611
     15 C           0.2249    0.7246   -1.5264 C.ar    1  UNL1       -0.0615
     16 C           0.7392    1.9936   -1.2514 C.ar    1  UNL1       -0.0579
     17 C           4.2001    1.4169   -0.2918 C.2     1  UNL1        0.0977
     18 N           5.2806    0.7134   -0.1065 N.2     1  UNL1       -0.0880
     19 O           5.1438   -0.5858   -0.6200 O.2     1  UNL1       -0.3887
     20 C           5.9375   -1.5226    0.1128 C.3     1  UNL1        0.1456
     21 C           6.2082   -2.7084   -0.7783 C.ar    1  UNL1        0.0275
     22 C           6.8770   -2.5442   -2.0021 C.ar    1  UNL1       -0.0498
     23 C           7.1325   -3.6414   -2.8268 C.ar    1  UNL1       -0.0259
     24 C           6.7218   -4.9126   -2.4314 C.ar    1  UNL1        0.1261
     25 F           6.9645   -5.9633   -3.2243 F       1  UNL1       -0.2054
     26 C           6.0591   -5.1024   -1.2223 C.ar    1  UNL1        0.0092
     27 C           5.8111   -4.0007   -0.4111 C.ar    1  UNL1        0.1326
     28 F           5.1669   -4.1959    0.7493 F       1  UNL1       -0.2050
     29 H           6.7129    2.3230   -0.4073 H       1  UNL1        0.2094
     30 H           5.2425    4.7394   -0.5158 H       1  UNL1        0.0567
     31 H           5.3257    3.4838   -1.7411 H       1  UNL1        0.0567
     32 H           3.3739    2.5752    2.0558 H       1  UNL1        0.0502
     33 H           5.1217    2.7355    2.0077 H       1  UNL1        0.0502
     34 H           1.9442    4.7153    2.2830 H       1  UNL1        0.0825
     35 H           2.6646    7.3604    2.6165 H       1  UNL1        0.0845
     36 H           6.1447    5.1245    2.0282 H       1  UNL1        0.1029
     37 H           2.2011    3.9981    0.0802 H       1  UNL1        0.0324
     38 H           2.9521    3.9336   -1.5186 H       1  UNL1        0.0324
     39 H           2.9812   -1.1782   -0.9703 H       1  UNL1        0.0624
     40 H           0.6364   -1.3911   -1.6557 H       1  UNL1        0.0618
     41 H          -0.8184    0.6104   -1.8108 H       1  UNL1        0.0618
     42 H           0.0982    2.8677   -1.3214 H       1  UNL1        0.0620
     43 H           6.8866   -1.0771    0.4281 H       1  UNL1        0.0776
     44 H           5.3726   -1.8176    1.0047 H       1  UNL1        0.0776
     45 H           7.1954   -1.5514   -2.3196 H       1  UNL1        0.0623
     46 H           7.6438   -3.5169   -3.7750 H       1  UNL1        0.0646
     47 H           5.7445   -6.0922   -0.9238 H       1  UNL1        0.0675
@<TRIPOS>BOND
     1     1    29    1
     2     2     1    1
     3     2    30    1
     4     2    31    1
     5     3     2    1
     6     4     3    1
     7     4    32    1
     8     4    33    1
     9     5     4    1
    10     6     5   ar
    11     6    34    1
    12     7     6   ar
    13     7    35    1
    14     8     7   ar
    15     9     8   ar
    16     9     5   ar
    17     9    36    1
    18    10     3    1
    19    10    37    1
    20    10    38    1
    21    11    10    1
    22    12    11   ar
    23    13    12   ar
    24    13    39    1
    25    14    13   ar
    26    14    40    1
    27    15    14   ar
    28    15    41    1
    29    16    15   ar
    30    16    11   ar
    31    16    42    1
    32    17    12    1
    33    17     3    1
    34    18    17    2
    35    19    18    1
    36    20    19    1
    37    20    43    1
    38    20    44    1
    39    21    20    1
    40    22    21   ar
    41    22    45    1
    42    23    22   ar
    43    23    46    1
    44    24    23   ar
    45    25    24    1
    46    26    24   ar
    47    26    47    1
    48    27    26   ar
    49    27    21   ar
    50    28    27    1
