@<TRIPOS>MOLECULE
>135.sdf
 31 33 0 0 0
SMALL
GASTEIGER

@<TRIPOS>ATOM
      1 O           1.0799   -0.5141    0.6071 O.3     1  UNL1       -0.3924
      2 C           2.2233   -0.2093   -0.1818 C.3     1  UNL1        0.0729
      3 C           3.2540   -1.3380   -0.1424 C.3     1  UNL1        0.1109
      4 O           3.6964   -1.5124    1.2142 O.3     1  UNL1       -0.3595
      5 C           3.5054   -2.8956    1.6040 C.3     1  UNL1        0.1330
      6 C           2.5243   -3.5166    0.6019 C.3     1  UNL1        0.1153
      7 O           2.7721   -4.9045    0.3423 O.3     1  UNL1       -0.3862
      8 C           2.7167   -2.6745   -0.6498 C.3     1  UNL1        0.1120
      9 O           3.6855   -3.3249   -1.4977 O.3     1  UNL1       -0.3865
     10 C           3.0114   -2.9813    3.0199 C.ar    1  UNL1        0.1201
     11 N           1.8256   -2.4395    3.3869 N.ar    1  UNL1       -0.1732
     12 N           1.7236   -2.7328    4.7064 N.ar    1  UNL1       -0.2701
     13 C           2.8125   -3.3801    5.1928 C.ar    1  UNL1        0.1487
     14 C           3.6487   -3.5595    4.1345 C.ar    1  UNL1        0.1210
     15 N           4.8895   -4.1932    4.2458 N.ar    1  UNL1       -0.2337
     16 C           5.1476   -4.5785    5.4599 C.ar    1  UNL1        0.0968
     17 N           4.3398   -4.4152    6.5675 N.ar    1  UNL1       -0.3117
     18 C           3.1017   -3.8156    6.5074 C.ar    1  UNL1        0.2768
     19 O           2.3774   -3.6839    7.4839 O.2     1  UNL1       -0.2655
     20 H           1.3962   -0.6173    1.5297 H       1  UNL1        0.2095
     21 H           1.8908   -0.0344   -1.2105 H       1  UNL1        0.0584
     22 H           2.6557    0.7213    0.2003 H       1  UNL1        0.0584
     23 H           4.1289   -1.0261   -0.7237 H       1  UNL1        0.0646
     24 H           4.4856   -3.3826    1.5290 H       1  UNL1        0.0690
     25 H           1.4889   -3.4277    0.9454 H       1  UNL1        0.0650
     26 H           3.1709   -4.9344   -0.5526 H       1  UNL1        0.2100
     27 H           1.7952   -2.5912   -1.2343 H       1  UNL1        0.0647
     28 H           3.8174   -2.7521   -2.2747 H       1  UNL1        0.2100
     29 H           0.8905   -2.4516    5.2090 H       1  UNL1        0.1892
     30 H           6.0974   -5.0911    5.6905 H       1  UNL1        0.1028
     31 H           4.6262   -4.7606    7.4718 H       1  UNL1        0.1698
@<TRIPOS>BOND
     1     1    20    1
     2     2     1    1
     3     2    21    1
     4     2    22    1
     5     3     2    1
     6     3    23    1
     7     4     3    1
     8     5     4    1
     9     5    24    1
    10     6     5    1
    11     6    25    1
    12     7     6    1
    13     7    26    1
    14     8     6    1
    15     8     3    1
    16     8    27    1
    17     9     8    1
    18     9    28    1
    19    10     5    1
    20    11    10   ar
    21    12    11   ar
    22    12    29    1
    23    13    12   ar
    24    14    13   ar
    25    14    10   ar
    26    15    14   ar
    27    16    15   ar
    28    16    30    1
    29    17    16   ar
    30    17    31    1
    31    18    17   ar
    32    18    13   ar
    33    19    18    2
