@<TRIPOS>MOLECULE
>123.sdf
 58 61 0 0 0
SMALL
GASTEIGER

@<TRIPOS>ATOM
      1 C           0.9616   -0.8946    2.4834 C.3     1  UNL1       -0.0394
      2 C           2.4734   -0.7928    2.2477 C.3     1  UNL1        0.0872
      3 N           2.9784    0.5469    2.6538 N.ar    1  UNL1       -0.2345
      4 N           4.0543    0.6137    3.5173 N.ar    1  UNL1       -0.1586
      5 C           4.3530    1.8722    3.5705 C.ar    1  UNL1        0.1230
      6 N           3.6001    2.6874    2.7971 N.ar    1  UNL1       -0.2777
      7 C           2.6165    1.8568    2.2554 C.ar    1  UNL1        0.1829
      8 S           1.2288    2.2814    1.4225 S.2     1  UNL1       -0.0109
      9 C           3.8688    4.0595    2.5465 C.ar    1  UNL1        0.0501
     10 C           3.4450    4.6697    1.3591 C.ar    1  UNL1       -0.0343
     11 C           3.6750    6.0192    1.0904 C.ar    1  UNL1       -0.0180
     12 C           4.3826    6.7947    1.9954 C.ar    1  UNL1        0.1209
     13 O           4.6695    8.1190    1.8402 O.3     1  UNL1       -0.4858
     14 C           4.0957    8.7690    0.6976 C.3     1  UNL1        0.1582
     15 C           4.4832   10.2387    0.6955 C.3     1  UNL1        0.3406
     16 F           3.9856   10.8176   -0.4318 F       1  UNL1       -0.1957
     17 F           3.8753   10.8618    1.7430 F       1  UNL1       -0.1957
     18 C           5.9914   10.4120    0.7771 C.3     1  UNL1        0.3045
     19 F           6.6010    9.7921   -0.2697 F       1  UNL1       -0.2026
     20 F           6.3330   11.7250    0.6960 F       1  UNL1       -0.2026
     21 C           4.8686    6.1979    3.1591 C.ar    1  UNL1       -0.0180
     22 C           4.6175    4.8439    3.4338 C.ar    1  UNL1       -0.0343
     23 C           2.9564   -1.2414    0.7990 C.3     1  UNL1        0.1349
     24 O           2.4578   -0.3074   -0.1776 O.3     1  UNL1       -0.3799
     25 C           2.2819   -2.5902    0.4033 C.3     1  UNL1        0.0782
     26 N           2.7088   -3.1243   -0.8760 N.ar    1  UNL1       -0.2489
     27 C           2.4177   -2.6496   -2.1196 C.ar    1  UNL1        0.1144
     28 N           2.9818   -3.4149   -3.0255 N.ar    1  UNL1       -0.2228
     29 C           3.5984   -4.3724   -2.2719 C.ar    1  UNL1        0.1379
     30 N           3.4362   -4.2522   -0.9518 N.ar    1  UNL1       -0.1583
     31 C           4.4977   -1.3124    0.7733 C.ar    1  UNL1        0.0230
     32 C           5.1908   -2.4847    1.1400 C.ar    1  UNL1       -0.0503
     33 C           6.5880   -2.5361    1.1252 C.ar    1  UNL1       -0.0259
     34 C           7.3143   -1.4059    0.7766 C.ar    1  UNL1        0.1261
     35 F           8.6522   -1.4558    0.7783 F       1  UNL1       -0.2054
     36 C           6.6711   -0.2282    0.4347 C.ar    1  UNL1        0.0092
     37 C           5.2791   -0.1952    0.4324 C.ar    1  UNL1        0.1321
     38 F           4.6808    0.9599    0.1018 F       1  UNL1       -0.2050
     39 H           0.6370   -1.9368    2.5368 H       1  UNL1        0.0251
     40 H           0.6842   -0.4191    3.4320 H       1  UNL1        0.0251
     41 H           0.3804   -0.4218    1.6854 H       1  UNL1        0.0251
     42 H           2.9244   -1.4933    2.9655 H       1  UNL1        0.0576
     43 H           5.1772    2.2802    4.1671 H       1  UNL1        0.1051
     44 H           2.9582    4.1095    0.5686 H       1  UNL1        0.0639
     45 H           3.2917    6.4109    0.1540 H       1  UNL1        0.0655
     46 H           4.4615    8.3042   -0.2268 H       1  UNL1        0.0759
     47 H           3.0017    8.6919    0.7301 H       1  UNL1        0.0759
     48 H           6.4069   10.0160    1.7079 H       1  UNL1        0.1082
     49 H           5.4410    6.7925    3.8682 H       1  UNL1        0.0655
     50 H           5.0003    4.4459    4.3700 H       1  UNL1        0.0639
     51 H           3.0190    0.4907   -0.1596 H       1  UNL1        0.2108
     52 H           2.4530   -3.3648    1.1628 H       1  UNL1        0.0542
     53 H           1.1941   -2.4678    0.3086 H       1  UNL1        0.0542
     54 H           1.8193   -1.7663   -2.3008 H       1  UNL1        0.1044
     55 H           4.1689   -5.1844   -2.7055 H       1  UNL1        0.1065
     56 H           4.6657   -3.3934    1.4271 H       1  UNL1        0.0623
     57 H           7.1088   -3.4544    1.3820 H       1  UNL1        0.0646
     58 H           7.2456    0.6508    0.1742 H       1  UNL1        0.0675
@<TRIPOS>BOND
     1     1    39    1
     2     1    40    1
     3     1    41    1
     4     3     2    1
     5     4     3   ar
     6     5     4   ar
     7     5    43    1
     8     6     5   ar
     9     7     6   ar
    10     7     3   ar
    11     8     7    2
    12     9     6    1
    13    10     9   ar
    14    10    44    1
    15    11    10   ar
    16    11    45    1
    17    12    11   ar
    18    13    12    1
    19    14    13    1
    20    14    46    1
    21    14    47    1
    22    15    14    1
    23    16    15    1
    24    17    15    1
    25    18    15    1
    26    18    48    1
    27    19    18    1
    28    20    18    1
    29    21    12   ar
    30    21    49    1
    31    22    21   ar
    32    22     9   ar
    33    22    50    1
    34    24    51    1
    35    25    23    1
    36    25    52    1
    37    25    53    1
    38    26    25    1
    39    27    26   ar
    40    27    54    1
    41    28    27   ar
    42    29    28   ar
    43    29    55    1
    44    30    29   ar
    45    30    26   ar
    46    31    23    1
    47    32    31   ar
    48    32    56    1
    49    33    32   ar
    50    33    57    1
    51    34    33   ar
    52    35    34    1
    53    36    34   ar
    54    36    58    1
    55    37    36   ar
    56    37    31   ar
    57    38    37    1
    58     2    42    1
    59     2     1    1
    60    23    24    1
    61    23     2    1
