@<TRIPOS>MOLECULE
>72.sdf
 57 61 0 0 0
SMALL
GASTEIGER

@<TRIPOS>ATOM
      1 F           0.1292   -0.7746    1.4578 F       1  UNL1       -0.2055
      2 C           1.4457   -0.5343    1.4368 C.ar    1  UNL1        0.1240
      3 C           2.3170   -1.5717    1.1134 C.ar    1  UNL1       -0.0176
      4 C           3.7227   -1.3684    1.1095 C.ar    1  UNL1       -0.0004
      5 C           4.1733   -0.0740    1.4094 C.ar    1  UNL1        0.0201
      6 S           5.8866    0.0308    1.3566 S.2     1  UNL1       -0.0960
      7 C           6.0452   -1.6152    0.9610 C.ar    1  UNL1       -0.0155
      8 C           4.8335   -2.2702    0.8332 C.ar    1  UNL1       -0.0031
      9 C           4.7970   -3.7029    0.4996 C.ar    1  UNL1       -0.0168
     10 C           3.8214   -4.5474    1.0441 C.ar    1  UNL1       -0.0536
     11 C           3.8176   -5.9205    0.7735 C.ar    1  UNL1       -0.0530
     12 C           4.8291   -6.4921   -0.0070 C.ar    1  UNL1       -0.0029
     13 C           4.8729   -7.9770   -0.2032 C.3     1  UNL1       -0.0077
     14 N           4.0661   -8.3800   -1.3885 N.4     1  UNL1        0.2303
     15 C           4.0552   -9.8468   -1.6669 C.3     1  UNL1       -0.0319
     16 C           3.2311  -10.1549   -2.9143 C.3     1  UNL1        0.0029
     17 C           3.8165   -9.4799   -4.1505 C.3     1  UNL1        0.0139
     18 N           2.9921   -9.7199   -5.3219 N.pl3   1  UNL1       -0.3431
     19 C           3.5065   -9.1707   -6.5335 C.ar    1  UNL1        0.0378
     20 C           4.2508   -7.9829   -6.5447 C.ar    1  UNL1       -0.0221
     21 C           4.8326   -7.5674   -7.7214 C.ar    1  UNL1        0.0300
     22 N           4.6935   -8.2146   -8.8879 N.ar    1  UNL1       -0.2548
     23 C           3.8613   -9.2640   -8.9271 C.ar    1  UNL1        0.0741
     24 C           3.1912   -9.7598   -7.7881 C.ar    1  UNL1        0.0213
     25 C           2.2493  -10.8058   -7.9548 C.ar    1  UNL1       -0.0494
     26 C           2.0084  -11.3590   -9.2130 C.ar    1  UNL1       -0.0426
     27 C           2.7247  -10.8958  -10.3052 C.ar    1  UNL1        0.0430
     28 CL          2.4517  -11.5844  -11.8563 Cl      1  UNL1       -0.0835
     29 C           3.6431   -9.8605  -10.1618 C.ar    1  UNL1       -0.0173
     30 C           5.7854   -5.6527   -0.5897 C.ar    1  UNL1       -0.0530
     31 C           5.7635   -4.2745   -0.3431 C.ar    1  UNL1       -0.0536
     32 C           3.2848    0.9810    1.7112 C.ar    1  UNL1       -0.0447
     33 C           1.9140    0.7306    1.7289 C.ar    1  UNL1       -0.0254
     34 H           1.8807   -2.5336    0.8680 H       1  UNL1        0.0653
     35 H           7.0430   -2.0157    0.8470 H       1  UNL1        0.0700
     36 H           3.0689   -4.1627    1.7274 H       1  UNL1        0.0624
     37 H           3.0363   -6.5295    1.2248 H       1  UNL1        0.0622
     38 H           5.9019   -8.3171   -0.3752 H       1  UNL1        0.0866
     39 H           4.4729   -8.5061    0.6641 H       1  UNL1        0.0866
     40 H           3.1039   -8.0346   -1.2578 H       1  UNL1        0.2017
     41 H           4.4439   -7.8391   -2.1736 H       1  UNL1        0.2017
     42 H           5.0963  -10.1683   -1.7870 H       1  UNL1        0.0814
     43 H           3.6223  -10.3377   -0.7888 H       1  UNL1        0.0814
     44 H           3.2063  -11.2413   -3.0664 H       1  UNL1        0.0332
     45 H           2.1927   -9.8371   -2.7647 H       1  UNL1        0.0332
     46 H           3.8445   -8.4062   -3.9618 H       1  UNL1        0.0463
     47 H           4.8407   -9.8370   -4.3142 H       1  UNL1        0.0463
     48 H           2.8241  -10.7163   -5.4662 H       1  UNL1        0.1461
     49 H           4.3971   -7.3736   -5.6676 H       1  UNL1        0.0651
     50 H           5.4472   -6.6726   -7.7605 H       1  UNL1        0.0830
     51 H           1.6540  -11.1646   -7.1205 H       1  UNL1        0.0625
     52 H           1.2638  -12.1387   -9.3285 H       1  UNL1        0.0632
     53 H           4.1893   -9.4914  -11.0260 H       1  UNL1        0.0653
     54 H           6.5842   -6.0482   -1.2155 H       1  UNL1        0.0622
     55 H           6.5331   -3.6532   -0.8013 H       1  UNL1        0.0624
     56 H           3.6635    1.9759    1.9315 H       1  UNL1        0.0630
     57 H           1.2116    1.5243    1.9664 H       1  UNL1        0.0646
@<TRIPOS>UNITY_ATOM_ATTR
14 1
charge 1
@<TRIPOS>BOND
     1     2     1    1
     2     3     2   ar
     3     3    34    1
     4     4     3   ar
     5     5     4   ar
     6     6     5   ar
     7     7     6   ar
     8     7    35    1
     9     8     7   ar
    10     8     4   ar
    11     9     8    1
    12    10     9   ar
    13    10    36    1
    14    11    10   ar
    15    11    37    1
    16    12    11   ar
    17    13    12    1
    18    13    38    1
    19    13    39    1
    20    14    13    1
    21    14    40    1
    22    14    41    1
    23    15    14    1
    24    15    42    1
    25    15    43    1
    26    16    15    1
    27    16    44    1
    28    16    45    1
    29    17    16    1
    30    17    46    1
    31    17    47    1
    32    18    17    1
    33    18    48    1
    34    19    18    1
    35    20    19   ar
    36    20    49    1
    37    21    20   ar
    38    21    50    1
    39    22    21   ar
    40    23    22   ar
    41    24    23   ar
    42    24    19   ar
    43    25    24   ar
    44    25    51    1
    45    26    25   ar
    46    26    52    1
    47    27    26   ar
    48    28    27    1
    49    29    27   ar
    50    29    23   ar
    51    29    53    1
    52    30    12   ar
    53    30    54    1
    54    31    30   ar
    55    31     9   ar
    56    31    55    1
    57    32     5   ar
    58    32    56    1
    59    33    32   ar
    60    33     2   ar
    61    33    57    1
