@<TRIPOS>MOLECULE
>61_alt.sdf
 54 59 0 0 0
SMALL
GASTEIGER

@<TRIPOS>ATOM
      1 C           1.2365    2.5670   -0.3897 C.3     1  UNL1        0.0820
      2 O           2.6512    2.3898   -0.3519 O.3     1  UNL1       -0.4634
      3 C           3.0685    1.1094   -0.5187 C.2     1  UNL1        0.3575
      4 O           2.3451    0.1351   -0.6818 O.2     1  UNL1       -0.2432
      5 C           4.5657    1.0453   -0.4887 C.ar    1  UNL1        0.1487
      6 N           5.2298    2.2135   -0.2608 N.ar    1  UNL1       -0.2394
      7 C           6.5922    2.2318   -0.2677 C.ar    1  UNL1        0.1046
      8 C           7.3284    3.5767   -0.2054 C.3     1  UNL1        0.1400
      9 N           8.1223    3.5487    1.0292 N.pl3   1  UNL1       -0.3200
     10 C           9.0181    4.6084    1.1878 C.ar    1  UNL1        0.0410
     11 C           9.4823    4.9483    2.4638 C.ar    1  UNL1       -0.0401
     12 C          10.4537    5.9396    2.6316 C.ar    1  UNL1       -0.0600
     13 C          10.9925    6.5868    1.5223 C.ar    1  UNL1       -0.0609
     14 C          10.5753    6.2254    0.2432 C.ar    1  UNL1       -0.0478
     15 C           9.6061    5.2263    0.0833 C.ar    1  UNL1        0.0581
     16 C           9.2516    4.7454   -1.2685 C.2     1  UNL1        0.2544
     17 O           9.8990    5.1626   -2.2270 O.2     1  UNL1       -0.2695
     18 N           8.2157    3.8179   -1.3546 N.am    1  UNL1       -0.2427
     19 C           7.9119    3.2437   -2.6275 C.ar    1  UNL1        0.0389
     20 C           8.9254    2.5452   -3.3013 C.ar    1  UNL1       -0.0388
     21 C           8.6246    1.7617   -4.4166 C.ar    1  UNL1       -0.0416
     22 C           7.3190    1.7179   -4.8966 C.ar    1  UNL1        0.0411
     23 CL          6.9394    0.7242   -6.2482 Cl      1  UNL1       -0.0835
     24 C           6.3154    2.4621   -4.2794 C.ar    1  UNL1       -0.0416
     25 C           6.6088    3.2184   -3.1404 C.ar    1  UNL1       -0.0388
     26 C           7.2492    1.0045   -0.4414 C.ar    1  UNL1        0.0726
     27 N           8.5997    0.7396   -0.4564 N.ar    1  UNL1       -0.3526
     28 C           8.8407   -0.5558   -0.8297 C.ar    1  UNL1        0.0475
     29 C           7.5994   -1.1733   -0.9843 C.ar    1  UNL1        0.0075
     30 C           7.5769   -2.5269   -1.3789 C.ar    1  UNL1       -0.0520
     31 C           8.7864   -3.1988   -1.6050 C.ar    1  UNL1       -0.0611
     32 C          10.0066   -2.5469   -1.4433 C.ar    1  UNL1       -0.0598
     33 C          10.0575   -1.2089   -1.0498 C.ar    1  UNL1       -0.0378
     34 C           6.5906   -0.1882   -0.7160 C.ar    1  UNL1        0.0115
     35 C           5.1870   -0.1777   -0.7364 C.ar    1  UNL1       -0.0195
     36 H           0.8192    2.1734   -1.3216 H       1  UNL1        0.0661
     37 H           0.7716    2.0897    0.4780 H       1  UNL1        0.0661
     38 H           1.0314    3.6404   -0.3474 H       1  UNL1        0.0661
     39 H           6.6001    4.3972   -0.1593 H       1  UNL1        0.0781
     40 H           7.5232    3.4211    1.8427 H       1  UNL1        0.1482
     41 H           9.0994    4.4359    3.3433 H       1  UNL1        0.0636
     42 H          10.8025    6.1947    3.6297 H       1  UNL1        0.0618
     43 H          11.7565    7.3500    1.6494 H       1  UNL1        0.0618
     44 H          11.0243    6.6990   -0.6271 H       1  UNL1        0.0626
     45 H           9.9420    2.5405   -2.9150 H       1  UNL1        0.0637
     46 H           9.4069    1.1697   -4.8834 H       1  UNL1        0.0633
     47 H           5.2993    2.4388   -4.6640 H       1  UNL1        0.0633
     48 H           5.8054    3.7723   -2.6610 H       1  UNL1        0.0637
     49 H           9.3136    1.4359   -0.2860 H       1  UNL1        0.1660
     50 H           6.6338   -3.0444   -1.5260 H       1  UNL1        0.0624
     51 H           8.7718   -4.2399   -1.9184 H       1  UNL1        0.0618
     52 H          10.9345   -3.0831   -1.6297 H       1  UNL1        0.0618
     53 H          11.0074   -0.6971   -0.9310 H       1  UNL1        0.0638
     54 H           4.6146   -1.0721   -0.9561 H       1  UNL1        0.0648
@<TRIPOS>BOND
     1     1    36    1
     2     1    37    1
     3     1    38    1
     4     2     1    1
     5     3     2    1
     6     4     3    2
     7     5     3    1
     8     6     5   ar
     9     7     6   ar
    10     8     7    1
    11     8    39    1
    12     9     8    1
    13     9    40    1
    14    10     9    1
    15    11    10   ar
    16    11    41    1
    17    12    11   ar
    18    12    42    1
    19    13    12   ar
    20    13    43    1
    21    14    13   ar
    22    14    44    1
    23    15    14   ar
    24    15    10   ar
    25    16    15    1
    26    17    16    2
    27    18    16   am
    28    18     8    1
    29    19    18    1
    30    20    19   ar
    31    20    45    1
    32    21    20   ar
    33    21    46    1
    34    22    21   ar
    35    23    22    1
    36    24    22   ar
    37    24    47    1
    38    25    24   ar
    39    25    19   ar
    40    25    48    1
    41    26     7   ar
    42    27    26   ar
    43    27    49    1
    44    28    27   ar
    45    29    28   ar
    46    30    29   ar
    47    30    50    1
    48    31    30   ar
    49    31    51    1
    50    32    31   ar
    51    32    52    1
    52    33    32   ar
    53    33    28   ar
    54    33    53    1
    55    34    29   ar
    56    34    26   ar
    57    35    34   ar
    58    35     5   ar
    59    35    54    1
