@<TRIPOS>MOLECULE
>194.sdf
 41 42 0 0 0
SMALL
GASTEIGER

@<TRIPOS>ATOM
      1 C           0.9213   -0.0037   -0.0509 C.3     1  UNL1       -0.0653
      2 C           2.4393    0.0217   -0.0474 C.3     1  UNL1       -0.0559
      3 C           2.9745    0.7131    1.2031 C.3     1  UNL1       -0.0533
      4 C           4.4998    0.7410    1.2062 C.3     1  UNL1       -0.0531
      5 C           5.0236    1.4345    2.4600 C.3     1  UNL1       -0.0530
      6 C           6.5484    1.4657    2.4722 C.3     1  UNL1       -0.0527
      7 C           7.0631    2.1617    3.7301 C.3     1  UNL1       -0.0461
      8 C           8.5887    2.1813    3.7558 C.3     1  UNL1        0.0082
      9 C           9.1127    2.8568    4.9635 C.ar    1  UNL1        0.1380
     10 C           9.8645    3.9862    5.1734 C.ar    1  UNL1        0.0112
     11 C          10.0609    4.0133    6.5689 C.ar    1  UNL1        0.1485
     12 N           9.4534    2.9850    7.1738 N.ar    1  UNL1       -0.0749
     13 O           8.8548    2.2591    6.1587 O.2     1  UNL1       -0.3590
     14 C          10.8396    5.0372    7.3151 C.ar    1  UNL1        0.1592
     15 C          11.0848    5.0336    8.6789 C.ar    1  UNL1       -0.0118
     16 C          11.8337    6.2016    8.9713 C.ar    1  UNL1        0.0086
     17 C          11.9919    6.8381    7.7664 C.ar    1  UNL1        0.2803
     18 O          11.4191    6.1456    6.7486 O.2     1  UNL1       -0.4323
     19 N          12.6154    8.0792    7.4261 N.pl3   1  UNL1        0.0926
     20 O          13.0817    8.7328    8.3688 O.2     1  UNL1       -0.1231
     21 O          12.6391    8.4073    6.2342 O.2     1  UNL1       -0.1231
     22 H           0.5511   -0.5002   -0.9495 H       1  UNL1        0.0230
     23 H           0.5381   -0.5445    0.8223 H       1  UNL1        0.0230
     24 H           0.5139    1.0133   -0.0280 H       1  UNL1        0.0230
     25 H           2.8193   -1.0056   -0.0974 H       1  UNL1        0.0263
     26 H           2.7949    0.5438   -0.9436 H       1  UNL1        0.0263
     27 H           2.5873    1.7385    1.2520 H       1  UNL1        0.0265
     28 H           2.6138    0.1894    2.0970 H       1  UNL1        0.0265
     29 H           4.8892   -0.2834    1.1602 H       1  UNL1        0.0265
     30 H           4.8627    1.2663    0.3143 H       1  UNL1        0.0265
     31 H           4.6335    2.4588    2.5057 H       1  UNL1        0.0265
     32 H           4.6588    0.9095    3.3513 H       1  UNL1        0.0265
     33 H           6.9390    0.4416    2.4294 H       1  UNL1        0.0265
     34 H           6.9158    1.9901    1.5814 H       1  UNL1        0.0265
     35 H           6.6730    3.1865    3.7724 H       1  UNL1        0.0269
     36 H           6.6795    1.6409    4.6173 H       1  UNL1        0.0269
     37 H           8.9767    1.1566    3.7238 H       1  UNL1        0.0344
     38 H           8.9653    2.6927    2.8611 H       1  UNL1        0.0344
     39 H          10.2385    4.6731    4.4296 H       1  UNL1        0.0675
     40 H          10.7480    4.2752    9.3743 H       1  UNL1        0.0657
     41 H          12.1931    6.5373    9.9346 H       1  UNL1        0.0673
@<TRIPOS>BOND
     1     1    22    1
     2     1    23    1
     3     1    24    1
     4     2     1    1
     5     2    25    1
     6     2    26    1
     7     3     2    1
     8     3    27    1
     9     3    28    1
    10     4     3    1
    11     4    29    1
    12     4    30    1
    13     5     4    1
    14     5    31    1
    15     5    32    1
    16     6     5    1
    17     6    33    1
    18     6    34    1
    19     7     6    1
    20     7    35    1
    21     7    36    1
    22     8     7    1
    23     8    37    1
    24     8    38    1
    25     9     8    1
    26    10     9   ar
    27    10    39    1
    28    11    10   ar
    29    12    11   ar
    30    13    12   ar
    31    13     9   ar
    32    14    11    1
    33    15    14   ar
    34    15    40    1
    35    16    15   ar
    36    16    41    1
    37    17    16   ar
    38    18    17   ar
    39    18    14   ar
    40    19    17    1
    41    20    19    2
    42    21    19    2
