@<TRIPOS>MOLECULE
>224.sdf
 58 62 0 0 0
SMALL
GASTEIGER

@<TRIPOS>ATOM
      1 CL         -2.2269   -0.3976    0.0912 Cl      1  UNL1       -0.0835
      2 C          -0.5015   -0.4043    0.0186 C.ar    1  UNL1        0.0410
      3 C           0.1615    0.8067    0.1995 C.ar    1  UNL1       -0.0428
      4 C           1.5835    0.8414    0.1539 C.ar    1  UNL1       -0.0526
      5 C           2.3422   -0.3212    0.0466 C.ar    1  UNL1       -0.0173
      6 C           1.6330   -1.5280   -0.1771 C.ar    1  UNL1       -0.0526
      7 C           0.2165   -1.5622   -0.2372 C.ar    1  UNL1       -0.0428
      8 C           3.8460   -0.2889    0.1223 C.ar    1  UNL1       -0.0079
      9 C           4.5811    0.4082    1.1284 C.ar    1  UNL1        0.0049
     10 C           4.0446    1.4674    2.0750 C.3     1  UNL1       -0.0053
     11 N           3.1508    1.1454    3.2672 N.4     1  UNL1        0.2385
     12 C           3.8031    0.2054    4.2449 C.3     1  UNL1       -0.0316
     13 C           3.7925    0.6185    5.7088 C.3     1  UNL1       -0.0123
     14 C           3.7751    2.1025    5.9859 C.3     1  UNL1       -0.0434
     15 C           2.6825    2.8046    5.2204 C.3     1  UNL1       -0.0123
     16 C           2.5296    2.4421    3.7574 C.3     1  UNL1       -0.0316
     17 C           5.9964    0.3298    1.1158 C.ar    1  UNL1       -0.0512
     18 C           6.7064   -0.2826    0.0779 C.ar    1  UNL1       -0.0401
     19 C           6.0373   -0.8542   -0.9911 C.ar    1  UNL1        0.0319
     20 N           6.7135   -1.2361   -2.1929 N.pl3   1  UNL1       -0.3139
     21 C           8.0516   -1.7310   -2.3383 C.ar    1  UNL1        0.0420
     22 C           8.1547   -3.0425   -2.7534 C.ar    1  UNL1       -0.0218
     23 C           8.9814   -3.8556   -2.0256 C.ar    1  UNL1        0.0300
     24 N           9.9727   -3.3669   -1.2694 N.ar    1  UNL1       -0.2548
     25 C          10.1940   -2.0490   -1.3482 C.ar    1  UNL1        0.0741
     26 C          11.4425   -1.6079   -0.9634 C.ar    1  UNL1       -0.0173
     27 C          11.8299   -0.2951   -1.1872 C.ar    1  UNL1        0.0430
     28 CL         13.4703    0.1509   -0.9179 Cl      1  UNL1       -0.0835
     29 C          10.9213    0.6320   -1.6950 C.ar    1  UNL1       -0.0426
     30 C           9.6109    0.2226   -1.9927 C.ar    1  UNL1       -0.0494
     31 C           9.2393   -1.1447   -1.8620 C.ar    1  UNL1        0.0216
     32 C           4.6166   -0.9042   -0.9178 C.ar    1  UNL1       -0.0324
     33 H          -0.3768    1.7411    0.3326 H       1  UNL1        0.0632
     34 H           2.0329    1.8063    0.1582 H       1  UNL1        0.0624
     35 H           2.1434   -2.4641   -0.3556 H       1  UNL1        0.0624
     36 H          -0.3302   -2.5057   -0.4007 H       1  UNL1        0.0632
     37 H           4.8803    2.0262    2.5162 H       1  UNL1        0.0867
     38 H           3.5216    2.2089    1.4662 H       1  UNL1        0.0867
     39 H           2.3711    0.6078    2.8637 H       1  UNL1        0.2037
     40 H           4.8353    0.0403    3.9227 H       1  UNL1        0.0814
     41 H           3.2774   -0.7538    4.1418 H       1  UNL1        0.0814
     42 H           4.6839    0.1938    6.1912 H       1  UNL1        0.0317
     43 H           2.9402    0.1485    6.2139 H       1  UNL1        0.0317
     44 H           3.6043    2.2618    7.0595 H       1  UNL1        0.0269
     45 H           4.7505    2.5489    5.7631 H       1  UNL1        0.0269
     46 H           1.7224    2.6523    5.7260 H       1  UNL1        0.0317
     47 H           2.8645    3.8892    5.2903 H       1  UNL1        0.0317
     48 H           1.4683    2.3959    3.4884 H       1  UNL1        0.0814
     49 H           2.9557    3.2647    3.1689 H       1  UNL1        0.0814
     50 H           6.5906    0.8426    1.8699 H       1  UNL1        0.0623
     51 H           7.7865   -0.2237    0.1065 H       1  UNL1        0.0636
     52 H           6.0944   -1.8330   -2.7428 H       1  UNL1        0.1522
     53 H           8.3015   -3.1780   -3.8458 H       1  UNL1        0.0651
     54 H           8.9526   -4.9335   -2.1377 H       1  UNL1        0.0830
     55 H          12.1534   -2.3343   -0.5739 H       1  UNL1        0.0653
     56 H          11.2484    1.6474   -1.9074 H       1  UNL1        0.0632
     57 H           8.9276    0.9407   -2.4483 H       1  UNL1        0.0625
     58 H           4.0835   -1.4032   -1.7303 H       1  UNL1        0.0642
@<TRIPOS>UNITY_ATOM_ATTR
11 1
charge 1
@<TRIPOS>BOND
     1     2     1    1
     2     3     2   ar
     3     3    33    1
     4     4     3   ar
     5     4    34    1
     6     5     4   ar
     7     6     5   ar
     8     6    35    1
     9     7     6   ar
    10     7     2   ar
    11     7    36    1
    12     8     5    1
    13     9     8   ar
    14    10     9    1
    15    10    37    1
    16    10    38    1
    17    11    10    1
    18    11    39    1
    19    12    11    1
    20    12    40    1
    21    12    41    1
    22    13    12    1
    23    13    42    1
    24    13    43    1
    25    14    13    1
    26    14    44    1
    27    14    45    1
    28    15    14    1
    29    15    46    1
    30    15    47    1
    31    16    15    1
    32    16    11    1
    33    16    48    1
    34    16    49    1
    35    17     9   ar
    36    17    50    1
    37    18    17   ar
    38    18    51    1
    39    19    18   ar
    40    20    19    1
    41    20    52    1
    42    21    20    1
    43    22    21   ar
    44    22    53    1
    45    23    22   ar
    46    23    54    1
    47    24    23   ar
    48    25    24   ar
    49    26    25   ar
    50    26    55    1
    51    27    26   ar
    52    28    27    1
    53    29    27   ar
    54    29    56    1
    55    30    29   ar
    56    30    57    1
    57    31    30   ar
    58    31    21   ar
    59    31    25   ar
    60    32    19   ar
    61    32     8   ar
    62    32    58    1
