@<TRIPOS>MOLECULE
>188.sdf
 40 42 0 0 0
SMALL
GASTEIGER

@<TRIPOS>ATOM
      1 C           3.1426   -1.4190   -0.3644 C.3     1  UNL1       -0.0424
      2 C           2.6157   -0.0122   -0.0331 C.3     1  UNL1        0.0465
      3 N           3.0009    0.9024   -1.0985 N.am    1  UNL1       -0.3023
      4 C           2.1613    1.8930   -1.5523 C.2     1  UNL1        0.2801
      5 O           1.0237    2.0408   -1.1123 O.2     1  UNL1       -0.2668
      6 C           2.7346    2.7142   -2.6156 C.ar    1  UNL1        0.1984
      7 N           3.9180    2.4632   -3.1661 N.ar    1  UNL1       -0.1999
      8 C           4.0777    3.4197   -4.1548 C.ar    1  UNL1        0.2333
      9 C           2.9886    4.2593   -4.2049 C.ar    1  UNL1        0.0554
     10 N           2.1560    3.8196   -3.2077 N.ar    1  UNL1       -0.3275
     11 C           0.9051    4.4580   -2.8745 C.3     1  UNL1        0.0135
     12 N           5.2647    3.4733   -4.9854 N.pl3   1  UNL1        0.0767
     13 O           5.3062    4.3618   -5.8419 O.2     1  UNL1       -0.1246
     14 O           6.1467    2.6299   -4.7708 O.2     1  UNL1       -0.1246
     15 C           3.0787    0.5058    1.3321 C.ar    1  UNL1       -0.0198
     16 C           2.1905    0.7910    2.4270 C.ar    1  UNL1       -0.0130
     17 C           0.7770    0.6622    2.4005 C.ar    1  UNL1       -0.0537
     18 C          -0.0236    0.9433    3.5185 C.ar    1  UNL1       -0.0612
     19 C           0.5562    1.3700    4.7042 C.ar    1  UNL1       -0.0612
     20 C           1.9344    1.5306    4.7660 C.ar    1  UNL1       -0.0540
     21 C           2.7489    1.2554    3.6534 C.ar    1  UNL1       -0.0176
     22 C           4.1272    1.4571    3.7727 C.ar    1  UNL1       -0.0540
     23 C           4.9791    1.2083    2.7057 C.ar    1  UNL1       -0.0609
     24 C           4.4627    0.7344    1.5042 C.ar    1  UNL1       -0.0562
     25 H           3.0398   -1.6283   -1.4369 H       1  UNL1        0.0251
     26 H           4.1993   -1.5511   -0.1115 H       1  UNL1        0.0251
     27 H           2.5728   -2.1828    0.1752 H       1  UNL1        0.0251
     28 H           1.5281   -0.0867   -0.0618 H       1  UNL1        0.0546
     29 H           3.9272    0.8626   -1.5057 H       1  UNL1        0.1497
     30 H           2.7534    5.1076   -4.8332 H       1  UNL1        0.0849
     31 H           1.0782    5.5382   -2.8257 H       1  UNL1        0.0456
     32 H           0.1848    4.2275   -3.6600 H       1  UNL1        0.0456
     33 H           0.5336    4.1291   -1.9073 H       1  UNL1        0.0456
     34 H           0.2586    0.3560    1.4959 H       1  UNL1        0.0624
     35 H          -1.1037    0.8336    3.4575 H       1  UNL1        0.0618
     36 H          -0.0581    1.5873    5.5742 H       1  UNL1        0.0618
     37 H           2.3744    1.8806    5.6978 H       1  UNL1        0.0624
     38 H           4.5527    1.8242    4.7044 H       1  UNL1        0.0624
     39 H           6.0461    1.3865    2.8106 H       1  UNL1        0.0618
     40 H           5.1556    0.5508    0.6858 H       1  UNL1        0.0621
@<TRIPOS>BOND
     1     1    25    1
     2     1    26    1
     3     1    27    1
     4     3     2    1
     5     3    29    1
     6     4     3   am
     7     5     4    2
     8     6     4    1
     9     7     6   ar
    10     8     7   ar
    11     9     8   ar
    12     9    30    1
    13    10     9   ar
    14    10     6   ar
    15    11    10    1
    16    11    31    1
    17    11    32    1
    18    11    33    1
    19    12     8    1
    20    13    12    2
    21    14    12    2
    22    15     2    1
    23    16    15   ar
    24    17    16   ar
    25    17    34    1
    26    18    17   ar
    27    18    35    1
    28    19    18   ar
    29    19    36    1
    30    20    19   ar
    31    20    37    1
    32    21    20   ar
    33    21    16   ar
    34    22    21   ar
    35    22    38    1
    36    23    22   ar
    37    23    39    1
    38    24    23   ar
    39    24    15   ar
    40    24    40    1
    41     2    28    1
    42     2     1    1
