@<TRIPOS>MOLECULE
>111.sdf
 44 47 0 0 0
SMALL
GASTEIGER

@<TRIPOS>ATOM
      1 C           4.9292   -1.9643    3.4982 C.3     1  UNL1       -0.0364
      2 C           5.3116   -0.8092    2.5960 C.3     1  UNL1        0.0829
      3 C           5.1428    0.5320    3.2626 C.3     1  UNL1        0.0773
      4 O           4.8729    1.4425    2.2014 O.3     1  UNL1       -0.3407
      5 C           4.4905    0.6513    1.0479 C.3     1  UNL1        0.2185
      6 C           3.0728    1.0859    0.6356 C.3     1  UNL1        0.1018
      7 N           2.9955    2.4576    0.1917 N.ar    1  UNL1       -0.2465
      8 C           3.0380    3.5800    0.9579 C.ar    1  UNL1        0.1145
      9 N           2.8809    4.6377    0.1996 N.ar    1  UNL1       -0.2228
     10 C           2.7358    4.1008   -1.0463 C.ar    1  UNL1        0.1379
     11 N           2.7914    2.7672   -1.1032 N.ar    1  UNL1       -0.1582
     12 O           4.4357   -0.7267    1.4740 O.3     1  UNL1       -0.3379
     13 C           5.5359    0.8233   -0.0595 C.ar    1  UNL1        0.0315
     14 C           6.5735    1.7711    0.1050 C.ar    1  UNL1       -0.0486
     15 C           7.4917    2.0423   -0.9118 C.ar    1  UNL1       -0.0188
     16 C           7.3922    1.3801   -2.1278 C.ar    1  UNL1        0.1298
     17 O           8.2905    1.7496   -3.1038 O.3     1  UNL1       -0.4560
     18 C           7.8753    1.7551   -4.4179 C.ar    1  UNL1        0.1285
     19 C           6.5862    2.1149   -4.8273 C.ar    1  UNL1       -0.0180
     20 C           6.2287    2.0179   -6.1735 C.ar    1  UNL1       -0.0399
     21 C           7.1768    1.6193   -7.1135 C.ar    1  UNL1        0.0412
     22 CL          6.7289    1.4747   -8.7679 Cl      1  UNL1       -0.0835
     23 C           8.4846    1.3359   -6.7215 C.ar    1  UNL1       -0.0399
     24 C           8.8347    1.4070   -5.3710 C.ar    1  UNL1       -0.0180
     25 C           6.4401    0.3724   -2.2845 C.ar    1  UNL1       -0.0006
     26 C           5.5086    0.1080   -1.2709 C.ar    1  UNL1        0.0527
     27 CL          4.3464   -1.1254   -1.6128 Cl      1  UNL1       -0.0830
     28 H           4.9271   -2.9069    2.9422 H       1  UNL1        0.0255
     29 H           5.6233   -2.0488    4.3400 H       1  UNL1        0.0255
     30 H           3.9165   -1.8339    3.8969 H       1  UNL1        0.0255
     31 H           6.3319   -0.9411    2.2184 H       1  UNL1        0.0617
     32 H           4.2883    0.5606    3.9463 H       1  UNL1        0.0587
     33 H           6.0378    0.8474    3.8060 H       1  UNL1        0.0587
     34 H           2.6467    0.4502   -0.1480 H       1  UNL1        0.0567
     35 H           2.3915    0.9969    1.4931 H       1  UNL1        0.0567
     36 H           3.1816    3.5684    2.0316 H       1  UNL1        0.1044
     37 H           2.5787    4.7001   -1.9353 H       1  UNL1        0.1065
     38 H           6.6677    2.3395    1.0295 H       1  UNL1        0.0624
     39 H           8.2644    2.7915   -0.7576 H       1  UNL1        0.0654
     40 H           5.8414    2.4461   -4.1077 H       1  UNL1        0.0655
     41 H           5.2104    2.2466   -6.4764 H       1  UNL1        0.0633
     42 H           9.2301    1.0485   -7.4579 H       1  UNL1        0.0633
     43 H           9.8507    1.1760   -5.0615 H       1  UNL1        0.0655
     44 H           6.3959   -0.1947   -3.2110 H       1  UNL1        0.0669
@<TRIPOS>BOND
     1     1    28    1
     2     1    29    1
     3     1    30    1
     4     2     1    1
     5     2    31    1
     6     3     2    1
     7     3    32    1
     8     3    33    1
     9     4     3    1
    10     5     4    1
    11     5     6    1
    12     6    34    1
    13     6    35    1
    14     7     6    1
    15     8     7   ar
    16     8    36    1
    17     9     8   ar
    18    10     9   ar
    19    10    37    1
    20    11    10   ar
    21    11     7   ar
    22    12     5    1
    23    12     2    1
    24    13     5    1
    25    14    13   ar
    26    14    38    1
    27    15    14   ar
    28    15    39    1
    29    16    15   ar
    30    17    16    1
    31    18    17    1
    32    19    18   ar
    33    19    40    1
    34    20    19   ar
    35    20    41    1
    36    21    20   ar
    37    22    21    1
    38    23    21   ar
    39    23    42    1
    40    24    23   ar
    41    24    18   ar
    42    24    43    1
    43    25    16   ar
    44    25    44    1
    45    26    25   ar
    46    26    13   ar
    47    27    26    1
