@<TRIPOS>MOLECULE
>48.sdf
 33 35 0 0 0
SMALL
GASTEIGER

@<TRIPOS>ATOM
      1 BR          1.4694    0.9185    1.1310 Br      1  UNL1       -0.0487
      2 C           3.0459    0.2135    0.4344 C.ar    1  UNL1        0.0356
      3 C           4.0465   -0.2306    1.2119 C.ar    1  UNL1        0.0273
      4 N           5.2154   -0.7501    0.6352 N.ar    1  UNL1       -0.2784
      5 C           5.3756   -0.8390   -0.7573 C.ar    1  UNL1        0.1538
      6 N           6.5343   -1.3886   -1.0722 N.ar    1  UNL1       -0.2275
      7 C           7.1962   -1.6296    0.1108 C.ar    1  UNL1        0.1125
      8 C           8.5525   -2.2626    0.0765 C.3     1  UNL1        0.1166
      9 S           9.8764   -1.0565    0.0828 S.O2    1  UNL1        0.0026
     10 O           9.7943   -0.2432   -1.1165 O.2     1  UNL1       -0.1690
     11 O           9.9326   -0.4250    1.3872 O.2     1  UNL1       -0.1690
     12 C          11.3544   -2.0453   -0.0819 C.ar    1  UNL1        0.0886
     13 C          11.9089   -2.3017   -1.3432 C.ar    1  UNL1       -0.0369
     14 C          13.0981   -3.0308   -1.4303 C.ar    1  UNL1       -0.0600
     15 C          13.7326   -3.4842   -0.2717 C.ar    1  UNL1       -0.0616
     16 C          13.1850   -3.2065    0.9813 C.ar    1  UNL1       -0.0600
     17 C          11.9986   -2.4818    1.0774 C.ar    1  UNL1       -0.0369
     18 C           6.3841   -1.2651    1.1690 C.ar    1  UNL1        0.2248
     19 N           6.6397   -1.4012    2.5658 N.pl3   1  UNL1        0.0757
     20 O           5.7799   -1.0231    3.3607 O.2     1  UNL1       -0.1246
     21 O           7.7070   -1.9412    2.8769 O.2     1  UNL1       -0.1246
     22 C           4.3056   -0.3564   -1.5786 C.ar    1  UNL1        0.0617
     23 BR          4.4983   -0.4415   -3.4330 Br      1  UNL1       -0.0465
     24 C           3.1939    0.1469   -1.0078 C.ar    1  UNL1       -0.0288
     25 H           3.9678   -0.1945    2.2909 H       1  UNL1        0.0825
     26 H           8.7034   -2.9296    0.9313 H       1  UNL1        0.0570
     27 H           8.6589   -2.8623   -0.8317 H       1  UNL1        0.0570
     28 H          11.4411   -1.9314   -2.2522 H       1  UNL1        0.0636
     29 H          13.5443   -3.2379   -2.4017 H       1  UNL1        0.0618
     30 H          14.6634   -4.0429   -0.3419 H       1  UNL1        0.0618
     31 H          13.6906   -3.5414    1.8838 H       1  UNL1        0.0618
     32 H          11.5949   -2.2468    2.0607 H       1  UNL1        0.0636
     33 H           2.3780    0.5191   -1.6226 H       1  UNL1        0.0641
@<TRIPOS>BOND
     1     2     1    1
     2     3     2   ar
     3     3    25    1
     4     4     3   ar
     5     5     4   ar
     6     6     5   ar
     7     7     6   ar
     8     8     7    1
     9     8    26    1
    10     8    27    1
    11     9     8    1
    12    10     9    2
    13    11     9    2
    14    12     9    1
    15    13    12   ar
    16    13    28    1
    17    14    13   ar
    18    14    29    1
    19    15    14   ar
    20    15    30    1
    21    16    15   ar
    22    16    31    1
    23    17    16   ar
    24    17    12   ar
    25    17    32    1
    26    18     7   ar
    27    18     4   ar
    28    19    18    1
    29    20    19    2
    30    21    19    2
    31    22     5   ar
    32    23    22    1
    33    24    22   ar
    34    24     2   ar
    35    24    33    1
