@<TRIPOS>MOLECULE
>141.sdf
 91 96 0 0 0
SMALL
GASTEIGER

@<TRIPOS>ATOM
      1 C           5.0677    3.9062    0.5934 C.3     1  UNL1       -0.0356
      2 C           5.5431    5.2195    1.1474 C.2     1  UNL1        0.0022
      3 C           6.4878    5.3834    2.0906 C.2     1  UNL1        0.1671
      4 O           7.3065    4.3654    2.5336 O.2     1  UNL1       -0.5030
      5 C           6.6450    6.7719    2.6752 C.2     1  UNL1        0.2206
      6 O           7.6723    7.1276    3.2464 O.2     1  UNL1       -0.2840
      7 C           5.4606    7.7070    2.5710 C.2     1  UNL1       -0.0067
      8 C           4.5169    7.4893    1.6318 C.2     1  UNL1       -0.0262
      9 C           4.9046    6.4372    0.6875 C.2     1  UNL1       -0.0144
     10 C           4.8335    6.7186   -0.6175 C.2     1  UNL1       -0.0539
     11 C           4.0661    7.8511   -1.0854 C.2     1  UNL1       -0.0606
     12 C           3.0347    8.2353   -0.3032 C.2     1  UNL1       -0.0529
     13 C           3.2662    8.3681    1.2524 C.3     1  UNL1        0.0154
     14 C           3.5934    9.8516    1.6262 C.3     1  UNL1       -0.0517
     15 C           2.0080    8.0128    2.1274 C.3     1  UNL1       -0.0393
     16 C           0.6532    7.9611    1.4067 C.3     1  UNL1       -0.0455
     17 C           0.7104    7.2472    0.0380 C.3     1  UNL1       -0.0196
     18 C           1.3781    5.8467    0.2894 C.3     1  UNL1       -0.0585
     19 C          -0.7781    6.9732   -0.4650 C.3     1  UNL1       -0.0285
     20 C          -1.3422    5.5882   -0.0225 C.3     1  UNL1       -0.0355
     21 C          -2.8615    5.4499   -0.2299 C.3     1  UNL1        0.0445
     22 C          -3.6167    6.4212    0.7089 C.3     1  UNL1       -0.0512
     23 C          -3.2561    5.7922   -1.6859 C.3     1  UNL1       -0.0388
     24 C          -2.0821    6.1901   -2.5825 C.3     1  UNL1       -0.0464
     25 C          -1.0773    7.2257   -1.9773 C.3     1  UNL1       -0.0286
     26 C          -1.7679    8.6146   -2.0881 C.3     1  UNL1       -0.0593
     27 C           0.1811    7.1757   -2.8917 C.3     1  UNL1       -0.0465
     28 C           1.5603    7.4286   -2.2953 C.3     1  UNL1       -0.0429
     29 C           1.6061    8.1545   -0.9204 C.3     1  UNL1       -0.0043
     30 C           1.2542    9.6324   -1.2038 C.3     1  UNL1       -0.0553
     31 C          -3.2701    3.9872    0.1055 C.2     1  UNL1        0.2191
     32 O          -3.4101    3.0917   -0.7255 O.2     1  UNL1       -0.2752
     33 N          -3.4874    3.7067    1.4474 N.am    1  UNL1       -0.3098
     34 C          -4.5870    2.8215    1.7573 C.3     1  UNL1        0.0517
     35 C          -4.2325    1.3331    1.8790 C.3     1  UNL1       -0.0160
     36 N          -5.4970    0.5337    2.1335 N.4     1  UNL1        0.2363
     37 C          -5.2823   -0.9306    2.4099 C.3     1  UNL1       -0.0317
     38 C          -6.6986   -1.4720    2.3567 C.3     1  UNL1       -0.0077
     39 C          -7.4196   -0.6226    1.3153 C.3     1  UNL1       -0.0077
     40 C          -6.4924    0.5384    0.9960 C.3     1  UNL1       -0.0317
     41 H           4.0262    3.9616    0.2509 H       1  UNL1        0.0279
     42 H           5.6855    3.5825   -0.2479 H       1  UNL1        0.0279
     43 H           5.0950    3.1269    1.3640 H       1  UNL1        0.0279
     44 H           7.2501    3.6260    1.9036 H       1  UNL1        0.2923
     45 H           5.5042    8.5544    3.2253 H       1  UNL1        0.0660
     46 H           5.2039    6.0399   -1.3768 H       1  UNL1        0.0624
     47 H           4.0241    7.8783   -2.1691 H       1  UNL1        0.0618
     48 H           2.7289   10.5034    1.4755 H       1  UNL1        0.0241
     49 H           3.8512    9.9376    2.6875 H       1  UNL1        0.0241
     50 H           4.4335   10.2434    1.0507 H       1  UNL1        0.0241
     51 H           2.1579    7.0650    2.6574 H       1  UNL1        0.0277
     52 H           1.8819    8.7501    2.9366 H       1  UNL1        0.0277
     53 H           0.2520    8.9768    1.2862 H       1  UNL1        0.0271
     54 H          -0.0694    7.4575    2.0653 H       1  UNL1        0.0271
     55 H           0.9159    5.3233    1.1348 H       1  UNL1        0.0235
     56 H           1.3306    5.1968   -0.5893 H       1  UNL1        0.0235
     57 H           2.4217    5.9022    0.5748 H       1  UNL1        0.0235
     58 H          -1.3827    7.7078    0.0868 H       1  UNL1        0.0312
     59 H          -1.1345    5.4182    1.0393 H       1  UNL1        0.0278
     60 H          -0.8426    4.7807   -0.5646 H       1  UNL1        0.0278
     61 H          -4.6744    6.1545    0.7742 H       1  UNL1        0.0240
     62 H          -3.2003    6.4048    1.7239 H       1  UNL1        0.0240
     63 H          -3.5512    7.4550    0.3645 H       1  UNL1        0.0240
     64 H          -3.7682    4.9528   -2.1705 H       1  UNL1        0.0275
     65 H          -3.9979    6.6000   -1.7003 H       1  UNL1        0.0275
     66 H          -2.4871    6.5831   -3.5253 H       1  UNL1        0.0271
     67 H          -1.5584    5.2638   -2.8529 H       1  UNL1        0.0271
     68 H          -1.7162    9.0235   -3.1016 H       1  UNL1        0.0235
     69 H          -2.8266    8.5573   -1.8135 H       1  UNL1        0.0235
     70 H          -1.3412    9.3492   -1.4024 H       1  UNL1        0.0235
     71 H           0.2527    6.1905   -3.3753 H       1  UNL1        0.0271
     72 H           0.0442    7.8625   -3.7404 H       1  UNL1        0.0271
     73 H           2.1381    7.9781   -3.0498 H       1  UNL1        0.0274
     74 H           2.0664    6.4539   -2.2227 H       1  UNL1        0.0274
     75 H           2.1311   10.1570   -1.6129 H       1  UNL1        0.0238
     76 H           0.5082    9.7544   -1.9834 H       1  UNL1        0.0238
     77 H           0.9424   10.1882   -0.3194 H       1  UNL1        0.0238
     78 H          -3.2774    4.4322    2.1221 H       1  UNL1        0.1489
     79 H          -5.3426    2.9628    0.9762 H       1  UNL1        0.0515
     80 H          -5.0315    3.1770    2.6936 H       1  UNL1        0.0515
     81 H          -3.7481    0.9292    0.9839 H       1  UNL1        0.0830
     82 H          -3.5804    1.1707    2.7440 H       1  UNL1        0.0830
     83 H          -5.9600    0.9290    2.9633 H       1  UNL1        0.2034
     84 H          -4.8064   -1.0436    3.3874 H       1  UNL1        0.0814
     85 H          -4.6527   -1.3391    1.6122 H       1  UNL1        0.0814
     86 H          -7.1848   -1.3402    3.3317 H       1  UNL1        0.0319
     87 H          -6.7299   -2.5385    2.1171 H       1  UNL1        0.0319
     88 H          -8.3719   -0.2569    1.7166 H       1  UNL1        0.0319
     89 H          -7.6490   -1.1935    0.4099 H       1  UNL1        0.0319
     90 H          -7.0106    1.5003    0.9804 H       1  UNL1        0.0814
     91 H          -5.9392    0.3739    0.0650 H       1  UNL1        0.0814
@<TRIPOS>UNITY_ATOM_ATTR
36 1
charge 1
@<TRIPOS>BOND
     1     1    41    1
     2     1    42    1
     3     1    43    1
     4     2     1    1
     5     3     2    2
     6     4     3    1
     7     4    44    1
     8     5     3    1
     9     6     5    2
    10     7     5    1
    11     7    45    1
    12     8     7    2
    13     9     8    1
    14     9     2    1
    15    10     9    2
    16    10    46    1
    17    11    10    1
    18    11    47    1
    19    12    11    2
    20    13    12    1
    21    13     8    1
    22    13    14    1
    23    14    48    1
    24    14    49    1
    25    14    50    1
    26    15    13    1
    27    15    51    1
    28    15    52    1
    29    16    15    1
    30    16    53    1
    31    16    54    1
    32    17    16    1
    33    17    18    1
    34    18    55    1
    35    18    56    1
    36    18    57    1
    37    19    17    1
    38    19    58    1
    39    20    19    1
    40    20    59    1
    41    20    60    1
    42    21    20    1
    43    22    61    1
    44    22    62    1
    45    22    63    1
    46    23    21    1
    47    23    64    1
    48    23    65    1
    49    24    23    1
    50    24    66    1
    51    24    67    1
    52    25    24    1
    53    25    19    1
    54    25    26    1
    55    26    68    1
    56    26    69    1
    57    26    70    1
    58    27    25    1
    59    27    71    1
    60    27    72    1
    61    28    27    1
    62    28    73    1
    63    28    74    1
    64    29    28    1
    65    29    12    1
    66    29    17    1
    67    29    30    1
    68    30    75    1
    69    30    76    1
    70    30    77    1
    71    32    31    2
    72    33    31   am
    73    33    78    1
    74    34    33    1
    75    34    79    1
    76    34    80    1
    77    35    34    1
    78    35    81    1
    79    35    82    1
    80    36    35    1
    81    36    83    1
    82    37    36    1
    83    37    84    1
    84    37    85    1
    85    38    37    1
    86    38    86    1
    87    38    87    1
    88    39    38    1
    89    39    88    1
    90    39    89    1
    91    40    39    1
    92    40    36    1
    93    40    90    1
    94    40    91    1
    95    21    31    1
    96    21    22    1
