@<TRIPOS>MOLECULE
>177.sdf
 26 28 0 0 0
SMALL
GASTEIGER

@<TRIPOS>ATOM
      1 CL         -2.0456    0.1193   -0.1413 Cl      1  UNL1       -0.0835
      2 C          -0.3267    0.0993   -0.1348 C.ar    1  UNL1        0.0410
      3 C           0.3715    1.0241    0.6449 C.ar    1  UNL1       -0.0427
      4 C           1.7706    1.0050    0.6638 C.ar    1  UNL1       -0.0482
      5 C           2.4751    0.0704   -0.1121 C.ar    1  UNL1        0.0372
      6 C           1.7583   -0.8625   -0.8783 C.ar    1  UNL1       -0.0482
      7 C           0.3596   -0.8441   -0.8897 C.ar    1  UNL1       -0.0427
      8 C           3.9666   -0.0245   -0.1034 C.2     1  UNL1        0.2497
      9 O           4.4786   -1.1006   -0.3924 O.2     1  UNL1       -0.2698
     10 N           4.6346    1.1279    0.2457 N.am    1  UNL1       -0.2606
     11 C           5.9799    1.1344    0.5033 C.ar    1  UNL1        0.1672
     12 N           6.8652    0.1875    0.3250 N.ar    1  UNL1       -0.2214
     13 C           8.0685    0.5920    0.8673 C.ar    1  UNL1        0.1168
     14 C           8.0583    1.8561    1.4427 C.ar    1  UNL1        0.1342
     15 S           6.5286    2.5802    1.2314 S.2     1  UNL1       -0.0322
     16 N           9.0692    2.4651    2.0853 N.ar    1  UNL1       -0.2085
     17 C          10.1596    1.6852    2.1157 C.ar    1  UNL1        0.2238
     18 CL         11.4978    2.3162    2.9722 Cl      1  UNL1       -0.0410
     19 N          10.3342    0.4628    1.5809 N.ar    1  UNL1       -0.2237
     20 C           9.2799   -0.0939    0.9391 C.ar    1  UNL1        0.0588
     21 H          -0.1731    1.7450    1.2476 H       1  UNL1        0.0632
     22 H           2.2786    1.7060    1.3201 H       1  UNL1        0.0625
     23 H           2.2886   -1.6146   -1.4604 H       1  UNL1        0.0625
     24 H          -0.1800   -1.5750   -1.4876 H       1  UNL1        0.0632
     25 H           4.1474    1.9926    0.4196 H       1  UNL1        0.1571
     26 H           9.4193   -1.0805    0.5134 H       1  UNL1        0.0853
@<TRIPOS>BOND
     1     2     1    1
     2     3     2   ar
     3     3    21    1
     4     4     3   ar
     5     4    22    1
     6     5     4   ar
     7     6     5   ar
     8     6    23    1
     9     7     6   ar
    10     7     2   ar
    11     7    24    1
    12     8     5    1
    13     9     8    2
    14    10     8   am
    15    10    25    1
    16    11    10    1
    17    12    11   ar
    18    13    12   ar
    19    14    13   ar
    20    15    14   ar
    21    15    11   ar
    22    16    14   ar
    23    17    16   ar
    24    18    17    1
    25    19    17   ar
    26    20    19   ar
    27    20    13   ar
    28    20    26    1
