@<TRIPOS>MOLECULE
>53.sdf
 39 41 0 0 0
SMALL
GASTEIGER

@<TRIPOS>ATOM
      1 O           1.8676    0.5293   -1.6542 O.co2   1  UNL1       -0.6178
      2 N           2.9270    0.3014   -0.9613 N.ar    1  UNL1       -0.1385
      3 C           3.3672    1.3019   -0.0863 C.ar    1  UNL1        0.3748
      4 N           2.5629    2.4890   -0.0366 N.am    1  UNL1       -0.2247
      5 C           3.0846    3.7241   -0.4077 C.2     1  UNL1        0.2246
      6 O           4.2844    3.8999   -0.5952 O.2     1  UNL1       -0.2750
      7 C           2.0123    4.8207   -0.6064 C.3     1  UNL1        0.0360
      8 C           1.0614    4.4611   -1.7625 C.3     1  UNL1       -0.0419
      9 C           0.0093    5.5383   -2.0188 C.3     1  UNL1       -0.0524
     10 C           0.6422    6.9010   -2.2617 C.3     1  UNL1       -0.0530
     11 C           1.5717    7.2848   -1.1157 C.3     1  UNL1       -0.0524
     12 C           2.6327    6.2092   -0.8566 C.3     1  UNL1       -0.0419
     13 C           4.4846    1.0685    0.7244 C.ar    1  UNL1        0.3866
     14 C           4.9199    1.9798    1.7262 C.1     1  UNL1        0.1788
     15 N           5.2293    2.7165    2.5724 N.1     1  UNL1       -0.1844
     16 N           5.1441   -0.1592    0.6820 N.ar    1  UNL1       -0.1424
     17 O           6.1089   -0.4159    1.4765 O.co2   1  UNL1       -0.6182
     18 C           4.7326   -1.1537   -0.2341 C.ar    1  UNL1        0.2945
     19 C           3.6291   -0.9152   -1.0773 C.ar    1  UNL1        0.2936
     20 C           3.2499   -1.9116   -2.0081 C.ar    1  UNL1        0.0193
     21 C           3.9493   -3.1203   -2.0966 C.ar    1  UNL1       -0.0367
     22 C           5.0197   -3.3604   -1.2435 C.ar    1  UNL1        0.0477
     23 CL          5.8774   -4.8466   -1.3409 Cl      1  UNL1       -0.0833
     24 C           5.4051   -2.3963   -0.3157 C.ar    1  UNL1        0.0362
     25 H           1.6455    2.3031   -0.4462 H       1  UNL1        0.1606
     26 H           1.4371    4.8729    0.3281 H       1  UNL1        0.0394
     27 H           1.6461    4.2983   -2.6770 H       1  UNL1        0.0272
     28 H           0.5361    3.5225   -1.5611 H       1  UNL1        0.0272
     29 H          -0.6000    5.2563   -2.8852 H       1  UNL1        0.0265
     30 H          -0.6696    5.5984   -1.1591 H       1  UNL1        0.0265
     31 H           1.2048    6.8826   -3.2032 H       1  UNL1        0.0265
     32 H          -0.1432    7.6576   -2.3762 H       1  UNL1        0.0265
     33 H           2.0574    8.2399   -1.3477 H       1  UNL1        0.0265
     34 H           0.9790    7.4437   -0.2062 H       1  UNL1        0.0265
     35 H           3.2435    6.5092    0.0032 H       1  UNL1        0.0272
     36 H           3.3103    6.1671   -1.7192 H       1  UNL1        0.0272
     37 H           2.4075   -1.7370   -2.6780 H       1  UNL1        0.0686
     38 H           3.6521   -3.8663   -2.8301 H       1  UNL1        0.0634
     39 H           6.2433   -2.5990    0.3523 H       1  UNL1        0.0701
@<TRIPOS>UNITY_ATOM_ATTR
1 1
charge -1
2 1
charge 1
16 1
charge 1
17 1
charge -1
@<TRIPOS>BOND
     1     2     1    1
     2     3     2   ar
     3     4     3    1
     4     4    25    1
     5     5     4   am
     6     6     5    2
     7     7     5    1
     8     7    26    1
     9     8     7    1
    10     8    27    1
    11     8    28    1
    12     9     8    1
    13     9    29    1
    14     9    30    1
    15    10     9    1
    16    10    31    1
    17    10    32    1
    18    11    10    1
    19    11    33    1
    20    11    34    1
    21    12    11    1
    22    12     7    1
    23    12    35    1
    24    12    36    1
    25    13     3   ar
    26    14    13    1
    27    15    14    3
    28    16    13   ar
    29    17    16    1
    30    18    16   ar
    31    19    18   ar
    32    19     2   ar
    33    20    19   ar
    34    20    37    1
    35    21    20   ar
    36    21    38    1
    37    22    21   ar
    38    23    22    1
    39    24    22   ar
    40    24    18   ar
    41    24    39    1
