@<TRIPOS>MOLECULE
>59.sdf
 52 56 0 0 0
SMALL
GASTEIGER

@<TRIPOS>ATOM
      1 C           3.7671    1.1776    3.1666 C.3     1  UNL1        0.0788
      2 O           3.3912    1.4629    1.8340 O.3     1  UNL1       -0.4951
      3 C           3.9937    2.4815    1.1615 C.ar    1  UNL1        0.1201
      4 C           5.1655    3.1860    1.4564 C.ar    1  UNL1       -0.0193
      5 C           5.6391    4.2562    0.6130 C.ar    1  UNL1       -0.0490
      6 C           4.9333    4.6453   -0.5362 C.ar    1  UNL1        0.0026
      7 C           3.8008    3.8232   -0.8156 C.ar    1  UNL1       -0.0490
      8 C           3.3341    2.7944   -0.0048 C.ar    1  UNL1       -0.0193
      9 C           5.2018    5.7343   -1.5376 C.ar    1  UNL1        0.0957
     10 C           5.8955    6.9974   -1.5885 C.ar    1  UNL1        0.0738
     11 N           6.3625    7.9367   -0.6687 N.ar    1  UNL1       -0.3525
     12 C           6.1439    9.2277   -1.1889 C.ar    1  UNL1        0.0475
     13 C           6.0806    9.1013   -2.5696 C.ar    1  UNL1        0.0075
     14 C           5.7568   10.2092   -3.3937 C.ar    1  UNL1       -0.0520
     15 C           5.3130   11.3814   -2.7898 C.ar    1  UNL1       -0.0611
     16 C           5.3271   11.4877   -1.4016 C.ar    1  UNL1       -0.0598
     17 C           5.8218   10.4513   -0.5768 C.ar    1  UNL1       -0.0378
     18 C           5.9215    7.7054   -2.8320 C.ar    1  UNL1        0.0117
     19 C           5.1638    7.1688   -3.8946 C.ar    1  UNL1       -0.0214
     20 C           4.0179    6.6831   -3.3274 C.ar    1  UNL1        0.1267
     21 N           4.2933    5.6165   -2.5910 N.ar    1  UNL1       -0.2400
     22 C           3.0350    7.6393   -2.5786 C.2     1  UNL1        0.2627
     23 O           3.3304    8.4692   -1.7290 O.2     1  UNL1       -0.2685
     24 N           1.6879    7.5374   -2.8691 N.am    1  UNL1       -0.3060
     25 C           0.8992    6.7560   -1.9221 C.3     1  UNL1        0.0372
     26 C          -0.5780    7.0291   -2.0997 C.ar    1  UNL1       -0.0303
     27 C          -1.3092    6.3349   -3.0699 C.ar    1  UNL1       -0.0571
     28 C          -2.6583    6.5984   -3.2793 C.ar    1  UNL1       -0.0615
     29 C          -3.3102    7.5713   -2.5177 C.ar    1  UNL1       -0.0617
     30 C          -2.5943    8.2747   -1.5612 C.ar    1  UNL1       -0.0615
     31 C          -1.2438    8.0125   -1.3384 C.ar    1  UNL1       -0.0571
     32 H           4.8168    0.8854    3.2283 H       1  UNL1        0.0660
     33 H           3.5351    2.0128    3.8337 H       1  UNL1        0.0660
     34 H           3.1647    0.3204    3.4936 H       1  UNL1        0.0660
     35 H           5.7526    2.9074    2.3284 H       1  UNL1        0.0654
     36 H           6.5844    4.7260    0.8746 H       1  UNL1        0.0625
     37 H           3.2221    3.9666   -1.7274 H       1  UNL1        0.0625
     38 H           2.4441    2.2467   -0.3048 H       1  UNL1        0.0654
     39 H           6.4089    7.7696    0.3238 H       1  UNL1        0.1660
     40 H           5.6321   10.0778   -4.4689 H       1  UNL1        0.0624
     41 H           4.8664   12.1606   -3.4022 H       1  UNL1        0.0618
     42 H           4.8760   12.3674   -0.9465 H       1  UNL1        0.0618
     43 H           5.7634   10.5487    0.5001 H       1  UNL1        0.0638
     44 H           5.7288    6.4308   -4.4792 H       1  UNL1        0.0647
     45 H           1.3602    8.4896   -2.7415 H       1  UNL1        0.1494
     46 H           1.1180    5.6934   -2.0834 H       1  UNL1        0.0512
     47 H           1.2075    6.9911   -0.8937 H       1  UNL1        0.0512
     48 H          -0.8101    5.5743   -3.6721 H       1  UNL1        0.0621
     49 H          -3.2030    6.0472   -4.0414 H       1  UNL1        0.0618
     50 H          -4.3562    7.7855   -2.6986 H       1  UNL1        0.0618
     51 H          -3.1115    9.0404   -0.9664 H       1  UNL1        0.0618
     52 H          -0.7163    8.5807   -0.5751 H       1  UNL1        0.0621
@<TRIPOS>BOND
     1     1    32    1
     2     1    33    1
     3     1    34    1
     4     2     1    1
     5     3     2    1
     6     4     3   ar
     7     4    35    1
     8     5     4   ar
     9     5    36    1
    10     6     5   ar
    11     7     6   ar
    12     7    37    1
    13     8     7   ar
    14     8     3   ar
    15     8    38    1
    16     9     6    1
    17    10     9   ar
    18    11    10   ar
    19    11    39    1
    20    12    11   ar
    21    13    12   ar
    22    14    13   ar
    23    14    40    1
    24    15    14   ar
    25    15    41    1
    26    16    15   ar
    27    16    42    1
    28    17    16   ar
    29    17    12   ar
    30    17    43    1
    31    18    13   ar
    32    18    10   ar
    33    19    18   ar
    34    19    44    1
    35    20    19   ar
    36    21    20   ar
    37    21     9   ar
    38    22    20    1
    39    23    22    2
    40    24    22   am
    41    24    45    1
    42    25    24    1
    43    25    46    1
    44    25    47    1
    45    26    25    1
    46    27    26   ar
    47    27    48    1
    48    28    27   ar
    49    28    49    1
    50    29    28   ar
    51    29    50    1
    52    30    29   ar
    53    30    51    1
    54    31    30   ar
    55    31    26   ar
    56    31    52    1
