@<TRIPOS>MOLECULE
>169.sdf
 39 41 0 0 0
SMALL
GASTEIGER

@<TRIPOS>ATOM
      1 C           1.8899    0.6511    0.4192 C.3     1  UNL1        0.0788
      2 O           2.9865    0.8276   -0.4693 O.3     1  UNL1       -0.4951
      3 C           3.5087   -0.3021   -1.0364 C.ar    1  UNL1        0.1201
      4 C           3.0641   -1.6073   -0.8242 C.ar    1  UNL1       -0.0197
      5 C           3.7047   -2.6832   -1.4511 C.ar    1  UNL1       -0.0551
      6 C           4.8014   -2.4705   -2.2926 C.ar    1  UNL1       -0.0471
      7 C           5.5204   -3.6336   -2.9310 C.3     1  UNL1       -0.0273
      8 C           4.9316   -4.0069   -4.2950 C.3     1  UNL1       -0.0415
      9 C           5.6992   -5.1423   -5.0113 C.3     1  UNL1        0.0117
     10 C           7.1557   -4.7247   -5.3038 C.3     1  UNL1        0.0971
     11 O           7.8069   -5.3948   -6.3786 O.3     1  UNL1       -0.4632
     12 C           7.0720   -5.6007   -7.4605 C.ar    1  UNL1        0.3003
     13 N           7.5565   -5.7844   -8.6658 N.ar    1  UNL1       -0.1709
     14 C           6.4511   -6.0905   -9.4414 C.ar    1  UNL1        0.2357
     15 C           5.2976   -6.1064   -8.6783 C.ar    1  UNL1        0.0585
     16 N           5.7206   -5.7527   -7.4305 N.ar    1  UNL1       -0.2984
     17 C           4.9132   -5.5933   -6.2519 C.3     1  UNL1        0.0335
     18 N           6.5686   -6.3673  -10.8528 N.pl3   1  UNL1        0.0767
     19 O           5.5225   -6.7034  -11.4394 O.2     1  UNL1       -0.1246
     20 O           7.6791   -6.2365  -11.3846 O.2     1  UNL1       -0.1246
     21 C           5.2280   -1.1564   -2.5241 C.ar    1  UNL1       -0.0551
     22 C           4.5872   -0.0845   -1.8959 C.ar    1  UNL1       -0.0197
     23 H           1.0269    0.2262   -0.1038 H       1  UNL1        0.0660
     24 H           2.1716    0.0373    1.2814 H       1  UNL1        0.0660
     25 H           1.5994    1.6371    0.7949 H       1  UNL1        0.0660
     26 H           2.2272   -1.8248   -0.1697 H       1  UNL1        0.0654
     27 H           3.3463   -3.6927   -1.2616 H       1  UNL1        0.0621
     28 H           6.5826   -3.3770   -3.0220 H       1  UNL1        0.0313
     29 H           5.4769   -4.5004   -2.2595 H       1  UNL1        0.0313
     30 H           3.8825   -4.3112   -4.1582 H       1  UNL1        0.0273
     31 H           4.9089   -3.1227   -4.9439 H       1  UNL1        0.0273
     32 H           5.7371   -6.0067   -4.3335 H       1  UNL1        0.0351
     33 H           7.2382   -3.6446   -5.4722 H       1  UNL1        0.0701
     34 H           7.7569   -4.9420   -4.4111 H       1  UNL1        0.0701
     35 H           4.2686   -6.3324   -8.9201 H       1  UNL1        0.0850
     36 H           4.4385   -6.5629   -6.0576 H       1  UNL1        0.0497
     37 H           4.1192   -4.8834   -6.5116 H       1  UNL1        0.0497
     38 H           6.0728   -0.9539   -3.1795 H       1  UNL1        0.0621
     39 H           4.9365    0.9309   -2.0712 H       1  UNL1        0.0654
@<TRIPOS>BOND
     1     1    23    1
     2     1    24    1
     3     1    25    1
     4     2     1    1
     5     3     2    1
     6     4     3   ar
     7     4    26    1
     8     5     4   ar
     9     5    27    1
    10     6     5   ar
    11     7     6    1
    12     7    28    1
    13     7    29    1
    14     8     7    1
    15     8    30    1
    16     8    31    1
    17     9     8    1
    18     9    32    1
    19    10     9    1
    20    10    33    1
    21    10    34    1
    22    11    10    1
    23    12    11    1
    24    13    12   ar
    25    14    13   ar
    26    15    14   ar
    27    15    35    1
    28    16    15   ar
    29    16    12   ar
    30    17    16    1
    31    17     9    1
    32    17    36    1
    33    17    37    1
    34    18    14    1
    35    19    18    2
    36    20    18    2
    37    21     6   ar
    38    21    38    1
    39    22    21   ar
    40    22     3   ar
    41    22    39    1
