@<TRIPOS>MOLECULE
>98.sdf
 51 51 0 0 0
SMALL
GASTEIGER

@<TRIPOS>ATOM
      1 C           9.1936    3.7703   -4.4334 C.3     1  UNL1       -0.0653
      2 C           8.6772    2.8307   -3.3584 C.3     1  UNL1       -0.0559
      3 C           9.1638    1.4049   -3.5957 C.3     1  UNL1       -0.0533
      4 C           8.6417    0.4675   -2.5121 C.3     1  UNL1       -0.0531
      5 C           9.1220   -0.9577   -2.7503 C.3     1  UNL1       -0.0531
      6 C           8.5936   -1.8900   -1.6631 C.3     1  UNL1       -0.0531
      7 C           9.0876   -3.3088   -1.9062 C.3     1  UNL1       -0.0530
      8 C           8.5952   -4.2679   -0.8251 C.3     1  UNL1       -0.0514
      9 C           9.0726   -5.6991   -1.0641 C.3     1  UNL1       -0.0332
     10 C          10.5928   -5.8275   -1.0608 C.3     1  UNL1        0.0469
     11 N          11.0016   -7.2021   -1.3467 N.ar    1  UNL1       -0.2114
     12 C          11.2882   -7.7315   -2.5956 C.ar    1  UNL1        0.1016
     13 C          11.6900   -9.0202   -2.3570 C.ar    1  UNL1        0.2667
     14 C          12.1780  -10.0732   -3.2731 C.3     1  UNL1        0.1801
     15 O          13.4996  -10.4996   -2.9050 O.3     1  UNL1       -0.4538
     16 C          14.4908   -9.6561   -3.3043 C.2     1  UNL1        0.3044
     17 C          15.8406  -10.1503   -2.8852 C.3     1  UNL1        0.0332
     18 O          14.2896   -8.6015   -3.8960 O.2     1  UNL1       -0.2512
     19 N          11.5731   -9.1404   -0.9613 N.ar    1  UNL1       -0.0663
     20 C          11.8547  -10.3111   -0.1359 C.3     1  UNL1        0.1683
     21 N          11.1666   -8.0423   -0.3417 N.ar    1  UNL1        0.0946
     22 H           8.8362    4.7877   -4.2502 H       1  UNL1        0.0230
     23 H          10.2880    3.7880   -4.4427 H       1  UNL1        0.0230
     24 H           8.8463    3.4583   -5.4235 H       1  UNL1        0.0230
     25 H           9.0154    3.1811   -2.3762 H       1  UNL1        0.0263
     26 H           7.5811    2.8536   -3.3517 H       1  UNL1        0.0263
     27 H           8.8260    1.0561   -4.5793 H       1  UNL1        0.0265
     28 H          10.2608    1.3836   -3.6048 H       1  UNL1        0.0265
     29 H           8.9836    0.8113   -1.5285 H       1  UNL1        0.0265
     30 H           7.5451    0.4877   -2.5008 H       1  UNL1        0.0265
     31 H           8.7848   -1.3062   -3.7336 H       1  UNL1        0.0265
     32 H          10.2184   -0.9819   -2.7579 H       1  UNL1        0.0265
     33 H           8.9353   -1.5436   -0.6813 H       1  UNL1        0.0265
     34 H           7.4973   -1.8724   -1.6530 H       1  UNL1        0.0265
     35 H           8.7506   -3.6586   -2.8894 H       1  UNL1        0.0265
     36 H          10.1822   -3.2864   -1.9268 H       1  UNL1        0.0265
     37 H           8.9307   -3.9256    0.1611 H       1  UNL1        0.0266
     38 H           7.4976   -4.2618   -0.8069 H       1  UNL1        0.0266
     39 H           8.6521   -6.3491   -0.2869 H       1  UNL1        0.0283
     40 H           8.6729   -6.0637   -2.0186 H       1  UNL1        0.0283
     41 H          11.0525   -5.1993   -1.8302 H       1  UNL1        0.0510
     42 H          11.0103   -5.5192   -0.0953 H       1  UNL1        0.0510
     43 H          11.1864   -7.1145   -3.4691 H       1  UNL1        0.0893
     44 H          11.5118  -10.9384   -3.1938 H       1  UNL1        0.0812
     45 H          12.1466   -9.7342   -4.3158 H       1  UNL1        0.0812
     46 H          16.4503  -10.3455   -3.7698 H       1  UNL1        0.0342
     47 H          16.3151   -9.3946   -2.2526 H       1  UNL1        0.0342
     48 H          15.7573  -11.0748   -2.3055 H       1  UNL1        0.0342
     49 H          12.6486  -10.0656    0.5750 H       1  UNL1        0.1018
     50 H          10.9449  -10.5916    0.4024 H       1  UNL1        0.1018
     51 H          12.1721  -11.1541   -0.7518 H       1  UNL1        0.1018
@<TRIPOS>UNITY_ATOM_ATTR
19 1
charge 1
@<TRIPOS>BOND
     1     1    22    1
     2     1    23    1
     3     1    24    1
     4     2     1    1
     5     2    25    1
     6     2    26    1
     7     3     2    1
     8     3    27    1
     9     3    28    1
    10     4     3    1
    11     4    29    1
    12     4    30    1
    13     5     4    1
    14     5    31    1
    15     5    32    1
    16     6     5    1
    17     6    33    1
    18     6    34    1
    19     7     6    1
    20     7    35    1
    21     7    36    1
    22     8     7    1
    23     8    37    1
    24     8    38    1
    25     9     8    1
    26     9    39    1
    27     9    40    1
    28    10     9    1
    29    10    41    1
    30    10    42    1
    31    11    10    1
    32    12    11   ar
    33    12    43    1
    34    13    12   ar
    35    14    13    1
    36    14    44    1
    37    14    45    1
    38    15    14    1
    39    16    15    1
    40    17    16    1
    41    17    46    1
    42    17    47    1
    43    17    48    1
    44    18    16    2
    45    19    13   ar
    46    20    19    1
    47    20    49    1
    48    20    50    1
    49    20    51    1
    50    21    19   ar
    51    21    11   ar
