@<TRIPOS>MOLECULE
>9.sdf
 25 25 0 0 0
SMALL
GASTEIGER

@<TRIPOS>ATOM
      1 C           1.3375   -0.0928    0.7541 C.3     1  UNL1        0.0788
      2 O           2.5029    0.0389   -0.0547 O.3     1  UNL1       -0.4951
      3 C           3.1221    1.2589   -0.0336 C.ar    1  UNL1        0.1201
      4 C           2.6949    2.3698    0.6939 C.ar    1  UNL1       -0.0194
      5 C           3.4126    3.5644    0.6359 C.ar    1  UNL1       -0.0496
      6 C           4.5632    3.6589   -0.1534 C.ar    1  UNL1       -0.0052
      7 C           5.2922    4.9406   -0.2316 C.2     1  UNL1        0.0528
      8 N           4.8729    5.9823    0.4158 N.2     1  UNL1       -0.1885
      9 N           5.6092    7.1163    0.2519 N.am    1  UNL1       -0.2186
     10 C           5.2632    8.2763    0.8904 C.2     1  UNL1        0.1473
     11 N           4.1743    8.2027    1.6900 N.am    1  UNL1       -0.3394
     12 S           6.1208    9.6852    0.6991 S.2     1  UNL1       -0.0174
     13 C           5.0051    2.5508   -0.8780 C.ar    1  UNL1       -0.0496
     14 C           4.2776    1.3553   -0.8161 C.ar    1  UNL1       -0.0194
     15 H           1.5559    0.1239    1.8055 H       1  UNL1        0.0660
     16 H           0.5293    0.5454    0.3802 H       1  UNL1        0.0660
     17 H           0.9999   -1.1313    0.6961 H       1  UNL1        0.0660
     18 H           1.8030    2.3452    1.3140 H       1  UNL1        0.0654
     19 H           3.0620    4.4209    1.2101 H       1  UNL1        0.0625
     20 H           6.1953    4.9679   -0.8672 H       1  UNL1        0.0851
     21 H           6.4146    7.1282   -0.3661 H       1  UNL1        0.1762
     22 H           3.8225    9.0076    2.1843 H       1  UNL1        0.1440
     23 H           3.6871    7.3142    1.7193 H       1  UNL1        0.1440
     24 H           5.8981    2.6015   -1.4910 H       1  UNL1        0.0625
     25 H           4.6141    0.4918   -1.3857 H       1  UNL1        0.0654
@<TRIPOS>BOND
     1     1    15    1
     2     1    16    1
     3     1    17    1
     4     2     1    1
     5     3     2    1
     6     4     3   ar
     7     4    18    1
     8     5     4   ar
     9     5    19    1
    10     6     5   ar
    11     7     6    1
    12     7    20    1
    13     8     7    2
    14     9     8    1
    15     9    21    1
    16    10     9    1
    17    11    10    1
    18    11    22    1
    19    11    23    1
    20    12    10    2
    21    13     6   ar
    22    13    24    1
    23    14    13   ar
    24    14     3   ar
    25    14    25    1
