@<TRIPOS>MOLECULE
>76.sdf
 64 70 0 0 0
SMALL
GASTEIGER

@<TRIPOS>ATOM
      1 C          10.9227   -0.1415    4.3058 C.3     1  UNL1        0.0790
      2 O          10.6892   -1.5415    4.3490 O.3     1  UNL1       -0.4915
      3 C           9.5634   -2.0484    3.7643 C.ar    1  UNL1        0.1615
      4 C           8.6462   -1.3955    2.9214 C.ar    1  UNL1        0.1618
      5 O           8.8422   -0.0997    2.5414 O.3     1  UNL1       -0.4914
      6 C           8.1853    0.2880    1.3347 C.3     1  UNL1        0.0790
      7 C           7.5345   -2.1074    2.4768 C.ar    1  UNL1       -0.0122
      8 C           7.3491   -3.4699    2.7292 C.ar    1  UNL1       -0.0316
      9 C           8.2966   -4.1248    3.5187 C.ar    1  UNL1       -0.0540
     10 C           9.3802   -3.4135    4.0428 C.ar    1  UNL1       -0.0160
     11 C           6.1716   -4.1344    2.0493 C.3     1  UNL1        0.0444
     12 C           6.5617   -5.2262    1.1151 C.2     1  UNL1        0.0239
     13 C           6.4081   -6.5366    1.3651 C.2     1  UNL1        0.0171
     14 C           6.6770   -7.4205    0.1909 C.3     1  UNL1       -0.0071
     15 C           7.0717   -6.4540   -0.9301 C.3     1  UNL1        0.0154
     16 C           6.9036   -5.1015   -0.2928 C.2     1  UNL1        0.1619
     17 O           6.9945   -4.0293   -0.8702 O.2     1  UNL1       -0.2923
     18 N           5.8872   -6.9885    2.5718 N.pl3   1  UNL1       -0.3021
     19 C           5.3057   -6.0544    3.3894 C.ar    1  UNL1        0.1310
     20 C           5.3311   -4.6957    3.1402 C.ar    1  UNL1        0.0322
     21 C           4.2876   -4.1879    3.9209 C.ar    1  UNL1        0.1011
     22 N           3.7492   -5.1218    4.7310 N.ar    1  UNL1       -0.1643
     23 N           4.4647   -6.2526    4.4650 N.ar    1  UNL1       -0.2175
     24 C           4.2405   -7.4710    5.1550 C.ar    1  UNL1        0.0689
     25 C           3.0003   -7.7312    5.7395 C.ar    1  UNL1       -0.0347
     26 C           2.7394   -9.0098    6.2415 C.ar    1  UNL1       -0.0400
     27 C           3.7242  -10.0051    6.1992 C.ar    1  UNL1        0.0594
     28 CL          3.3025  -11.5879    6.7431 Cl      1  UNL1       -0.0820
     29 C           4.9952   -9.7060    5.6988 C.ar    1  UNL1        0.0613
     30 CL          6.2779  -10.8603    5.6450 Cl      1  UNL1       -0.0820
     31 C           5.2553   -8.4352    5.1890 C.ar    1  UNL1       -0.0164
     32 C           3.6973   -2.8463    3.8075 C.ar    1  UNL1        0.0275
     33 C           3.2943   -2.0819    4.8933 C.ar    1  UNL1        0.0120
     34 N           1.9156   -2.0838    4.7206 N.ar    1  UNL1       -0.3600
     35 C           1.6627   -1.9991    3.3657 C.ar    1  UNL1        0.0471
     36 C           2.8286   -2.4502    2.7316 C.ar    1  UNL1        0.0089
     37 C           2.8023   -2.5623    1.3253 C.ar    1  UNL1       -0.0520
     38 C           1.6578   -2.1645    0.6191 C.ar    1  UNL1       -0.0611
     39 C           0.5100   -1.7550    1.2923 C.ar    1  UNL1       -0.0598
     40 C           0.4807   -1.6950    2.6859 C.ar    1  UNL1       -0.0378
     41 H          11.3850    0.1338    3.3523 H       1  UNL1        0.0660
     42 H          10.0216    0.4435    4.5112 H       1  UNL1        0.0660
     43 H          11.6328    0.0978    5.1035 H       1  UNL1        0.0660
     44 H           8.4202   -0.4018    0.5112 H       1  UNL1        0.0660
     45 H           7.0965    0.3609    1.4724 H       1  UNL1        0.0660
     46 H           8.5299    1.2841    1.0468 H       1  UNL1        0.0660
     47 H           6.7493   -1.6148    1.9026 H       1  UNL1        0.0658
     48 H           8.2090   -5.1864    3.7432 H       1  UNL1        0.0622
     49 H          10.1080   -3.9236    4.6722 H       1  UNL1        0.0655
     50 H           5.5935   -3.4000    1.4860 H       1  UNL1        0.0449
     51 H           5.7749   -7.9817   -0.0829 H       1  UNL1        0.0330
     52 H           7.4789   -8.1343    0.4002 H       1  UNL1        0.0330
     53 H           8.1076   -6.5934   -1.2338 H       1  UNL1        0.0349
     54 H           6.4025   -6.5525   -1.7917 H       1  UNL1        0.0349
     55 H           5.5995   -7.9666    2.5865 H       1  UNL1        0.1533
     56 H           2.2127   -6.9790    5.7455 H       1  UNL1        0.0639
     57 H           1.7514   -9.2357    6.6361 H       1  UNL1        0.0633
     58 H           6.2593   -8.2025    4.8377 H       1  UNL1        0.0654
     59 H           3.7010   -1.1187    5.1890 H       1  UNL1        0.0814
     60 H           1.2761   -2.5126    5.3742 H       1  UNL1        0.1654
     61 H           3.6629   -2.9106    0.7666 H       1  UNL1        0.0624
     62 H           1.6590   -2.1997   -0.4679 H       1  UNL1        0.0618
     63 H          -0.3814   -1.4918    0.7281 H       1  UNL1        0.0618
     64 H          -0.4213   -1.4110    3.2173 H       1  UNL1        0.0638
@<TRIPOS>BOND
     1     1    41    1
     2     1    42    1
     3     1    43    1
     4     2     1    1
     5     3     2    1
     6     4     3   ar
     7     5     4    1
     8     6     5    1
     9     6    44    1
    10     6    45    1
    11     6    46    1
    12     7     4   ar
    13     7    47    1
    14     8     7   ar
    15     9     8   ar
    16     9    48    1
    17    10     9   ar
    18    10     3   ar
    19    10    49    1
    20    12    11    1
    21    13    12    2
    22    14    13    1
    23    14    51    1
    24    14    52    1
    25    15    14    1
    26    15    53    1
    27    15    54    1
    28    16    15    1
    29    16    12    1
    30    17    16    2
    31    18    13    1
    32    18    55    1
    33    19    18    1
    34    20    19   ar
    35    20    11    1
    36    21    20   ar
    37    22    21   ar
    38    23    22   ar
    39    23    19   ar
    40    24    23    1
    41    25    24   ar
    42    25    56    1
    43    26    25   ar
    44    26    57    1
    45    27    26   ar
    46    28    27    1
    47    29    27   ar
    48    30    29    1
    49    31    29   ar
    50    31    24   ar
    51    31    58    1
    52    32    21    1
    53    33    32   ar
    54    33    59    1
    55    34    33   ar
    56    34    60    1
    57    35    34   ar
    58    36    35   ar
    59    36    32   ar
    60    37    36   ar
    61    37    61    1
    62    38    37   ar
    63    38    62    1
    64    39    38   ar
    65    39    63    1
    66    40    39   ar
    67    40    35   ar
    68    40    64    1
    69    11    50    1
    70    11     8    1
