@<TRIPOS>MOLECULE
>132_2.sdf
 56 60 0 0 0
SMALL
GASTEIGER

@<TRIPOS>ATOM
      1 O           0.7934    1.6565   -0.3082 O.3     1  UNL1       -0.3869
      2 C           2.2035    1.8021   -0.5483 C.3     1  UNL1        0.1052
      3 C           2.5492    1.1157   -1.8800 C.3     1  UNL1        0.1169
      4 O           1.8536    1.7530   -2.9649 O.3     1  UNL1       -0.4884
      5 C           2.0651    1.2517   -4.2357 C.ar    1  UNL1        0.1380
      6 C           2.8815    0.2411   -4.5620 C.ar    1  UNL1        0.0652
      7 C           3.0893   -0.2065   -5.9459 C.ar    1  UNL1        0.3408
      8 O           3.8240   -1.1588   -6.1799 O.2     1  UNL1       -0.2451
      9 O           2.4533    0.4994   -6.9475 O.2     1  UNL1       -0.4219
     10 C           1.5604    1.5392   -6.6341 C.ar    1  UNL1        0.1426
     11 C           0.9212    2.1483   -7.7146 C.ar    1  UNL1       -0.0185
     12 C          -0.0040    3.1595   -7.4749 C.ar    1  UNL1       -0.0582
     13 C          -0.2837    3.5404   -6.1628 C.ar    1  UNL1       -0.0609
     14 C           0.3748    2.9274   -5.0884 C.ar    1  UNL1       -0.0476
     15 C           1.3211    1.9205   -5.3125 C.ar    1  UNL1        0.0592
     16 C           2.9484    1.1594    0.6394 C.3     1  UNL1        0.0494
     17 N           4.3915    1.2141    0.5718 N.am    1  UNL1       -0.2629
     18 C           5.1298    2.3893    0.5893 C.2     1  UNL1        0.2714
     19 O           4.7624    3.5470    0.6148 O.2     1  UNL1       -0.2679
     20 C           6.5919    1.9559    0.5739 C.2     1  UNL1        0.1527
     21 N           7.6626    2.6775    0.6040 N.2     1  UNL1       -0.1743
     22 N           7.5316    4.0346    0.6537 N.am    1  UNL1       -0.2023
     23 C           8.6862    4.8046    0.6864 C.2     1  UNL1        0.2634
     24 O           9.8288    4.3528    0.6603 O.2     1  UNL1       -0.2684
     25 C           8.5101    6.2802    0.7324 C.ar    1  UNL1        0.0412
     26 C           7.3931    6.8914    1.3003 C.ar    1  UNL1       -0.0314
     27 C           7.3576    8.2761    1.3194 C.ar    1  UNL1        0.0283
     28 N           8.3347    9.0635    0.8205 N.ar    1  UNL1       -0.2632
     29 C           9.4101    8.4452    0.2896 C.ar    1  UNL1        0.0283
     30 C           9.5446    7.0722    0.2262 C.ar    1  UNL1       -0.0314
     31 C           6.5840    0.5010    0.5475 C.ar    1  UNL1        0.0284
     32 C           7.6488   -0.3799    0.5218 C.ar    1  UNL1       -0.0506
     33 C           7.3466   -1.7397    0.5520 C.ar    1  UNL1       -0.0610
     34 C           6.0084   -2.1712    0.6204 C.ar    1  UNL1       -0.0600
     35 C           4.9460   -1.2532    0.6367 C.ar    1  UNL1       -0.0396
     36 C           5.2502    0.0952    0.5854 C.ar    1  UNL1        0.0461
     37 H           0.5734    2.1559    0.4976 H       1  UNL1        0.2100
     38 H           2.4118    2.8755   -0.6230 H       1  UNL1        0.0643
     39 H           3.6276    1.1915   -2.0594 H       1  UNL1        0.0723
     40 H           2.2433    0.0636   -1.8347 H       1  UNL1        0.0723
     41 H           3.4585   -0.3162   -3.8372 H       1  UNL1        0.0726
     42 H           1.1412    1.8342   -8.7308 H       1  UNL1        0.0654
     43 H          -0.5096    3.6426   -8.3055 H       1  UNL1        0.0619
     44 H          -1.0182    4.3203   -5.9719 H       1  UNL1        0.0618
     45 H           0.1333    3.2407   -4.0745 H       1  UNL1        0.0626
     46 H           2.6482    1.6811    1.5572 H       1  UNL1        0.0495
     47 H           2.6031    0.1275    0.7626 H       1  UNL1        0.0495
     48 H           6.5996    4.4424    0.5984 H       1  UNL1        0.1776
     49 H           6.5840    6.3302    1.7501 H       1  UNL1        0.0640
     50 H           6.5202    8.8103    1.7603 H       1  UNL1        0.0830
     51 H          10.1862    9.1033   -0.0908 H       1  UNL1        0.0830
     52 H          10.4372    6.6272   -0.2030 H       1  UNL1        0.0640
     53 H           8.6734   -0.0227    0.4817 H       1  UNL1        0.0625
     54 H           8.1514   -2.4726    0.5283 H       1  UNL1        0.0618
     55 H           5.7983   -3.2391    0.6636 H       1  UNL1        0.0618
     56 H           3.9288   -1.6225    0.6995 H       1  UNL1        0.0636
@<TRIPOS>BOND
     1     1    37    1
     2     3     2    1
     3     3    39    1
     4     3    40    1
     5     4     3    1
     6     5     4    1
     7     6     5   ar
     8     6    41    1
     9     7     6   ar
    10     8     7    2
    11     9     7   ar
    12    10     9   ar
    13    11    10   ar
    14    11    42    1
    15    12    11   ar
    16    12    43    1
    17    13    12   ar
    18    13    44    1
    19    14    13   ar
    20    14    45    1
    21    15    14   ar
    22    15     5   ar
    23    15    10   ar
    24    16     2    1
    25    16    46    1
    26    16    47    1
    27    17    16    1
    28    18    17   am
    29    19    18    2
    30    20    18    1
    31    21    20    2
    32    22    21    1
    33    22    48    1
    34    23    22   am
    35    24    23    2
    36    25    23    1
    37    26    25   ar
    38    26    49    1
    39    27    26   ar
    40    27    50    1
    41    28    27   ar
    42    29    28   ar
    43    29    51    1
    44    30    29   ar
    45    30    25   ar
    46    30    52    1
    47    31    20    1
    48    32    31   ar
    49    32    53    1
    50    33    32   ar
    51    33    54    1
    52    34    33   ar
    53    34    55    1
    54    35    34   ar
    55    35    56    1
    56    36    35   ar
    57    36    17    1
    58    36    31   ar
    59     2    38    1
    60     2     1    1
