@<TRIPOS>MOLECULE
>173.sdf
 35 37 0 0 0
SMALL
GASTEIGER

@<TRIPOS>ATOM
      1 C           1.0334    0.0073    0.0108 C.3     1  UNL1       -0.0188
      2 C           2.5514    0.0418    0.0280 C.2     1  UNL1        0.0814
      3 N           3.2828   -0.8674    0.6151 N.2     1  UNL1       -0.1836
      4 N           2.6783   -1.8813    1.2805 N.pl3   1  UNL1       -0.2150
      5 C           3.3750   -2.8217    1.9682 C.ar    1  UNL1        0.1783
      6 N           4.6483   -3.0990    1.8001 N.ar    1  UNL1       -0.2236
      7 C           5.0301   -4.1624    2.5947 C.ar    1  UNL1        0.0803
      8 C           4.0590   -4.6089    3.4675 C.ar    1  UNL1        0.0049
      9 S           2.5898   -3.7753    3.1736 S.2     1  UNL1       -0.0586
     10 C           6.3740   -4.7140    2.4926 C.ar    1  UNL1        0.0010
     11 C           7.4180   -3.8894    2.0474 C.ar    1  UNL1       -0.0515
     12 C           8.7176   -4.3856    1.9241 C.ar    1  UNL1       -0.0471
     13 C           8.9767   -5.7184    2.2320 C.ar    1  UNL1        0.0179
     14 BR         10.7345   -6.3929    2.0709 Br      1  UNL1       -0.0503
     15 C           7.9482   -6.5591    2.6540 C.ar    1  UNL1       -0.0471
     16 C           6.6490   -6.0580    2.7837 C.ar    1  UNL1       -0.0515
     17 C           3.2335    1.1903   -0.6513 C.ar    1  UNL1        0.0862
     18 C           4.6182    1.2905   -0.6247 C.ar    1  UNL1       -0.0345
     19 C           5.2187    2.3832   -1.2564 C.ar    1  UNL1       -0.0583
     20 C           4.4164    3.3358   -1.8708 C.ar    1  UNL1       -0.0436
     21 C           3.0431    3.1542   -1.8395 C.ar    1  UNL1        0.0283
     22 N           2.4344    2.1082   -1.2466 N.ar    1  UNL1       -0.2537
     23 H           0.7011   -0.9290   -0.4442 H       1  UNL1        0.0294
     24 H           0.6620    0.0629    1.0404 H       1  UNL1        0.0294
     25 H           0.5862    0.8254   -0.5489 H       1  UNL1        0.0294
     26 H           1.6849   -2.0602    1.1617 H       1  UNL1        0.1765
     27 H           4.1230   -5.3739    4.2272 H       1  UNL1        0.0716
     28 H           7.2170   -2.8498    1.7911 H       1  UNL1        0.0624
     29 H           9.5105   -3.7250    1.5849 H       1  UNL1        0.0629
     30 H           8.1439   -7.6045    2.8778 H       1  UNL1        0.0629
     31 H           5.8580   -6.7372    3.0913 H       1  UNL1        0.0624
     32 H           5.2339    0.5373   -0.1369 H       1  UNL1        0.0639
     33 H           6.3010    2.4897   -1.2528 H       1  UNL1        0.0619
     34 H           4.8510    4.1997   -2.3608 H       1  UNL1        0.0633
     35 H           2.3764    3.8766   -2.3041 H       1  UNL1        0.0830
@<TRIPOS>BOND
     1     1    23    1
     2     1    24    1
     3     1    25    1
     4     2     1    1
     5     3     2    2
     6     4     3    1
     7     4    26    1
     8     5     4    1
     9     6     5   ar
    10     7     6   ar
    11     8     7   ar
    12     8    27    1
    13     9     8   ar
    14     9     5   ar
    15    10     7    1
    16    11    10   ar
    17    11    28    1
    18    12    11   ar
    19    12    29    1
    20    13    12   ar
    21    14    13    1
    22    15    13   ar
    23    15    30    1
    24    16    15   ar
    25    16    10   ar
    26    16    31    1
    27    17     2    1
    28    18    17   ar
    29    18    32    1
    30    19    18   ar
    31    19    33    1
    32    20    19   ar
    33    20    34    1
    34    21    20   ar
    35    21    35    1
    36    22    21   ar
    37    22    17   ar
