@<TRIPOS>MOLECULE
>217.sdf
 46 48 0 0 0
SMALL
GASTEIGER

@<TRIPOS>ATOM
      1 I           5.6548   -5.7907   -1.9385 I       1  UNL1       -0.0438
      2 C           5.5896   -3.8182   -1.2917 C.ar    1  UNL1        0.0136
      3 C           4.8480   -3.4785   -0.1671 C.ar    1  UNL1       -0.0454
      4 C           4.7333   -2.1330    0.2074 C.ar    1  UNL1       -0.0222
      5 C           5.3201   -1.1079   -0.5563 C.ar    1  UNL1        0.0997
      6 N           5.0433    0.2344   -0.2190 N.pl3   1  UNL1       -0.2497
      7 C           5.7364    1.4496   -0.2293 C.2     1  UNL1        0.3209
      8 N           5.0953    2.5930   -0.2196 N.pl3   1  UNL1       -0.2777
      9 C           3.7776    2.8919   -0.8079 C.3     1  UNL1        0.0896
     10 C           2.6538    3.0186    0.1727 C.ar    1  UNL1       -0.0141
     11 C           2.8248    3.3393    1.5244 C.ar    1  UNL1       -0.0556
     12 C           1.7093    3.5205    2.3502 C.ar    1  UNL1       -0.0614
     13 C           0.4190    3.4037    1.8339 C.ar    1  UNL1       -0.0617
     14 C           0.2352    3.1207    0.4860 C.ar    1  UNL1       -0.0614
     15 C           1.3433    2.9355   -0.3381 C.ar    1  UNL1       -0.0556
     16 N           6.9776    1.4119   -0.2438 N.am    1  UNL1       -0.2829
     17 C           7.8146    2.5158    0.0061 C.2     1  UNL1        0.2789
     18 O           7.2373    3.4940    0.4562 O.2     1  UNL1       -0.2545
     19 C           9.2546    2.5528   -0.3386 C.ar    1  UNL1        0.0503
     20 C           9.9457    1.4367   -0.8243 C.ar    1  UNL1       -0.0483
     21 C          11.2979    1.5609   -1.1588 C.ar    1  UNL1       -0.0610
     22 C          11.9553    2.7836   -1.0132 C.ar    1  UNL1       -0.0617
     23 C          11.2693    3.8933   -0.5302 C.ar    1  UNL1       -0.0610
     24 C           9.9222    3.7804   -0.1936 C.ar    1  UNL1       -0.0483
     25 C           6.1345   -1.4752   -1.6331 C.ar    1  UNL1       -0.0222
     26 C           6.2573   -2.8242   -2.0062 C.ar    1  UNL1       -0.0454
     27 H           4.3291   -4.2451    0.4085 H       1  UNL1        0.0629
     28 H           4.1431   -1.9098    1.0957 H       1  UNL1        0.0652
     29 H           4.1106    0.3209    0.1984 H       1  UNL1        0.2645
     30 H           5.6257    3.4359    0.0147 H       1  UNL1        0.2579
     31 H           3.8877    3.8538   -1.3226 H       1  UNL1        0.0706
     32 H           3.5558    2.1367   -1.5694 H       1  UNL1        0.0706
     33 H           3.8112    3.4842    1.9569 H       1  UNL1        0.0621
     34 H           1.8380    3.7755    3.4008 H       1  UNL1        0.0618
     35 H          -0.4458    3.5542    2.4777 H       1  UNL1        0.0618
     36 H          -0.7705    3.0622    0.0736 H       1  UNL1        0.0618
     37 H           1.1668    2.7522   -1.3981 H       1  UNL1        0.0621
     38 H           9.4917    0.4597   -0.9523 H       1  UNL1        0.0626
     39 H          11.8570    0.7038   -1.5345 H       1  UNL1        0.0618
     40 H          13.0097    2.8725   -1.2736 H       1  UNL1        0.0618
     41 H          11.7859    4.8461   -0.4170 H       1  UNL1        0.0618
     42 H           9.4087    4.6676    0.1786 H       1  UNL1        0.0626
     43 H           6.6025   -0.7482   -2.2856 H       1  UNL1        0.0652
     44 H           6.8368   -3.0903   -2.8901 H       1  UNL1        0.0629
     45 H           7.2586    0.6180    0.3031 H       1  UNL1        0.2156
     46 H           7.2188    1.0713   -1.1644 H       1  UNL1        0.2156
@<TRIPOS>BOND
     1     2     1    1
     2     3     2   ar
     3     3    27    1
     4     4     3   ar
     5     4    28    1
     6     5     4   ar
     7     6     5    1
     8     6    29    1
     9     7     6    1
    10     8     7    1
    11     8    30    1
    12     9     8    1
    13     9    31    1
    14     9    32    1
    15    10     9    1
    16    11    10   ar
    17    11    33    1
    18    12    11   ar
    19    12    34    1
    20    13    12   ar
    21    13    35    1
    22    14    13   ar
    23    14    36    1
    24    15    14   ar
    25    15    10   ar
    26    15    37    1
    27    16     7    2
    28    16    45    1
    29    17    16    1
    30    18    17    2
    31    19    17    1
    32    20    19   ar
    33    20    38    1
    34    21    20   ar
    35    21    39    1
    36    22    21   ar
    37    22    40    1
    38    23    22   ar
    39    23    41    1
    40    24    23   ar
    41    24    19   ar
    42    24    42    1
    43    25     5   ar
    44    25    43    1
    45    26    25   ar
    46    26     2   ar
    47    26    44    1
    48    16    46    1
