@<TRIPOS>MOLECULE
>24.sdf
 20 21 0 0 0
SMALL
GASTEIGER

@<TRIPOS>ATOM
      1 O           0.9156    0.0270    0.1557 O.3     1  UNL1       -0.4924
      2 C           2.2723   -0.0817    0.1004 C.ar    1  UNL1        0.2129
      3 N           2.9300    1.0891    0.1001 N.ar    1  UNL1       -0.2107
      4 C           4.2810    1.0803    0.0207 C.ar    1  UNL1        0.1049
      5 C           4.9942   -0.1357   -0.0807 C.ar    1  UNL1        0.0029
      6 C           6.3973   -0.1448   -0.2148 C.ar    1  UNL1       -0.0524
      7 C           7.1220    1.0446   -0.2577 C.ar    1  UNL1       -0.0589
      8 C           6.4509    2.2528   -0.1401 C.ar    1  UNL1       -0.0293
      9 C           5.0545    2.2413    0.0112 C.ar    1  UNL1        0.1521
     10 N           4.3980    3.5166    0.1818 N.pl3   1  UNL1        0.0585
     11 O           3.8897    3.7550    1.2858 O.2     1  UNL1       -0.1261
     12 O           4.4996    4.3250   -0.7537 O.2     1  UNL1       -0.1261
     13 C           4.2728   -1.3360   -0.0526 C.ar    1  UNL1       -0.0475
     14 C           2.8871   -1.3136    0.0397 C.ar    1  UNL1        0.0004
     15 H           0.5342   -0.8595    0.0872 H       1  UNL1        0.2937
     16 H           6.9356   -1.0880   -0.2979 H       1  UNL1        0.0624
     17 H           8.2027    1.0255   -0.3795 H       1  UNL1        0.0618
     18 H           7.0014    3.1907   -0.1633 H       1  UNL1        0.0641
     19 H           4.7856   -2.2936   -0.1084 H       1  UNL1        0.0626
     20 H           2.3243   -2.2386    0.0546 H       1  UNL1        0.0671
@<TRIPOS>BOND
     1     1    15    1
     2     2     1    1
     3     3     2   ar
     4     4     3   ar
     5     5     4   ar
     6     6     5   ar
     7     6    16    1
     8     7     6   ar
     9     7    17    1
    10     8     7   ar
    11     8    18    1
    12     9     8   ar
    13     9     4   ar
    14    10     9    1
    15    11    10    2
    16    12    10    2
    17    13     5   ar
    18    13    19    1
    19    14    13   ar
    20    14     2   ar
    21    14    20    1
