@<TRIPOS>MOLECULE
>97.sdf
 40 43 0 0 0
SMALL
GASTEIGER

@<TRIPOS>ATOM
      1 F          -0.0171    4.9953    1.1354 F       1  UNL1       -0.2051
      2 C           1.1311    4.3107    1.0419 C.ar    1  UNL1        0.1295
      3 C           1.1463    2.9940    0.5626 C.ar    1  UNL1        0.0238
      4 C          -0.0881    2.2794    0.0512 C.3     1  UNL1        0.0526
      5 N          -1.3249    3.0301    0.0698 N.am    1  UNL1       -0.2238
      6 C          -2.1410    3.0136    1.1677 C.2     1  UNL1        0.2861
      7 O          -1.9652    2.4068    2.2113 O.2     1  UNL1       -0.2620
      8 S          -3.5534    4.0109    0.8776 S.3     1  UNL1       -0.0258
      9 C          -2.9505    4.5553   -0.6414 C.2     1  UNL1        0.0798
     10 C          -3.4614    5.5217   -1.4174 C.2     1  UNL1       -0.0336
     11 C          -4.6189    6.2929   -1.1040 C.ar    1  UNL1        0.0034
     12 C          -5.8959    5.9136   -1.4566 C.ar    1  UNL1        0.0100
     13 N          -6.7622    6.8237   -0.9140 N.ar    1  UNL1       -0.3600
     14 C          -6.0667    7.7837   -0.2138 C.ar    1  UNL1        0.0492
     15 C          -4.6993    7.5052   -0.3495 C.ar    1  UNL1        0.0370
     16 C          -3.8102    8.4038    0.2846 C.ar    1  UNL1        0.1359
     17 C          -4.2630    9.4927    1.0431 C.ar    1  UNL1       -0.0307
     18 C          -5.6300    9.7109    1.1681 C.ar    1  UNL1       -0.0576
     19 C          -6.5524    8.8675    0.5376 C.ar    1  UNL1       -0.0376
     20 N          -2.3850    8.2143    0.1330 N.pl3   1  UNL1        0.0571
     21 O          -1.9244    8.2320   -1.0166 O.2     1  UNL1       -0.1261
     22 O          -1.7179    8.1054    1.1713 O.2     1  UNL1       -0.1261
     23 C          -1.6957    3.8370   -0.9804 C.2     1  UNL1        0.2605
     24 O          -1.1013    3.9616   -2.0415 O.2     1  UNL1       -0.2690
     25 C           2.3917    2.3379    0.5448 C.ar    1  UNL1        0.0484
     26 CL          2.5431    0.6937    0.0239 Cl      1  UNL1       -0.0831
     27 C           3.5647    2.9891    0.9478 C.ar    1  UNL1       -0.0429
     28 C           3.5192    4.3106    1.3829 C.ar    1  UNL1       -0.0577
     29 C           2.2958    4.9676    1.4394 C.ar    1  UNL1       -0.0260
     30 H           0.0986    1.9840   -0.9888 H       1  UNL1        0.0520
     31 H          -0.2396    1.3692    0.6438 H       1  UNL1        0.0520
     32 H          -2.9474    5.7776   -2.3435 H       1  UNL1        0.0637
     33 H          -6.2641    5.0675   -2.0185 H       1  UNL1        0.0813
     34 H          -7.7695    6.7820   -0.9876 H       1  UNL1        0.1654
     35 H          -3.5586   10.1633    1.5300 H       1  UNL1        0.0640
     36 H          -5.9908   10.5505    1.7596 H       1  UNL1        0.0619
     37 H          -7.6191    9.0473    0.6393 H       1  UNL1        0.0638
     38 H           4.5198    2.4692    0.9175 H       1  UNL1        0.0632
     39 H           4.4308    4.8232    1.6789 H       1  UNL1        0.0619
     40 H           2.2339    5.9960    1.7852 H       1  UNL1        0.0646
@<TRIPOS>BOND
     1     2     1    1
     2     3     2   ar
     3     4     3    1
     4     4    30    1
     5     4    31    1
     6     5     4    1
     7     6     5   am
     8     7     6    2
     9     8     6    1
    10     9     8    1
    11    10     9    2
    12    10    32    1
    13    11    10    1
    14    12    11   ar
    15    12    33    1
    16    13    12   ar
    17    13    34    1
    18    14    13   ar
    19    15    14   ar
    20    15    11   ar
    21    16    15   ar
    22    17    16   ar
    23    17    35    1
    24    18    17   ar
    25    18    36    1
    26    19    18   ar
    27    19    14   ar
    28    19    37    1
    29    20    16    1
    30    21    20    2
    31    22    20    2
    32    23     9    1
    33    23     5   am
    34    24    23    2
    35    25     3   ar
    36    26    25    1
    37    27    25   ar
    38    27    38    1
    39    28    27   ar
    40    28    39    1
    41    29    28   ar
    42    29     2   ar
    43    29    40    1
