@<TRIPOS>MOLECULE
>106.sdf
 43 46 0 0 0
SMALL
GASTEIGER

@<TRIPOS>ATOM
      1 N           7.7576    4.1652    6.9044 N.3     1  UNL1       -0.2553
      2 N           7.6317    2.7686    7.0567 N.pl3   1  UNL1       -0.2657
      3 C           7.4101    1.9675    5.8895 C.ar    1  UNL1        0.1617
      4 N           7.1591    2.5967    4.7148 N.ar    1  UNL1       -0.2175
      5 C           6.8403    1.8115    3.6845 C.ar    1  UNL1        0.1190
      6 N           6.7292    0.4791    3.7217 N.ar    1  UNL1       -0.2303
      7 C           6.9718   -0.1162    4.9215 C.ar    1  UNL1        0.1342
      8 C           6.8554   -1.4969    5.1176 C.ar    1  UNL1        0.1525
      9 N           6.3815   -2.2863    4.0336 N.pl3   1  UNL1       -0.2975
     10 C           5.9303   -3.6170    4.0222 C.ar    1  UNL1        0.0359
     11 C           6.0629   -4.3992    2.8689 C.ar    1  UNL1       -0.0403
     12 C           5.6421   -5.7341    2.8554 C.ar    1  UNL1       -0.0566
     13 C           5.1104   -6.3130    4.0078 C.ar    1  UNL1       -0.0198
     14 C           5.0184   -5.5669    5.1786 C.ar    1  UNL1        0.1227
     15 O           4.5445   -6.2259    6.2826 O.3     1  UNL1       -0.4873
     16 C           4.9780   -5.6802    7.5350 C.3     1  UNL1        0.1147
     17 C           4.8131   -6.6840    8.6501 C.ar    1  UNL1       -0.0075
     18 C           4.8369   -8.0604    8.4116 C.ar    1  UNL1       -0.0372
     19 C           4.7357   -8.9251    9.4892 C.ar    1  UNL1        0.0279
     20 N           4.6279   -8.5194   10.7723 N.ar    1  UNL1       -0.2632
     21 C           4.6218   -7.1873   10.9857 C.ar    1  UNL1        0.0279
     22 C           4.7155   -6.2435    9.9745 C.ar    1  UNL1       -0.0372
     23 C           5.3962   -4.2231    5.1665 C.ar    1  UNL1        0.0013
     24 N           7.1176   -2.1002    6.3013 N.ar    1  UNL1       -0.2184
     25 C           7.4934   -1.3224    7.3139 C.ar    1  UNL1        0.1190
     26 N           7.6223   -0.0014    7.2545 N.ar    1  UNL1       -0.2302
     27 C           7.3446    0.5796    6.0663 C.ar    1  UNL1        0.1350
     28 H           8.6654    4.4011    6.4985 H       1  UNL1        0.1404
     29 H           7.0781    4.4692    6.1965 H       1  UNL1        0.1404
     30 H           8.2834    2.2970    7.6918 H       1  UNL1        0.1675
     31 H           6.6450    2.2988    2.7355 H       1  UNL1        0.1048
     32 H           6.5208   -1.8401    3.1324 H       1  UNL1        0.1536
     33 H           6.5077   -3.9822    1.9694 H       1  UNL1        0.0636
     34 H           5.7454   -6.3291    1.9515 H       1  UNL1        0.0619
     35 H           4.7899   -7.3515    3.9990 H       1  UNL1        0.0654
     36 H           6.0418   -5.4097    7.4986 H       1  UNL1        0.0748
     37 H           4.3701   -4.7958    7.7609 H       1  UNL1        0.0748
     38 H           4.9342   -8.4568    7.4061 H       1  UNL1        0.0636
     39 H           4.7449  -10.0008    9.3414 H       1  UNL1        0.0829
     40 H           4.5427   -6.8861   12.0262 H       1  UNL1        0.0829
     41 H           4.7168   -5.1869   10.2214 H       1  UNL1        0.0636
     42 H           5.2597   -3.6185    6.0548 H       1  UNL1        0.0673
     43 H           7.6992   -1.8086    8.2624 H       1  UNL1        0.1048
@<TRIPOS>BOND
     1     1    28    1
     2     1    29    1
     3     2     1    1
     4     2    30    1
     5     3     2    1
     6     4     3   ar
     7     5     4   ar
     8     5    31    1
     9     6     5   ar
    10     7     6   ar
    11     8     7   ar
    12     9     8    1
    13     9    32    1
    14    10     9    1
    15    11    10   ar
    16    11    33    1
    17    12    11   ar
    18    12    34    1
    19    13    12   ar
    20    13    35    1
    21    14    13   ar
    22    15    14    1
    23    16    15    1
    24    16    36    1
    25    16    37    1
    26    17    16    1
    27    18    17   ar
    28    18    38    1
    29    19    18   ar
    30    19    39    1
    31    20    19   ar
    32    21    20   ar
    33    21    40    1
    34    22    21   ar
    35    22    17   ar
    36    22    41    1
    37    23    14   ar
    38    23    10   ar
    39    23    42    1
    40    24     8   ar
    41    25    24   ar
    42    25    43    1
    43    26    25   ar
    44    27    26   ar
    45    27     3   ar
    46    27     7   ar
