@<TRIPOS>MOLECULE
>137.sdf
 30 31 0 0 0
SMALL
GASTEIGER

@<TRIPOS>ATOM
      1 BR         -1.3107    0.2148    1.8859 Br      1  UNL1       -0.0503
      2 C           0.4899    0.1305    1.3189 C.ar    1  UNL1        0.0179
      3 C           0.9745   -1.0341    0.7262 C.ar    1  UNL1       -0.0471
      4 C           2.3113   -1.1053    0.3181 C.ar    1  UNL1       -0.0499
      5 C           3.1693   -0.0142    0.5175 C.ar    1  UNL1        0.0217
      6 C           2.6593    1.1602    1.0905 C.ar    1  UNL1       -0.0499
      7 C           1.3237    1.2319    1.4951 C.ar    1  UNL1       -0.0471
      8 C           4.6188   -0.0329    0.1659 C.2     1  UNL1        0.1861
      9 O           5.2114    1.0169   -0.0623 O.2     1  UNL1       -0.2873
     10 C           5.3243   -1.3427    0.1573 C.2     1  UNL1       -0.0138
     11 C           6.6648   -1.3930    0.1017 C.2     1  UNL1       -0.0510
     12 C           7.4151   -2.6570    0.0811 C.ar    1  UNL1       -0.0248
     13 C           6.9266   -3.7868   -0.5951 C.ar    1  UNL1       -0.0524
     14 C           7.6540   -4.9788   -0.6224 C.ar    1  UNL1       -0.0309
     15 C           8.8953   -5.0426    0.0176 C.ar    1  UNL1        0.1262
     16 C           9.4109   -3.9200    0.6780 C.ar    1  UNL1       -0.0309
     17 C           8.6702   -2.7314    0.7022 C.ar    1  UNL1       -0.0524
     18 N           9.6590   -6.2935   -0.0112 N.pl3   1  UNL1        0.0564
     19 O           9.1544   -7.2646   -0.5961 O.2     1  UNL1       -0.1261
     20 O          10.7622   -6.3098    0.5515 O.2     1  UNL1       -0.1261
     21 H           0.3214   -1.8911    0.5783 H       1  UNL1        0.0629
     22 H           2.6468   -2.0188   -0.1624 H       1  UNL1        0.0625
     23 H           3.3076    2.0233    1.2362 H       1  UNL1        0.0625
     24 H           0.9503    2.1466    1.9486 H       1  UNL1        0.0629
     25 H           4.7385   -2.2472    0.2291 H       1  UNL1        0.0656
     26 H           7.2526   -0.4759    0.0904 H       1  UNL1        0.0625
     27 H           5.9758   -3.7514   -1.1223 H       1  UNL1        0.0624
     28 H           7.2417   -5.8361   -1.1499 H       1  UNL1        0.0640
     29 H          10.3797   -3.9518    1.1730 H       1  UNL1        0.0640
     30 H           9.0809   -1.8649    1.2194 H       1  UNL1        0.0624
@<TRIPOS>BOND
     1     2     1    1
     2     3     2   ar
     3     3    21    1
     4     4     3   ar
     5     4    22    1
     6     5     4   ar
     7     6     5   ar
     8     6    23    1
     9     7     6   ar
    10     7     2   ar
    11     7    24    1
    12     8     5    1
    13     9     8    2
    14    10     8    1
    15    10    25    1
    16    11    10    2
    17    11    26    1
    18    12    11    1
    19    13    12   ar
    20    13    27    1
    21    14    13   ar
    22    14    28    1
    23    15    14   ar
    24    16    15   ar
    25    16    29    1
    26    17    16   ar
    27    17    12   ar
    28    17    30    1
    29    18    15    1
    30    19    18    2
    31    20    18    2
