@<TRIPOS>MOLECULE
>42.sdf
 42 44 0 0 0
SMALL
GASTEIGER

@<TRIPOS>ATOM
      1 F           1.2856    0.9223   -0.6681 F       1  UNL1       -0.1659
      2 C           1.3084    0.0139    0.3471 C.3     1  UNL1        0.4174
      3 F           0.0027   -0.2392    0.6457 F       1  UNL1       -0.1659
      4 F           1.7995   -1.1362   -0.1889 F       1  UNL1       -0.1659
      5 C           2.0887    0.4772    1.5532 C.ar    1  UNL1        0.0550
      6 C           2.7474    1.7160    1.5653 C.ar    1  UNL1       -0.0467
      7 C           3.3671    2.1828    2.7304 C.ar    1  UNL1       -0.0194
      8 C           3.3081    1.4286    3.9016 C.ar    1  UNL1        0.1214
      9 O           3.7347    1.8397    5.1340 O.3     1  UNL1       -0.4842
     10 C           3.6737    3.2438    5.4333 C.3     1  UNL1        0.1268
     11 C           2.2376    3.8217    5.3338 C.3     1  UNL1        0.0065
     12 C           2.1955    5.3070    5.6948 C.3     1  UNL1        0.0278
     13 N           0.8646    5.8710    5.6216 N.ar    1  UNL1       -0.3367
     14 C           0.2732    6.4156    4.5192 C.ar    1  UNL1        0.0240
     15 C          -0.9184    6.9319    4.9753 C.ar    1  UNL1        0.0454
     16 N          -1.0680    6.6999    6.3178 N.ar    1  UNL1       -0.2441
     17 C           0.0218    6.0624    6.6838 C.ar    1  UNL1        0.0959
     18 C           4.1893    3.4193    6.8597 C.ar    1  UNL1       -0.0073
     19 C           5.2778    4.2665    7.1201 C.ar    1  UNL1       -0.0551
     20 C           5.6413    4.5655    8.4358 C.ar    1  UNL1       -0.0614
     21 C           4.9285    4.0188    9.5015 C.ar    1  UNL1       -0.0617
     22 C           3.8718    3.1453    9.2572 C.ar    1  UNL1       -0.0614
     23 C           3.5120    2.8361    7.9455 C.ar    1  UNL1       -0.0551
     24 C           2.7491    0.1507    3.8665 C.ar    1  UNL1       -0.0194
     25 C           2.1369   -0.3216    2.7036 C.ar    1  UNL1       -0.0467
     26 H           2.7564    2.3400    0.6724 H       1  UNL1        0.0624
     27 H           3.8603    3.1487    2.6995 H       1  UNL1        0.0654
     28 H           4.3475    3.7825    4.7551 H       1  UNL1        0.0785
     29 H           1.8420    3.6956    4.3197 H       1  UNL1        0.0322
     30 H           1.5474    3.2508    5.9689 H       1  UNL1        0.0322
     31 H           2.5518    5.4916    6.7123 H       1  UNL1        0.0493
     32 H           2.8297    5.8858    5.0135 H       1  UNL1        0.0493
     33 H           0.7317    6.4093    3.5408 H       1  UNL1        0.0825
     34 H          -1.6730    7.4647    4.4107 H       1  UNL1        0.0845
     35 H           0.2526    5.7313    7.6872 H       1  UNL1        0.1029
     36 H           5.8344    4.7215    6.3057 H       1  UNL1        0.0621
     37 H           6.4723    5.2390    8.6296 H       1  UNL1        0.0618
     38 H           5.1980    4.2725   10.5234 H       1  UNL1        0.0618
     39 H           3.3180    2.7152   10.0880 H       1  UNL1        0.0618
     40 H           2.6763    2.1602    7.7733 H       1  UNL1        0.0621
     41 H           2.7501   -0.4640    4.7639 H       1  UNL1        0.0654
     42 H           1.6651   -1.3034    2.7106 H       1  UNL1        0.0624
@<TRIPOS>BOND
     1     2     1    1
     2     3     2    1
     3     4     2    1
     4     5     2    1
     5     6     5   ar
     6     6    26    1
     7     7     6   ar
     8     7    27    1
     9     8     7   ar
    10     9     8    1
    11    10     9    1
    12    10    28    1
    13    11    10    1
    14    11    29    1
    15    11    30    1
    16    12    11    1
    17    12    31    1
    18    12    32    1
    19    13    12    1
    20    14    13   ar
    21    14    33    1
    22    15    14   ar
    23    15    34    1
    24    16    15   ar
    25    17    16   ar
    26    17    13   ar
    27    17    35    1
    28    18    10    1
    29    19    18   ar
    30    19    36    1
    31    20    19   ar
    32    20    37    1
    33    21    20   ar
    34    21    38    1
    35    22    21   ar
    36    22    39    1
    37    23    22   ar
    38    23    18   ar
    39    23    40    1
    40    24     8   ar
    41    24    41    1
    42    25    24   ar
    43    25     5   ar
    44    25    42    1
