@<TRIPOS>MOLECULE
>140.sdf
 46 51 0 0 0
SMALL
GASTEIGER

@<TRIPOS>ATOM
      1 C           1.1169   -0.8651    0.4218 C.3     1  UNL1        0.0820
      2 O           2.5446   -0.8594    0.3742 O.3     1  UNL1       -0.4645
      3 C           3.0639   -1.0897   -0.8588 C.2     1  UNL1        0.3390
      4 O           2.4202   -1.3020   -1.8736 O.2     1  UNL1       -0.2450
      5 C           4.5528   -1.0624   -0.8149 C.ar    1  UNL1        0.0603
      6 C           5.2559   -0.8272    0.3755 C.ar    1  UNL1       -0.0380
      7 C           6.6684   -0.8256    0.4441 C.ar    1  UNL1        0.0090
      8 C           7.3184   -1.0693   -0.7853 C.ar    1  UNL1        0.0554
      9 N           8.6646   -1.1455   -1.0720 N.ar    1  UNL1       -0.3536
     10 C           8.9011   -1.3315   -2.4041 C.ar    1  UNL1        0.0475
     11 C           7.6587   -1.4262   -3.0204 C.ar    1  UNL1        0.0074
     12 C           7.6256   -1.6081   -4.4181 C.ar    1  UNL1       -0.0520
     13 C           8.8304   -1.6792   -5.1308 C.ar    1  UNL1       -0.0611
     14 C          10.0566   -1.5769   -4.4752 C.ar    1  UNL1       -0.0598
     15 C          10.1154   -1.4008   -3.0930 C.ar    1  UNL1       -0.0378
     16 C           6.6609   -1.2788   -1.9977 C.ar    1  UNL1        0.0088
     17 C           5.2509   -1.2836   -2.0096 C.ar    1  UNL1       -0.0380
     18 C           7.3864   -0.6233    1.7152 C.ar    1  UNL1        0.0140
     19 C           6.8757   -1.0681    2.9692 C.ar    1  UNL1       -0.0440
     20 C           7.5230   -0.9104    4.2302 C.ar    1  UNL1       -0.0151
     21 C           6.9292   -1.3825    5.4092 C.ar    1  UNL1       -0.0539
     22 C           7.5667   -1.2379    6.6460 C.ar    1  UNL1       -0.0612
     23 C           8.8141   -0.6206    6.7363 C.ar    1  UNL1       -0.0611
     24 C           9.4329   -0.1378    5.5882 C.ar    1  UNL1       -0.0519
     25 C           8.7890   -0.2791    4.3449 C.ar    1  UNL1        0.0114
     26 C           9.3444    0.1852    3.1211 C.ar    1  UNL1        0.1208
     27 N          10.5184    0.8090    2.8978 N.ar    1  UNL1       -0.1542
     28 N          10.4905    1.0065    1.5829 N.ar    1  UNL1       -0.1956
     29 N           9.4513    0.5534    0.8835 N.ar    1  UNL1       -0.1542
     30 C           8.6502    0.0199    1.8306 C.ar    1  UNL1        0.1209
     31 H           0.6990   -0.1559   -0.2996 H       1  UNL1        0.0661
     32 H           0.7371   -1.8751    0.2405 H       1  UNL1        0.0661
     33 H           0.8118   -0.5544    1.4250 H       1  UNL1        0.0661
     34 H           4.6895   -0.6303    1.2849 H       1  UNL1        0.0632
     35 H           9.3841   -0.9516   -0.3894 H       1  UNL1        0.1659
     36 H           6.6772   -1.6755   -4.9419 H       1  UNL1        0.0624
     37 H           8.8084   -1.8084   -6.2093 H       1  UNL1        0.0618
     38 H          10.9810   -1.6300   -5.0454 H       1  UNL1        0.0618
     39 H          11.0664   -1.3152   -2.5771 H       1  UNL1        0.0638
     40 H           4.7163   -1.4508   -2.9416 H       1  UNL1        0.0632
     41 H           5.9169   -1.5915    2.9694 H       1  UNL1        0.0630
     42 H           5.9571   -1.8707    5.3777 H       1  UNL1        0.0624
     43 H           7.0840   -1.6124    7.5458 H       1  UNL1        0.0618
     44 H           9.3028   -0.5160    7.7013 H       1  UNL1        0.0618
     45 H          10.4062    0.3437    5.6492 H       1  UNL1        0.0624
     46 H          11.2613    1.4761    1.1122 H       1  UNL1        0.2125
@<TRIPOS>BOND
     1     1    31    1
     2     1    32    1
     3     1    33    1
     4     2     1    1
     5     3     2    1
     6     4     3    2
     7     5     3    1
     8     6     5   ar
     9     6    34    1
    10     7     6   ar
    11     8     7   ar
    12     9     8   ar
    13     9    35    1
    14    10     9   ar
    15    11    10   ar
    16    12    11   ar
    17    12    36    1
    18    13    12   ar
    19    13    37    1
    20    14    13   ar
    21    14    38    1
    22    15    14   ar
    23    15    10   ar
    24    15    39    1
    25    16    11   ar
    26    16     8   ar
    27    17    16   ar
    28    17     5   ar
    29    17    40    1
    30    18     7    1
    31    19    18   ar
    32    19    41    1
    33    20    19   ar
    34    21    20   ar
    35    21    42    1
    36    22    21   ar
    37    22    43    1
    38    23    22   ar
    39    23    44    1
    40    24    23   ar
    41    24    45    1
    42    25    24   ar
    43    25    20   ar
    44    26    25   ar
    45    27    26   ar
    46    28    27   ar
    47    28    46    1
    48    29    28   ar
    49    30    29   ar
    50    30    18   ar
    51    30    26   ar
