@<TRIPOS>MOLECULE
>102.sdf
 26 26 0 0 0
SMALL
GASTEIGER

@<TRIPOS>ATOM
      1 C           2.9316   -1.4915   -0.0656 C.3     1  UNL1        0.0128
      2 C           2.6934   -0.0163    0.1123 C.2     1  UNL1        0.2186
      3 O           2.0353    0.3557    1.0910 O.2     1  UNL1       -0.2755
      4 N           3.1897    0.9105   -0.8170 N.am    1  UNL1       -0.2414
      5 C           2.7610    2.3113   -0.6550 C.3     1  UNL1        0.1094
      6 C           1.3644    2.6376   -1.2111 C.3     1  UNL1       -0.0171
      7 C           0.1916    2.0240   -0.4501 C.3     1  UNL1        0.0259
      8 C          -1.1390    2.4633   -1.0162 C.2     1  UNL1        0.2106
      9 N          -2.2239    1.9135   -0.3976 N.am    1  UNL1       -0.3293
     10 O          -1.2768    3.2336   -1.9556 O.2     1  UNL1       -0.2760
     11 C           3.7770    3.0413   -1.5211 C.2     1  UNL1        0.2394
     12 O           3.8846    4.2499   -1.6548 O.2     1  UNL1       -0.2734
     13 N           4.5294    2.1255   -2.1758 N.am    1  UNL1       -0.2658
     14 C           4.2382    0.8545   -1.7834 C.2     1  UNL1        0.1462
     15 S           5.1096   -0.4091   -2.4064 S.2     1  UNL1       -0.0179
     16 H           2.9212   -1.9619    0.9240 H       1  UNL1        0.0323
     17 H           2.1219   -1.9181   -0.6634 H       1  UNL1        0.0323
     18 H           3.8914   -1.7444   -0.4965 H       1  UNL1        0.0323
     19 H           2.8822    2.6240    0.3876 H       1  UNL1        0.0601
     20 H           1.2406    3.7300   -1.2054 H       1  UNL1        0.0293
     21 H           1.3036    2.3401   -2.2665 H       1  UNL1        0.0293
     22 H           0.2184    0.9329   -0.5242 H       1  UNL1        0.0359
     23 H           0.2287    2.3163    0.6053 H       1  UNL1        0.0359
     24 H          -3.1425    2.1526   -0.7460 H       1  UNL1        0.1449
     25 H          -2.1481    1.2636    0.3733 H       1  UNL1        0.1449
     26 H           5.2727    2.3714   -2.8123 H       1  UNL1        0.1566
@<TRIPOS>BOND
     1     1    16    1
     2     1    17    1
     3     1    18    1
     4     2     1    1
     5     3     2    2
     6     4     2   am
     7     5     4    1
     8     5    19    1
     9     6     5    1
    10     6    20    1
    11     6    21    1
    12     7     6    1
    13     7    22    1
    14     7    23    1
    15     8     7    1
    16     9     8   am
    17     9    24    1
    18     9    25    1
    19    10     8    2
    20    11     5    1
    21    12    11    2
    22    13    11   am
    23    13    26    1
    24    14    13    1
    25    14     4    1
    26    15    14    2
