@<TRIPOS>MOLECULE
>11.sdf
 75 78 0 0 0
SMALL
GASTEIGER

@<TRIPOS>ATOM
      1 C          18.6920   -1.4464    7.2121 C.3     1  UNL1       -0.0653
      2 C          18.2904   -0.0019    7.4509 C.3     1  UNL1       -0.0559
      3 C          17.2543    0.4489    6.4256 C.3     1  UNL1       -0.0533
      4 C          16.8477    1.9016    6.6625 C.3     1  UNL1       -0.0530
      5 C          15.8098    2.3502    5.6371 C.3     1  UNL1       -0.0516
      6 C          15.3893    3.8075    5.8596 C.3     1  UNL1       -0.0375
      7 C          14.3505    4.2280    4.8152 C.3     1  UNL1        0.0091
      8 N          13.9205    5.6144    4.9909 N.pl3   1  UNL1       -0.3438
      9 C          13.5117    6.3841    3.8899 C.ar    1  UNL1        0.0272
     10 C          12.9047    5.8819    2.7310 C.ar    1  UNL1       -0.0391
     11 C          12.4469    6.7108    1.6894 C.ar    1  UNL1       -0.0388
     12 C          12.5003    8.1104    1.7478 C.ar    1  UNL1        0.0314
     13 N          11.7624    8.9429    0.7788 N.pl3   1  UNL1       -0.3135
     14 C          11.2568   10.2771    1.1316 C.ar    1  UNL1        0.0469
     15 C          11.3886   11.0336    2.5218 C.ar    1  UNL1        0.0040
     16 C          11.9361   11.4589    4.0919 C.ar    1  UNL1       -0.0505
     17 C          11.1144   12.0985    5.0919 C.ar    1  UNL1       -0.0400
     18 C          10.0687   12.7310    4.4650 C.ar    1  UNL1        0.0298
     19 C           9.5394   11.7753    3.6340 C.ar    1  UNL1       -0.0329
     20 C          10.2318   11.7189    2.4006 C.ar    1  UNL1       -0.0138
     21 C           9.9913   12.4438    1.0738 C.ar    1  UNL1       -0.0461
     22 C          10.5149   12.0889   -0.3088 C.ar    1  UNL1       -0.0138
     23 C          10.4244   10.8146   -0.0570 C.ar    1  UNL1        0.0040
     24 C           9.6656   10.4432   -1.1174 C.ar    1  UNL1       -0.0505
     25 C          10.5631   10.2159   -2.1137 C.ar    1  UNL1       -0.0400
     26 C          10.8402   11.0608   -3.1117 C.ar    1  UNL1        0.0298
     27 C          10.9358   12.1258   -2.0768 C.ar    1  UNL1       -0.0329
     28 N          10.7268   10.0261   -4.0684 N.pl3   1  UNL1       -0.3360
     29 C          11.4715    9.8678   -5.4577 C.3     1  UNL1        0.0004
     30 C          10.0248    8.6387   -4.0447 C.3     1  UNL1        0.0004
     31 N          10.2216   14.0440    3.9557 N.pl3   1  UNL1       -0.3360
     32 C          11.4484   14.8528    4.0264 C.3     1  UNL1        0.0004
     33 C           9.0712   14.9144    3.8281 C.3     1  UNL1        0.0004
     34 C          13.1993    8.6253    2.8606 C.ar    1  UNL1       -0.0388
     35 C          13.7102    7.7689    3.8935 C.ar    1  UNL1       -0.0391
     36 H          19.4344   -1.7620    7.9506 H       1  UNL1        0.0230
     37 H          17.8243   -2.1090    7.2925 H       1  UNL1        0.0230
     38 H          19.1261   -1.5690    6.2147 H       1  UNL1        0.0230
     39 H          17.8831    0.1008    8.4635 H       1  UNL1        0.0263
     40 H          19.1785    0.6381    7.3908 H       1  UNL1        0.0263
     41 H          17.6651    0.3393    5.4142 H       1  UNL1        0.0265
     42 H          16.3703   -0.1980    6.4859 H       1  UNL1        0.0265
     43 H          16.4397    2.0084    7.6747 H       1  UNL1        0.0265
     44 H          17.7333    2.5451    6.5980 H       1  UNL1        0.0265
     45 H          16.2248    2.2376    4.6279 H       1  UNL1        0.0266
     46 H          14.9315    1.6947    5.6967 H       1  UNL1        0.0266
     47 H          14.9746    3.9184    6.8696 H       1  UNL1        0.0280
     48 H          16.2700    4.4572    5.8042 H       1  UNL1        0.0280
     49 H          14.8039    4.1665    3.8181 H       1  UNL1        0.0461
     50 H          13.5272    3.5050    4.8545 H       1  UNL1        0.0461
     51 H          13.3287    5.7834    5.8043 H       1  UNL1        0.1461
     52 H          12.7846    4.8134    2.6003 H       1  UNL1        0.0637
     53 H          12.0339    6.2506    0.7874 H       1  UNL1        0.0637
     54 H          10.8713    8.4245    0.6832 H       1  UNL1        0.1522
     55 H          12.6473   12.3763    3.9753 H       1  UNL1        0.0625
     56 H          10.8667   11.4591    5.9816 H       1  UNL1        0.0636
     57 H           9.5570   10.7498    4.1394 H       1  UNL1        0.0642
     58 H           9.1073   13.0948    1.1809 H       1  UNL1        0.0630
     59 H           8.8872   11.1883   -1.5114 H       1  UNL1        0.0625
     60 H          11.3274    9.4838   -1.9243 H       1  UNL1        0.0636
     61 H          11.2190   13.1967   -2.2794 H       1  UNL1        0.0642
     62 H          12.0645    8.9369   -5.4678 H       1  UNL1        0.0428
     63 H          10.7352    9.7989   -6.2732 H       1  UNL1        0.0428
     64 H          12.1856   10.6182   -5.7761 H       1  UNL1        0.0428
     65 H          10.4987    7.9078   -3.3754 H       1  UNL1        0.0428
     66 H           8.9326    8.6253   -4.0495 H       1  UNL1        0.0428
     67 H          10.2135    8.1128   -5.0202 H       1  UNL1        0.0428
     68 H          11.8903   14.9139    3.0201 H       1  UNL1        0.0428
     69 H          11.2932   15.8911    4.3252 H       1  UNL1        0.0428
     70 H          12.1982   14.5391    4.7731 H       1  UNL1        0.0428
     71 H           8.2562   14.4290    3.3012 H       1  UNL1        0.0428
     72 H           8.7832   15.2966    4.8073 H       1  UNL1        0.0428
     73 H           9.3873   15.7732    3.2139 H       1  UNL1        0.0428
     74 H          13.4188    9.6889    2.9501 H       1  UNL1        0.0637
     75 H          14.3060    8.2011    4.7014 H       1  UNL1        0.0637
@<TRIPOS>BOND
     1     1    36    1
     2     1    37    1
     3     1    38    1
     4     2     1    1
     5     2    39    1
     6     2    40    1
     7     3     2    1
     8     3    41    1
     9     3    42    1
    10     4     3    1
    11     4    43    1
    12     4    44    1
    13     5     4    1
    14     5    45    1
    15     5    46    1
    16     6     5    1
    17     6    47    1
    18     6    48    1
    19     7     6    1
    20     7    49    1
    21     7    50    1
    22     8     7    1
    23     8    51    1
    24     9     8    1
    25    10     9   ar
    26    10    52    1
    27    11    10   ar
    28    11    53    1
    29    12    11   ar
    30    13    12    1
    31    13    54    1
    32    14    13    1
    33    15    14   ar
    34    16    15   ar
    35    16    55    1
    36    17    16   ar
    37    17    56    1
    38    18    17   ar
    39    19    18   ar
    40    19    57    1
    41    20    19   ar
    42    20    15   ar
    43    21    20   ar
    44    21    58    1
    45    22    21   ar
    46    23    22   ar
    47    23    14   ar
    48    24    23   ar
    49    24    59    1
    50    25    24   ar
    51    25    60    1
    52    26    25   ar
    53    27    26   ar
    54    27    22   ar
    55    27    61    1
    56    28    26    1
    57    29    28    1
    58    29    62    1
    59    29    63    1
    60    29    64    1
    61    30    28    1
    62    30    65    1
    63    30    66    1
    64    30    67    1
    65    31    18    1
    66    32    31    1
    67    32    68    1
    68    32    69    1
    69    32    70    1
    70    33    31    1
    71    33    71    1
    72    33    72    1
    73    33    73    1
    74    34    12   ar
    75    34    74    1
    76    35    34   ar
    77    35     9   ar
    78    35    75    1
