@<TRIPOS>MOLECULE
>79.sdf
 53 56 0 0 0
SMALL
GASTEIGER

@<TRIPOS>ATOM
      1 C           0.9919   -3.1736   -0.9565 C.3     1  UNL1       -0.0248
      2 C           1.4738   -1.7236   -0.7785 C.3     1  UNL1        0.1121
      3 C           2.9750   -1.7559   -0.4456 C.3     1  UNL1       -0.0248
      4 C           1.2776   -0.8834   -2.0413 C.3     1  UNL1        0.0499
      5 C          -0.1857   -0.6500   -2.2852 C.2     1  UNL1        0.1704
      6 O          -0.6647   -0.5647   -3.4104 O.2     1  UNL1       -0.2918
      7 C          -1.0124   -0.4374   -1.0854 C.ar    1  UNL1        0.0595
      8 C          -2.3323    0.0223   -1.2049 C.ar    1  UNL1       -0.0431
      9 C          -3.0999    0.2666   -0.0569 C.ar    1  UNL1       -0.0294
     10 C          -4.5245    0.7517   -0.1584 C.3     1  UNL1        0.0371
     11 N          -4.6060    2.1970   -0.1399 N.am    1  UNL1       -0.3077
     12 C          -5.3444    2.8659    0.8042 C.2     1  UNL1        0.2372
     13 O          -5.9348    2.3211    1.7305 O.2     1  UNL1       -0.2708
     14 C          -5.3768    4.3391    0.5979 C.2     1  UNL1        0.0001
     15 C          -6.0517    5.1244    1.4540 C.2     1  UNL1       -0.0568
     16 C          -6.1191    6.5642    1.3141 C.2     1  UNL1       -0.0610
     17 C          -6.7916    7.3606    2.1623 C.2     1  UNL1       -0.0545
     18 C          -6.8570    8.8294    2.0390 C.ar    1  UNL1       -0.0213
     19 C          -6.8053    9.4747    0.7935 C.ar    1  UNL1       -0.0090
     20 C          -6.8564   10.8534    0.7641 C.ar    1  UNL1        0.1668
     21 C          -6.9839   11.6006    1.9091 C.ar    1  UNL1        0.1663
     22 O          -7.0053   12.9359    1.6566 O.3     1  UNL1       -0.4526
     23 C          -6.8214   12.9440    0.2251 C.3     1  UNL1        0.2332
     24 O          -6.7862   11.6238   -0.3549 O.3     1  UNL1       -0.4526
     25 C          -7.0769   11.0090    3.1487 C.ar    1  UNL1       -0.0156
     26 C          -7.0147    9.6099    3.2095 C.ar    1  UNL1       -0.0509
     27 C          -2.5135    0.0561    1.2005 C.ar    1  UNL1       -0.0536
     28 C          -1.1986   -0.4126    1.3101 C.ar    1  UNL1       -0.0189
     29 C          -0.4465   -0.6712    0.1655 C.ar    1  UNL1        0.1318
     30 O           0.8267   -1.1325    0.3639 O.3     1  UNL1       -0.4851
     31 H           1.1833   -3.7587   -0.0495 H       1  UNL1        0.0268
     32 H          -0.0869   -3.2296   -1.1327 H       1  UNL1        0.0268
     33 H           1.4992   -3.6627   -1.7953 H       1  UNL1        0.0268
     34 H           3.3554   -0.7453   -0.2563 H       1  UNL1        0.0268
     35 H           3.1630   -2.3316    0.4678 H       1  UNL1        0.0268
     36 H           3.5599   -2.1982   -1.2591 H       1  UNL1        0.0268
     37 H           1.7143   -1.3826   -2.9136 H       1  UNL1        0.0384
     38 H           1.7428    0.1046   -1.9374 H       1  UNL1        0.0384
     39 H          -2.7545    0.1880   -2.1946 H       1  UNL1        0.0629
     40 H          -4.9703    0.4149   -1.1017 H       1  UNL1        0.0512
     41 H          -5.1256    0.3126    0.6457 H       1  UNL1        0.0512
     42 H          -4.1629    2.7012   -0.8939 H       1  UNL1        0.1493
     43 H          -4.8510    4.7474   -0.2541 H       1  UNL1        0.0669
     44 H          -6.5745    4.6784    2.2995 H       1  UNL1        0.0619
     45 H          -5.5764    6.9951    0.4752 H       1  UNL1        0.0618
     46 H          -7.3114    6.9359    3.0183 H       1  UNL1        0.0623
     47 H          -6.7262    8.9245   -0.1370 H       1  UNL1        0.0661
     48 H          -7.6411   13.5082   -0.2337 H       1  UNL1        0.1166
     49 H          -5.8757   13.4497   -0.0039 H       1  UNL1        0.1166
     50 H          -7.1869   11.6071    4.0458 H       1  UNL1        0.0655
     51 H          -7.0760    9.1280    4.1842 H       1  UNL1        0.0625
     52 H          -3.0869    0.2483    2.1071 H       1  UNL1        0.0622
     53 H          -0.7673   -0.5841    2.2934 H       1  UNL1        0.0654
@<TRIPOS>BOND
     1     1    31    1
     2     1    32    1
     3     1    33    1
     4     2     1    1
     5     3     2    1
     6     3    34    1
     7     3    35    1
     8     3    36    1
     9     4     2    1
    10     4    37    1
    11     4    38    1
    12     5     4    1
    13     6     5    2
    14     7     5    1
    15     8     7   ar
    16     8    39    1
    17     9     8   ar
    18    10     9    1
    19    10    40    1
    20    10    41    1
    21    11    10    1
    22    11    42    1
    23    12    11   am
    24    13    12    2
    25    14    12    1
    26    14    43    1
    27    15    14    2
    28    15    44    1
    29    16    15    1
    30    16    45    1
    31    17    16    2
    32    17    46    1
    33    18    17    1
    34    19    18   ar
    35    19    47    1
    36    20    19   ar
    37    21    20   ar
    38    22    21    1
    39    23    22    1
    40    23    48    1
    41    23    49    1
    42    24    23    1
    43    24    20    1
    44    25    21   ar
    45    25    50    1
    46    26    25   ar
    47    26    18   ar
    48    26    51    1
    49    27     9   ar
    50    27    52    1
    51    28    27   ar
    52    28    53    1
    53    29    28   ar
    54    29     7   ar
    55    30    29    1
    56    30     2    1
