@<TRIPOS>MOLECULE
>179.sdf
 38 40 0 0 0
SMALL
GASTEIGER

@<TRIPOS>ATOM
      1 BR         12.0656    6.2635   -0.0566 Br      1  UNL1       -0.0503
      2 C          10.8543    4.8133   -0.0069 C.ar    1  UNL1        0.0179
      3 C          11.2187    3.6257    0.6283 C.ar    1  UNL1       -0.0471
      4 C          10.3265    2.5454    0.6645 C.ar    1  UNL1       -0.0502
      5 C           9.0644    2.6594    0.0696 C.ar    1  UNL1        0.0183
      6 C           8.7054    3.8657   -0.5535 C.ar    1  UNL1       -0.0502
      7 C           9.6005    4.9384   -0.5986 C.ar    1  UNL1       -0.0471
      8 C           8.0583    1.5529    0.0948 C.2     1  UNL1        0.1733
      9 O           6.8700    1.8656    0.0413 O.2     1  UNL1       -0.2912
     10 C           8.5669    0.1161    0.1429 C.3     1  UNL1        0.0633
     11 S           7.1939   -1.0814    0.1028 S.3     1  UNL1       -0.0890
     12 C           8.0547   -2.6032    0.1626 C.ar    1  UNL1        0.1606
     13 N           9.3654   -2.6804    0.1826 N.ar    1  UNL1       -0.1329
     14 N           9.8027   -3.9909    0.2381 N.ar    1  UNL1       -0.1205
     15 C           8.8164   -4.8712    0.2618 C.ar    1  UNL1        0.2159
     16 S           7.2574   -4.1178    0.2029 S.2     1  UNL1       -0.0200
     17 N           8.8754   -6.2317    0.3312 N.2     1  UNL1       -0.2281
     18 C          10.0655   -6.7379    0.3933 C.2     1  UNL1        0.0376
     19 C          10.2917   -8.2001    0.4870 C.ar    1  UNL1       -0.0067
     20 C           9.2174   -9.0976    0.5142 C.ar    1  UNL1       -0.0510
     21 C           9.4537  -10.4737    0.6123 C.ar    1  UNL1       -0.0309
     22 C          10.7714  -10.9474    0.6823 C.ar    1  UNL1        0.1262
     23 C          11.8506  -10.0525    0.6536 C.ar    1  UNL1       -0.0309
     24 C          11.6071   -8.6771    0.5559 C.ar    1  UNL1       -0.0510
     25 N          11.0228  -12.3923    0.7880 N.pl3   1  UNL1        0.0564
     26 O          10.0420  -13.1465    0.8214 O.2     1  UNL1       -0.1261
     27 O          12.2031  -12.7678    0.8405 O.2     1  UNL1       -0.1261
     28 H          12.1915    3.5356    1.1063 H       1  UNL1        0.0629
     29 H          10.6333    1.6445    1.1872 H       1  UNL1        0.0625
     30 H           7.7222    3.9755   -1.0094 H       1  UNL1        0.0625
     31 H           9.3063    5.8628   -1.0902 H       1  UNL1        0.0629
     32 H           9.2066   -0.0504   -0.7294 H       1  UNL1        0.0462
     33 H           9.1303   -0.0386    1.0663 H       1  UNL1        0.0462
     34 H          10.9796   -6.1138    0.3841 H       1  UNL1        0.0836
     35 H           8.1928   -8.7340    0.4617 H       1  UNL1        0.0625
     36 H           8.6061  -11.1566    0.6335 H       1  UNL1        0.0640
     37 H          12.8787  -10.4075    0.7074 H       1  UNL1        0.0640
     38 H          12.4511   -7.9906    0.5367 H       1  UNL1        0.0625
@<TRIPOS>BOND
     1     2     1    1
     2     3     2   ar
     3     3    28    1
     4     4     3   ar
     5     4    29    1
     6     5     4   ar
     7     6     5   ar
     8     6    30    1
     9     7     6   ar
    10     7     2   ar
    11     7    31    1
    12     8     5    1
    13     9     8    2
    14    10     8    1
    15    10    32    1
    16    10    33    1
    17    11    10    1
    18    12    11    1
    19    13    12   ar
    20    14    13   ar
    21    15    14   ar
    22    16    15   ar
    23    16    12   ar
    24    17    15    1
    25    18    17    2
    26    18    34    1
    27    19    18    1
    28    20    19   ar
    29    20    35    1
    30    21    20   ar
    31    21    36    1
    32    22    21   ar
    33    23    22   ar
    34    23    37    1
    35    24    23   ar
    36    24    19   ar
    37    24    38    1
    38    25    22    1
    39    26    25    2
    40    27    25    2
