@<TRIPOS>MOLECULE
>6.sdf
 29 30 0 0 0
SMALL
GASTEIGER

@<TRIPOS>ATOM
      1 N           0.9732    3.2411   -1.0861 N.pl3   1  UNL1       -0.2925
      2 C           2.2508    3.4183   -1.2119 C.cat   1  UNL1        0.3349
      3 N           2.6729    4.5745   -1.2819 N.pl3   1  UNL1       -0.3928
      4 N           3.1727    2.4766   -1.2633 N.pl3   1  UNL1       -0.1599
      5 N           4.5694    2.7427   -1.3945 N.2     1  UNL1       -0.1179
      6 C           5.2989    1.6645   -1.4325 C.2     1  UNL1        0.0879
      7 C           6.7737    1.7277   -1.5313 C.ar    1  UNL1        0.0855
      8 C           7.4335    2.9461   -1.5848 C.ar    1  UNL1       -0.0341
      9 C           8.8190    2.9251   -1.6268 C.ar    1  UNL1       -0.0505
     10 C           9.4958    1.7014   -1.6188 C.ar    1  UNL1        0.0004
     11 C          10.8980    1.6554   -1.6457 C.ar    1  UNL1       -0.0526
     12 C          11.5582    0.4311   -1.6428 C.ar    1  UNL1       -0.0611
     13 C          10.8205   -0.7463   -1.6179 C.ar    1  UNL1       -0.0597
     14 C           9.4215   -0.6968   -1.5868 C.ar    1  UNL1       -0.0357
     15 C           8.7332    0.5105   -1.5804 C.ar    1  UNL1        0.0717
     16 N           7.3826    0.5254   -1.5340 N.ar    1  UNL1       -0.2457
     17 H           0.2734    3.9744   -1.0281 H       1  UNL1        0.2545
     18 H           0.5736    2.3059   -1.0271 H       1  UNL1        0.2545
     19 H           2.8441    1.5053   -1.2093 H       1  UNL1        0.2920
     20 H           4.8612    0.6517   -1.3838 H       1  UNL1        0.0882
     21 H           6.9135    3.8940   -1.5863 H       1  UNL1        0.0639
     22 H           9.3735    3.8609   -1.6625 H       1  UNL1        0.0625
     23 H          11.4878    2.5702   -1.6670 H       1  UNL1        0.0624
     24 H          12.6459    0.3966   -1.6613 H       1  UNL1        0.0618
     25 H          11.3324   -1.7064   -1.6209 H       1  UNL1        0.0618
     26 H           8.8644   -1.6307   -1.5657 H       1  UNL1        0.0639
     27 H           3.5680    4.5319   -1.7580 H       1  UNL1        0.2155
     28 H           2.0529    5.2461   -1.6912 H       1  UNL1        0.2155
     29 H           2.9272    4.8628   -0.3473 H       1  UNL1        0.2155
@<TRIPOS>BOND
     1     1    17    1
     2     1    18    1
     3     2     1    1
     4     3     2    2
     5     3    27    1
     6     3    28    1
     7     4     2    1
     8     4    19    1
     9     5     4    1
    10     6     5    2
    11     6    20    1
    12     7     6    1
    13     8     7   ar
    14     8    21    1
    15     9     8   ar
    16     9    22    1
    17    10     9   ar
    18    11    10   ar
    19    11    23    1
    20    12    11   ar
    21    12    24    1
    22    13    12   ar
    23    13    25    1
    24    14    13   ar
    25    14    26    1
    26    15    14   ar
    27    15    10   ar
    28    16    15   ar
    29    16     7   ar
    30     3    29    1
