@<TRIPOS>MOLECULE
>101.sdf
 39 42 0 0 0
SMALL
GASTEIGER

@<TRIPOS>ATOM
      1 C           1.1543    0.4548    1.0714 C.3     1  UNL1       -0.0612
      2 C           2.4090    0.0350    0.3158 C.3     1  UNL1       -0.0284
      3 C           2.9296   -1.2867    0.8274 C.ar    1  UNL1       -0.0143
      4 C           2.5786   -2.5222    0.2972 C.ar    1  UNL1        0.1114
      5 C           1.7189   -2.6130   -0.9496 C.3     1  UNL1       -0.0073
      6 C           1.4782   -4.0189   -1.4835 C.3     1  UNL1       -0.0596
      7 N           2.9640   -3.6793    0.8779 N.ar    1  UNL1        0.0049
      8 N           3.7196   -3.6696    1.9905 N.ar    1  UNL1       -0.0396
      9 C           4.1594   -2.5007    2.5109 C.ar    1  UNL1        0.2647
     10 C           3.7570   -1.2940    1.9416 C.ar    1  UNL1        0.0197
     11 C           5.0210   -2.5364    3.6831 C.ar    1  UNL1        0.1224
     12 C           5.6554   -1.5102    4.3595 C.ar    1  UNL1       -0.0288
     13 C           6.3548   -2.0813    5.4355 C.ar    1  UNL1       -0.0286
     14 C           6.1441   -3.4415    5.3946 C.ar    1  UNL1        0.0908
     15 BR          6.9417   -4.5302    6.6950 Br      1  UNL1       -0.0302
     16 N           5.3304   -3.7374    4.3124 N.ar    1  UNL1       -0.2924
     17 C           4.8172   -4.9643    3.8104 C.ar    1  UNL1        0.1237
     18 C           4.0262   -4.9262    2.6455 C.ar    1  UNL1        0.2644
     19 C           3.4811   -6.1015    2.1058 C.ar    1  UNL1        0.0161
     20 C           3.7212   -7.3258    2.7306 C.ar    1  UNL1       -0.0369
     21 C           4.5026   -7.3717    3.8790 C.ar    1  UNL1        0.0434
     22 CL          4.7911   -8.8781    4.6540 Cl      1  UNL1       -0.0835
     23 C           5.0511   -6.2022    4.4189 C.ar    1  UNL1       -0.0129
     24 H           0.7392    1.3714    0.6418 H       1  UNL1        0.0233
     25 H           0.3824   -0.3214    1.0320 H       1  UNL1        0.0233
     26 H           1.3763    0.6482    2.1271 H       1  UNL1        0.0233
     27 H           2.2043   -0.0081   -0.7580 H       1  UNL1        0.0311
     28 H           3.1815    0.8050    0.4374 H       1  UNL1        0.0311
     29 H           0.7477   -2.1511   -0.7382 H       1  UNL1        0.0327
     30 H           2.2007   -2.0356   -1.7481 H       1  UNL1        0.0327
     31 H           2.4152   -4.4879   -1.8010 H       1  UNL1        0.0233
     32 H           1.0085   -4.6611   -0.7318 H       1  UNL1        0.0233
     33 H           0.8128   -3.9778   -2.3535 H       1  UNL1        0.0233
     34 H           4.0655   -0.3470    2.3804 H       1  UNL1        0.0688
     35 H           5.6291   -0.4536    4.1201 H       1  UNL1        0.0641
     36 H           6.9541   -1.5507    6.1683 H       1  UNL1        0.0644
     37 H           2.8596   -6.0935    1.2138 H       1  UNL1        0.0685
     38 H           3.2920   -8.2411    2.3248 H       1  UNL1        0.0634
     39 H           5.6422   -6.3207    5.3171 H       1  UNL1        0.0655
@<TRIPOS>UNITY_ATOM_ATTR
8 1
charge 1
@<TRIPOS>BOND
     1     1    24    1
     2     1    25    1
     3     1    26    1
     4     2     1    1
     5     2    27    1
     6     2    28    1
     7     3     2    1
     8     4     3   ar
     9     5     4    1
    10     5    29    1
    11     5    30    1
    12     6     5    1
    13     6    31    1
    14     6    32    1
    15     6    33    1
    16     7     4   ar
    17     8     7   ar
    18     9     8   ar
    19    10     9   ar
    20    10     3   ar
    21    10    34    1
    22    11     9   ar
    23    12    11   ar
    24    12    35    1
    25    13    12   ar
    26    13    36    1
    27    14    13   ar
    28    15    14    1
    29    16    14   ar
    30    16    11   ar
    31    17    16   ar
    32    18    17   ar
    33    18     8   ar
    34    19    18   ar
    35    19    37    1
    36    20    19   ar
    37    20    38    1
    38    21    20   ar
    39    22    21    1
    40    23    21   ar
    41    23    17   ar
    42    23    39    1
