@<TRIPOS>MOLECULE
>172.sdf
 56 59 0 0 0
SMALL
GASTEIGER

@<TRIPOS>ATOM
      1 C           9.3206    2.7810   -3.0677 C.3     1  UNL1        0.0820
      2 O           8.0559    2.4429   -2.4946 O.3     1  UNL1       -0.4643
      3 C           8.0006    1.1515   -2.0567 C.2     1  UNL1        0.3461
      4 O           8.9210    0.3537   -2.1952 O.2     1  UNL1       -0.2447
      5 C           6.7689    0.8196   -1.3851 C.ar    1  UNL1        0.1471
      6 C           6.6126   -0.2524   -0.5229 C.ar    1  UNL1        0.1854
      7 O           5.3152   -0.3103   -0.1244 O.2     1  UNL1       -0.3519
      8 N           4.6158    0.7326   -0.6678 N.ar    1  UNL1       -0.0619
      9 C           5.4868    1.4438   -1.3919 C.ar    1  UNL1        0.1765
     10 N           5.1876    2.6052   -2.0253 N.pl3   1  UNL1       -0.3216
     11 C           3.8066    2.8859   -2.3966 C.3     1  UNL1        0.0358
     12 C           3.4939    4.3650   -2.3917 C.ar    1  UNL1       -0.0303
     13 C           2.5907    4.8749   -3.3317 C.ar    1  UNL1       -0.0568
     14 C           2.2061    6.2204   -3.3112 C.ar    1  UNL1       -0.0578
     15 C           2.7065    7.1107   -2.3490 C.ar    1  UNL1       -0.0420
     16 C           3.5893    6.5814   -1.3882 C.ar    1  UNL1       -0.0578
     17 C           3.9710    5.2315   -1.4031 C.ar    1  UNL1       -0.0568
     18 C           2.3216    8.6015   -2.3263 C.3     1  UNL1       -0.0127
     19 C           1.3819    9.0139   -3.4838 C.3     1  UNL1       -0.0560
     20 C           1.6013    8.9457   -1.0057 C.3     1  UNL1       -0.0560
     21 C           3.5927    9.4703   -2.4466 C.3     1  UNL1       -0.0560
     22 C           7.4875   -1.2120    0.1431 C.ar    1  UNL1        0.0547
     23 C           7.0968   -2.5484    0.4168 C.ar    1  UNL1        0.1406
     24 C           7.8273   -3.4038    1.2552 C.ar    1  UNL1        0.0148
     25 C           9.0443   -2.9365    1.6812 C.ar    1  UNL1        0.1684
     26 O           9.9720   -3.6474    2.3767 O.3     1  UNL1       -0.4525
     27 C          11.1353   -2.8285    2.1343 C.3     1  UNL1        0.2332
     28 O          10.7856   -1.4822    1.7509 O.3     1  UNL1       -0.4526
     29 C           9.5038   -1.6839    1.3394 C.ar    1  UNL1        0.1670
     30 C           8.7369   -0.7871    0.6257 C.ar    1  UNL1       -0.0032
     31 N           6.0366   -3.1529   -0.3575 N.pl3   1  UNL1        0.0573
     32 O           6.2086   -3.2151   -1.5844 O.2     1  UNL1       -0.1261
     33 O           5.0698   -3.6251    0.2624 O.2     1  UNL1       -0.1261
     34 H          10.1319    2.6007   -2.3524 H       1  UNL1        0.0661
     35 H           9.4838    2.2066   -3.9858 H       1  UNL1        0.0661
     36 H           9.3127    3.8447   -3.3153 H       1  UNL1        0.0661
     37 H           5.8771    3.0620   -2.6149 H       1  UNL1        0.1479
     38 H           3.6487    2.4828   -3.4043 H       1  UNL1        0.0511
     39 H           3.0817    2.4019   -1.7317 H       1  UNL1        0.0511
     40 H           2.1592    4.2216   -4.0878 H       1  UNL1        0.0621
     41 H           1.4969    6.5426   -4.0681 H       1  UNL1        0.0621
     42 H           3.9901    7.2152   -0.5993 H       1  UNL1        0.0621
     43 H           4.6347    4.8593   -0.6246 H       1  UNL1        0.0621
     44 H           0.4236    8.4834   -3.4339 H       1  UNL1        0.0238
     45 H           1.1576   10.0866   -3.4519 H       1  UNL1        0.0238
     46 H           1.8342    8.8085   -4.4614 H       1  UNL1        0.0238
     47 H           2.2235    8.7404   -0.1279 H       1  UNL1        0.0238
     48 H           1.3348   10.0091   -0.9689 H       1  UNL1        0.0238
     49 H           0.6759    8.3680   -0.8965 H       1  UNL1        0.0238
     50 H           4.2855    9.3099   -1.6136 H       1  UNL1        0.0238
     51 H           4.1338    9.2508   -3.3746 H       1  UNL1        0.0238
     52 H           3.3411   10.5375   -2.4527 H       1  UNL1        0.0238
     53 H           7.4994   -4.4096    1.4883 H       1  UNL1        0.0678
     54 H          11.7057   -3.2897    1.3154 H       1  UNL1        0.1166
     55 H          11.7649   -2.8008    3.0282 H       1  UNL1        0.1166
     56 H           9.1293    0.2034    0.4216 H       1  UNL1        0.0663
@<TRIPOS>BOND
     1     1    34    1
     2     1    35    1
     3     1    36    1
     4     2     1    1
     5     3     2    1
     6     4     3    2
     7     5     3    1
     8     6     5   ar
     9     7     6   ar
    10     8     7   ar
    11     9     8   ar
    12     9     5   ar
    13    10     9    1
    14    10    37    1
    15    11    10    1
    16    11    38    1
    17    11    39    1
    18    12    11    1
    19    13    12   ar
    20    13    40    1
    21    14    13   ar
    22    14    41    1
    23    15    14   ar
    24    16    15   ar
    25    16    42    1
    26    17    16   ar
    27    17    12   ar
    28    17    43    1
    29    18    15    1
    30    19    18    1
    31    19    44    1
    32    19    45    1
    33    19    46    1
    34    20    18    1
    35    20    47    1
    36    20    48    1
    37    20    49    1
    38    21    18    1
    39    21    50    1
    40    21    51    1
    41    21    52    1
    42    22     6    1
    43    23    22   ar
    44    24    23   ar
    45    24    53    1
    46    25    24   ar
    47    26    25    1
    48    27    26    1
    49    27    54    1
    50    27    55    1
    51    28    27    1
    52    29    28    1
    53    29    25   ar
    54    30    29   ar
    55    30    22   ar
    56    30    56    1
    57    31    23    1
    58    32    31    2
    59    33    31    2
