@<TRIPOS>MOLECULE
>187.sdf
 33 35 0 0 0
SMALL
GASTEIGER

@<TRIPOS>ATOM
      1 C          -2.4799    1.0410   -0.8343 C.3     1  UNL1        0.0135
      2 N          -1.1424    0.6599   -1.2146 N.ar    1  UNL1       -0.3275
      3 C          -0.8705   -0.4091   -2.0337 C.ar    1  UNL1        0.0554
      4 C           0.4952   -0.3976   -2.2000 C.ar    1  UNL1        0.2333
      5 N           1.0599    0.6562   -1.5179 N.ar    1  UNL1       -0.1999
      6 C           0.0540    1.2789   -0.9087 C.ar    1  UNL1        0.1987
      7 C           0.2673    2.4869   -0.1109 C.2     1  UNL1        0.2839
      8 O          -0.6107    3.0386    0.5406 O.2     1  UNL1       -0.2665
      9 N           1.5589    2.9641   -0.2743 N.am    1  UNL1       -0.2784
     10 C           2.0021    4.2673    0.0476 C.ar    1  UNL1        0.0444
     11 C           2.9144    4.9263   -0.8194 C.ar    1  UNL1        0.0216
     12 C           3.4097    4.3834   -2.0350 C.ar    1  UNL1       -0.0508
     13 C           4.2399    5.1210   -2.8770 C.ar    1  UNL1       -0.0610
     14 C           4.6000    6.4107   -2.5198 C.ar    1  UNL1       -0.0597
     15 C           4.1278    6.9523   -1.3229 C.ar    1  UNL1       -0.0357
     16 C           3.2918    6.2427   -0.4704 C.ar    1  UNL1        0.0727
     17 N           2.8548    6.8575    0.6399 N.ar    1  UNL1       -0.2549
     18 C           1.9976    6.1938    1.4403 C.ar    1  UNL1        0.0300
     19 C           1.5397    4.9168    1.1885 C.ar    1  UNL1       -0.0217
     20 N           1.2969   -1.3090   -2.9831 N.pl3   1  UNL1        0.0767
     21 O           0.6938   -2.2238   -3.5632 O.2     1  UNL1       -0.1246
     22 O           2.5176   -1.1080   -3.0240 O.2     1  UNL1       -0.1246
     23 H          -3.0855    1.1171   -1.7433 H       1  UNL1        0.0456
     24 H          -2.8823    0.2619   -0.1810 H       1  UNL1        0.0456
     25 H          -2.4934    1.9999   -0.3228 H       1  UNL1        0.0456
     26 H          -1.6437   -1.0611   -2.4267 H       1  UNL1        0.0849
     27 H           2.1028    2.4205   -0.9361 H       1  UNL1        0.1552
     28 H           3.1331    3.3850   -2.3637 H       1  UNL1        0.0625
     29 H           4.5906    4.6907   -3.8114 H       1  UNL1        0.0618
     30 H           5.2377    7.0022   -3.1706 H       1  UNL1        0.0618
     31 H           4.4061    7.9690   -1.0545 H       1  UNL1        0.0639
     32 H           1.6756    6.7399    2.3231 H       1  UNL1        0.0830
     33 H           0.8609    4.4467    1.8899 H       1  UNL1        0.0651
@<TRIPOS>BOND
     1     1    23    1
     2     1    24    1
     3     1    25    1
     4     2     1    1
     5     3     2   ar
     6     3    26    1
     7     4     3   ar
     8     5     4   ar
     9     6     5   ar
    10     6     2   ar
    11     7     6    1
    12     8     7    2
    13     9     7   am
    14     9    27    1
    15    10     9    1
    16    11    10   ar
    17    12    11   ar
    18    12    28    1
    19    13    12   ar
    20    13    29    1
    21    14    13   ar
    22    14    30    1
    23    15    14   ar
    24    15    31    1
    25    16    15   ar
    26    16    11   ar
    27    17    16   ar
    28    18    17   ar
    29    18    32    1
    30    19    18   ar
    31    19    10   ar
    32    19    33    1
    33    20     4    1
    34    21    20    2
    35    22    20    2
