@<TRIPOS>MOLECULE
>155.sdf
 28 30 0 0 0
SMALL
GASTEIGER

@<TRIPOS>ATOM
      1 O           3.0564   -1.0866   -0.5582 O.3     1  UNL1       -0.3899
      2 C           1.9303   -0.2120   -0.3745 C.3     1  UNL1        0.0746
      3 C           1.1187   -0.1341   -1.6724 C.3     1  UNL1        0.0355
      4 N           1.7428    0.7513   -2.6526 N.pl3   1  UNL1       -0.3407
      5 C           1.8106    2.0853   -2.1543 C.ar    1  UNL1        0.0383
      6 C           2.2062    2.3058   -0.8281 C.ar    1  UNL1       -0.0234
      7 C           2.4410    1.1524    0.1172 C.3     1  UNL1        0.0017
      8 C           2.4256    3.6173   -0.3824 C.ar    1  UNL1       -0.0562
      9 C           2.2669    4.6958   -1.2546 C.ar    1  UNL1       -0.0537
     10 C           1.8714    4.4917   -2.5845 C.ar    1  UNL1       -0.0161
     11 C           1.7185    5.5722   -3.4715 C.ar    1  UNL1       -0.0540
     12 C           1.2966    5.3663   -4.7864 C.ar    1  UNL1       -0.0612
     13 C           1.0119    4.0797   -5.2286 C.ar    1  UNL1       -0.0611
     14 C           1.1794    2.9975   -4.3663 C.ar    1  UNL1       -0.0523
     15 C           1.6270    3.1761   -3.0421 C.ar    1  UNL1        0.0032
     16 H           2.7084   -1.9616   -0.8044 H       1  UNL1        0.2099
     17 H           1.3137   -0.6703    0.4068 H       1  UNL1        0.0612
     18 H           0.0931    0.2006   -1.4766 H       1  UNL1        0.0487
     19 H           1.0533   -1.1282   -2.1297 H       1  UNL1        0.0487
     20 H           2.7119    0.4602   -2.8176 H       1  UNL1        0.1462
     21 H           1.9417    1.3836    1.0664 H       1  UNL1        0.0339
     22 H           3.5172    1.0978    0.3236 H       1  UNL1        0.0339
     23 H           2.7379    3.8048    0.6419 H       1  UNL1        0.0621
     24 H           2.4508    5.7039   -0.8853 H       1  UNL1        0.0624
     25 H           1.9295    6.5872   -3.1428 H       1  UNL1        0.0624
     26 H           1.1837    6.2094   -5.4609 H       1  UNL1        0.0618
     27 H           0.6561    3.9129   -6.2413 H       1  UNL1        0.0618
     28 H           0.9376    1.9979   -4.7231 H       1  UNL1        0.0624
@<TRIPOS>BOND
     1     1    16    1
     2     3     2    1
     3     3    18    1
     4     3    19    1
     5     4     3    1
     6     4    20    1
     7     5     4    1
     8     6     5   ar
     9     7     6    1
    10     7     2    1
    11     7    21    1
    12     7    22    1
    13     8     6   ar
    14     8    23    1
    15     9     8   ar
    16     9    24    1
    17    10     9   ar
    18    11    10   ar
    19    11    25    1
    20    12    11   ar
    21    12    26    1
    22    13    12   ar
    23    13    27    1
    24    14    13   ar
    25    14    28    1
    26    15    14   ar
    27    15     5   ar
    28    15    10   ar
    29     2    17    1
    30     2     1    1
