@<TRIPOS>MOLECULE
>180.sdf
 104 108 0 0 0
SMALL
GASTEIGER

@<TRIPOS>ATOM
      1 O           3.1253    1.5289   -0.2967 O.3     1  UNL1       -0.4607
      2 C           0.9073    3.0900   -1.3226 C.3     1  UNL1       -0.0434
      3 H           0.3204    3.3742   -2.2028 H       1  UNL1        0.0272
      4 H           0.6911    2.0197   -1.1969 H       1  UNL1        0.0272
      5 O           4.3029    5.3390    2.2165 O.3     1  UNL1       -0.4639
      6 C           2.3590    3.2512   -1.7082 C.3     1  UNL1       -0.0145
      7 H           2.5360    4.2594   -2.0867 H       1  UNL1        0.0301
      8 H           2.5624    2.5651   -2.5445 H       1  UNL1        0.0301
      9 O          -4.3855    7.4795    2.9348 O.2     1  UNL1       -0.2045
     10 C           3.2761    2.9190   -0.5291 C.3     1  UNL1        0.1118
     11 H           4.2951    3.1156   -0.9061 H       1  UNL1        0.0740
     12 O          -6.2244    8.6121    2.2297 O.2     1  UNL1       -0.2045
     13 C           2.9879    3.7214    0.8053 C.3     1  UNL1        0.0424
     14 C           1.7884    4.6633    0.5390 C.3     1  UNL1       -0.0232
     15 H           2.1334    5.3233   -0.2723 H       1  UNL1        0.0314
     16 C           1.4724    5.6724    1.6617 C.3     1  UNL1       -0.0484
     17 H           1.0921    5.1841    2.5616 H       1  UNL1        0.0268
     18 H           2.3571    6.2247    1.9695 H       1  UNL1        0.0268
     19 C           0.5175    6.7469    1.1715 C.3     1  UNL1       -0.0454
     20 H           1.0048    7.3176    0.3722 H       1  UNL1        0.0271
     21 H           0.3388    7.4555    1.9887 H       1  UNL1        0.0271
     22 C          -0.7866    6.1230    0.6746 C.3     1  UNL1       -0.0091
     23 C          -0.4449    5.0637   -0.4580 C.3     1  UNL1       -0.0036
     24 H           0.1410    5.5953   -1.2187 H       1  UNL1        0.0360
     25 C           0.5141    3.9093   -0.0391 C.3     1  UNL1       -0.0211
     26 C          -1.6702    4.6130   -1.2079 C.2     1  UNL1       -0.0451
     27 H          -1.6481    3.7208   -1.8215 H       1  UNL1        0.0657
     28 C          -2.8471    5.2225   -1.0762 C.1     1  UNL1       -0.1648
     29 H          -3.6990    4.7259   -1.5261 H       1  UNL1        0.1136
     30 C          -2.9600    6.3672   -0.3807 C.1     1  UNL1       -0.1434
     31 C          -1.7353    7.2024    0.0205 C.3     1  UNL1        0.0274
     32 C          -2.0465    8.3542    1.0218 C.3     1  UNL1       -0.0349
     33 H          -2.0967    8.0138    2.0558 H       1  UNL1        0.0280
     34 H          -1.2317    9.0915    1.0234 H       1  UNL1        0.0280
     35 C          -3.3505    9.0584    0.6876 C.3     1  UNL1       -0.0259
     36 H          -3.2247    9.6065   -0.2537 H       1  UNL1        0.0285
     37 H          -3.5344    9.8283    1.4483 H       1  UNL1        0.0285
     38 C          -4.5319    8.0659    0.6030 C.3     1  UNL1        0.1186
     39 C          -4.1798    6.6815    0.0963 C.2     1  UNL1       -0.0085
     40 C          -5.3144    5.7042    0.2478 C.3     1  UNL1       -0.0178
     41 H          -5.5970    5.6789    1.3075 H       1  UNL1        0.0322
     42 H          -5.0141    4.6618    0.0741 H       1  UNL1        0.0322
     43 C          -6.5057    6.0790   -0.6348 C.3     1  UNL1       -0.0305
     44 C          -6.7277    7.6199   -0.7131 C.3     1  UNL1       -0.0457
     45 H          -7.1680    7.8706   -1.6878 H       1  UNL1        0.0271
     46 H          -7.4738    7.9152    0.0309 H       1  UNL1        0.0271
     47 C          -5.4966    8.5291   -0.5088 C.3     1  UNL1       -0.0268
     48 H          -5.8286    9.5565   -0.3276 H       1  UNL1        0.0285
     49 H          -4.9447    8.5602   -1.4638 H       1  UNL1        0.0285
     50 C           2.7007    2.8705    2.0712 C.3     1  UNL1       -0.0528
     51 H           1.9984    2.0576    1.8892 H       1  UNL1        0.0237
     52 H           2.2874    3.4625    2.8928 H       1  UNL1        0.0237
     53 H           3.6019    2.4028    2.4696 H       1  UNL1        0.0237
     54 C           4.3009    4.5136    1.0550 C.3     1  UNL1        0.1014
     55 H           5.1639    3.8401    1.0847 H       1  UNL1        0.0704
     56 H           4.4782    5.1905    0.2113 H       1  UNL1        0.0704
     57 C          -0.1726    2.8861    0.9080 C.3     1  UNL1       -0.0587
     58 H          -0.0427    3.1137    1.9652 H       1  UNL1        0.0235
     59 H           0.2321    1.8738    0.7936 H       1  UNL1        0.0235
     60 H          -1.2452    2.7874    0.7061 H       1  UNL1        0.0235
     61 C          -1.4981    5.5130    1.9444 C.3     1  UNL1       -0.0576
     62 H          -2.5039    5.1320    1.7568 H       1  UNL1        0.0236
     63 H          -0.9568    4.6997    2.4091 H       1  UNL1        0.0236
     64 H          -1.5738    6.2454    2.7545 H       1  UNL1        0.0236
     65 C          -1.1572    7.9020   -1.2496 C.3     1  UNL1       -0.0487
     66 H          -0.4224    8.6717   -0.9875 H       1  UNL1        0.0244
     67 H          -1.9526    8.3932   -1.8224 H       1  UNL1        0.0244
     68 H          -0.6606    7.2320   -1.9535 H       1  UNL1        0.0244
     69 C          -5.0924    8.0332    2.0657 C.1     1  UNL1        0.2447
     70 C          -7.7495    5.4181   -0.0082 C.3     1  UNL1       -0.0595
     71 H          -7.7357    4.3313   -0.1447 H       1  UNL1        0.0235
     72 H          -8.6702    5.8111   -0.4471 H       1  UNL1        0.0235
     73 H          -7.7918    5.6113    1.0711 H       1  UNL1        0.0235
     74 C          -6.3044    5.4864   -2.0459 C.3     1  UNL1       -0.0595
     75 H          -7.2394    5.4885   -2.6147 H       1  UNL1        0.0235
     76 H          -5.5556    6.0425   -2.6199 H       1  UNL1        0.0235
     77 H          -5.9716    4.4406   -1.9948 H       1  UNL1        0.0235
     78 C           4.1296    0.9902    0.4337 C.2     1  UNL1        0.3074
     79 O           5.2576    1.4303    0.5703 O.2     1  UNL1       -0.2508
     80 C           3.5833   -0.2189    1.1070 C.3     1  UNL1        0.0454
     81 C           3.9672   -1.3701    0.2167 C.3     1  UNL1       -0.0329
     82 H           2.5000   -0.1356    1.2075 H       1  UNL1        0.0378
     83 H           3.9935   -0.2876    2.1247 H       1  UNL1        0.0378
     84 C           3.3595   -2.6565    0.7198 C.3     1  UNL1        0.0453
     85 H           5.0639   -1.4458    0.1667 H       1  UNL1        0.0276
     86 H           3.6329   -1.1716   -0.8111 H       1  UNL1        0.0276
     87 C           3.7929   -3.7454   -0.2072 C.2     1  UNL1        0.3047
     88 H           3.7008   -2.8807    1.7374 H       1  UNL1        0.0378
     89 H           2.2649   -2.5922    0.7619 H       1  UNL1        0.0378
     90 O           4.8328   -4.3693   -0.0813 O.2     1  UNL1       -0.2510
     91 O           2.9588   -3.9073   -1.2583 O.3     1  UNL1       -0.4806
     92 C           5.0123    4.9064    3.2774 C.2     1  UNL1        0.3076
     93 O           5.2840    3.7430    3.5617 O.2     1  UNL1       -0.2508
     94 C           5.6285    6.0852    3.9666 C.3     1  UNL1        0.0550
     95 C           7.0588    5.7262    4.3367 C.3     1  UNL1        0.0548
     96 H           5.0286    6.3494    4.8409 H       1  UNL1        0.0383
     97 H           5.6373    6.9371    3.2752 H       1  UNL1        0.0383
     98 C           7.8580    5.3038    3.1236 C.2     1  UNL1        0.3052
     99 H           7.0946    4.9253    5.0853 H       1  UNL1        0.0383
    100 H           7.5577    6.5913    4.7830 H       1  UNL1        0.0383
    101 O           8.4959    6.0875    2.4343 O.2     1  UNL1       -0.2510
    102 O           7.7771    3.9888    2.8313 O.3     1  UNL1       -0.4806
    103 H           2.1981   -3.2944   -1.2591 H       1  UNL1        0.2951
    104 H           7.0819    3.4959    3.3293 H       1  UNL1        0.2951
@<TRIPOS>BOND
     1     1    78    1
     2     2     4    1
     3     2     3    1
     4     5    92    1
     5     6     7    1
     6     6     2    1
     7     8     6    1
     8    10    11    1
     9    10     1    1
    10    10     6    1
    11    12    69    2
    12    13    50    1
    13    13    10    1
    14    13    14    1
    15    14    15    1
    16    14    25    1
    17    16    14    1
    18    16    19    1
    19    17    16    1
    20    18    16    1
    21    19    21    1
    22    19    22    1
    23    20    19    1
    24    22    61    1
    25    22    31    1
    26    23    22    1
    27    23    24    1
    28    23    26    1
    29    25    57    1
    30    25     2    1
    31    25    23    1
    32    26    28    2
    33    27    26    1
    34    28    30    2
    35    28    29    1
    36    30    39    2
    37    31    32    1
    38    31    65    1
    39    31    30    1
    40    32    35    1
    41    33    32    1
    42    34    32    1
    43    35    37    1
    44    35    38    1
    45    35    36    1
    46    38    69    1
    47    38    47    1
    48    39    38    1
    49    39    40    1
    50    40    43    1
    51    41    40    1
    52    42    40    1
    53    43    44    1
    54    43    74    1
    55    43    70    1
    56    44    45    1
    57    46    44    1
    58    47    48    1
    59    47    49    1
    60    47    44    1
    61    50    52    1
    62    51    50    1
    63    53    50    1
    64    54    13    1
    65    54     5    1
    66    55    54    1
    67    56    54    1
    68    57    58    1
    69    59    57    1
    70    60    57    1
    71    61    64    1
    72    61    63    1
    73    62    61    1
    74    65    66    1
    75    67    65    1
    76    68    65    1
    77    69     9    2
    78    70    71    1
    79    72    70    1
    80    73    70    1
    81    74    75    1
    82    76    74    1
    83    77    74    1
    84    78    79    2
    85    78    80    1
    86    80    81    1
    87    80    82    1
    88    80    83    1
    89    81    84    1
    90    81    85    1
    91    81    86    1
    92    84    87    1
    93    84    88    1
    94    84    89    1
    95    87    90    2
    96    87    91    1
    97    92    93    2
    98    92    94    1
    99    94    95    1
   100    94    96    1
   101    94    97    1
   102    95    98    1
   103    95    99    1
   104    95   100    1
   105    98   101    2
   106    98   102    1
   107    91   103    1
   108   102   104    1
