@<TRIPOS>MOLECULE
>174.sdf
 43 46 0 0 0
SMALL
GASTEIGER

@<TRIPOS>ATOM
      1 C           1.1475    0.1596   -0.2206 C.3     1  UNL1       -0.0489
      2 C           2.6639    0.0832   -0.2968 C.3     1  UNL1        0.0171
      3 N           3.1406   -0.0169   -1.6565 N.am    1  UNL1       -0.2684
      4 C           3.3294   -1.2366   -2.3209 C.2     1  UNL1        0.2610
      5 O           3.1837   -2.3608   -1.8602 O.2     1  UNL1       -0.2713
      6 C           3.7965   -0.9038   -3.7812 C.3     1  UNL1        0.1989
      7 O           5.0945   -1.4455   -4.0104 O.3     1  UNL1       -0.3710
      8 C           2.7938   -1.3878   -4.8215 C.2     1  UNL1        0.0547
      9 C           3.1950   -1.7781   -6.0531 C.2     1  UNL1       -0.0868
     10 C           1.3796   -1.4559   -4.5731 C.ar    1  UNL1        0.2578
     11 N           0.5303   -2.2803   -5.1543 N.ar    1  UNL1       -0.1872
     12 C          -0.6832   -1.9810   -4.5868 C.ar    1  UNL1        0.2024
     13 N          -0.6256   -0.9883   -3.6899 N.ar    1  UNL1       -0.0557
     14 O           0.7217   -0.6422   -3.6723 O.2     1  UNL1       -0.3327
     15 C          -1.8898   -2.6890   -4.9879 C.ar    1  UNL1        0.0225
     16 C          -1.7889   -3.7703   -5.8786 C.ar    1  UNL1       -0.0509
     17 C          -2.9267   -4.4350   -6.3279 C.ar    1  UNL1       -0.0611
     18 C          -4.1824   -4.0335   -5.8873 C.ar    1  UNL1       -0.0617
     19 C          -4.3016   -2.9737   -4.9852 C.ar    1  UNL1       -0.0611
     20 C          -3.1583   -2.3052   -4.5330 C.ar    1  UNL1       -0.0509
     21 C           3.8873    0.5981   -3.7355 C.ar    1  UNL1        0.0202
     22 C           4.2955    1.4703   -4.7366 C.ar    1  UNL1       -0.0349
     23 C           4.2342    2.8360   -4.4749 C.ar    1  UNL1        0.0415
     24 CL          4.7085    3.9525   -5.6950 Cl      1  UNL1       -0.0835
     25 C           3.7793    3.3110   -3.2339 C.ar    1  UNL1       -0.0416
     26 C           3.3880    2.4211   -2.2237 C.ar    1  UNL1       -0.0385
     27 C           3.4549    1.0663   -2.4913 C.ar    1  UNL1        0.0431
     28 H           0.8218    0.1868    0.8241 H       1  UNL1        0.0245
     29 H           0.7703    1.0576   -0.7201 H       1  UNL1        0.0245
     30 H           0.6836   -0.7097   -0.6981 H       1  UNL1        0.0245
     31 H           3.1221    0.9475    0.1948 H       1  UNL1        0.0466
     32 H           2.9955   -0.8094    0.2467 H       1  UNL1        0.0466
     33 H           5.0412   -2.3753   -3.7183 H       1  UNL1        0.2116
     34 H           2.4895   -2.1088   -6.8130 H       1  UNL1        0.0540
     35 H           4.2390   -1.7471   -6.3509 H       1  UNL1        0.0540
     36 H          -0.8108   -4.0949   -6.2356 H       1  UNL1        0.0625
     37 H          -2.8280   -5.2632   -7.0257 H       1  UNL1        0.0618
     38 H          -5.0713   -4.5422   -6.2458 H       1  UNL1        0.0618
     39 H          -5.2818   -2.6640   -4.6367 H       1  UNL1        0.0618
     40 H          -3.2696   -1.4777   -3.8347 H       1  UNL1        0.0625
     41 H           4.6454    1.0939   -5.6929 H       1  UNL1        0.0637
     42 H           3.7301    4.3828   -3.0526 H       1  UNL1        0.0633
     43 H           3.0414    2.8034   -1.2713 H       1  UNL1        0.0637
@<TRIPOS>BOND
     1     1    28    1
     2     1    29    1
     3     1    30    1
     4     2     1    1
     5     2    31    1
     6     2    32    1
     7     3     2    1
     8     4     3   am
     9     5     4    2
    10     6     4    1
    11     7    33    1
    12     9     8    2
    13     9    34    1
    14     9    35    1
    15    10     8    1
    16    11    10   ar
    17    12    11   ar
    18    13    12   ar
    19    14    13   ar
    20    14    10   ar
    21    15    12    1
    22    16    15   ar
    23    16    36    1
    24    17    16   ar
    25    17    37    1
    26    18    17   ar
    27    18    38    1
    28    19    18   ar
    29    19    39    1
    30    20    19   ar
    31    20    15   ar
    32    20    40    1
    33    21     6    1
    34    22    21   ar
    35    22    41    1
    36    23    22   ar
    37    24    23    1
    38    25    23   ar
    39    25    42    1
    40    26    25   ar
    41    26    43    1
    42    27    26   ar
    43    27     3    1
    44    27    21   ar
    45     6     8    1
    46     6     7    1
