@<TRIPOS>MOLECULE
>145.sdf
 47 49 0 0 0
SMALL
GASTEIGER

@<TRIPOS>ATOM
      1 C           0.4893    0.0401   -2.6003 C.3     1  UNL1       -0.0444
      2 C           1.3570    1.2099   -3.0711 C.3     1  UNL1        0.0306
      3 C           0.4549    2.3288   -3.6150 C.3     1  UNL1       -0.0444
      4 N           2.3217    1.6106   -2.0411 N.ar    1  UNL1       -0.3240
      5 C           2.1361    2.5478   -1.0333 C.ar    1  UNL1        0.1072
      6 C           0.8856    3.2914   -0.7399 C.3     1  UNL1       -0.0063
      7 N           3.2327    2.7093   -0.3243 N.ar    1  UNL1       -0.2402
      8 C           4.1324    1.8284   -0.8286 C.ar    1  UNL1        0.0552
      9 C           3.6149    1.1060   -1.8900 C.ar    1  UNL1        0.0875
     10 C           4.2843    0.0412   -2.6409 C.ar    1  UNL1        0.0939
     11 N           3.4996   -0.9328   -3.1360 N.ar    1  UNL1       -0.2127
     12 C           4.1057   -1.9618   -3.7497 C.ar    1  UNL1        0.2200
     13 N           3.2545   -2.9290   -4.3016 N.pl3   1  UNL1       -0.2836
     14 C           3.4946   -3.7971   -5.3809 C.ar    1  UNL1        0.0337
     15 C           4.7721   -4.2765   -5.7028 C.ar    1  UNL1       -0.0387
     16 C           5.0018   -5.0183   -6.8627 C.ar    1  UNL1       -0.0351
     17 C           3.9338   -5.3249   -7.7002 C.ar    1  UNL1        0.0880
     18 C           2.6379   -4.9260   -7.3692 C.ar    1  UNL1       -0.0351
     19 C           2.4234   -4.1778   -6.2054 C.ar    1  UNL1       -0.0387
     20 S           4.2528   -6.1276   -9.2510 S.O2    1  UNL1       -0.0059
     21 C           4.2328   -7.8494   -8.8472 C.3     1  UNL1        0.0596
     22 O           3.1270   -5.8562  -10.1233 O.2     1  UNL1       -0.1696
     23 O           5.6036   -5.7764   -9.6539 O.2     1  UNL1       -0.1696
     24 N           5.4349   -2.0632   -3.8753 N.ar    1  UNL1       -0.2226
     25 C           6.1892   -1.0800   -3.3708 C.ar    1  UNL1        0.0333
     26 C           5.6606    0.0138   -2.7435 C.ar    1  UNL1       -0.0159
     27 H          -0.2967   -0.1835   -3.3300 H       1  UNL1        0.0249
     28 H           1.0773   -0.8719   -2.4693 H       1  UNL1        0.0249
     29 H           0.0113    0.2568   -1.6395 H       1  UNL1        0.0249
     30 H           1.9528    0.8904   -3.9343 H       1  UNL1        0.0523
     31 H          -0.3539    2.5794   -2.9216 H       1  UNL1        0.0249
     32 H           1.0213    3.2383   -3.8384 H       1  UNL1        0.0249
     33 H          -0.0351    2.0034   -4.5400 H       1  UNL1        0.0249
     34 H           0.7019    4.0627   -1.4930 H       1  UNL1        0.0307
     35 H           0.0272    2.6186   -0.6721 H       1  UNL1        0.0307
     36 H           0.9743    3.8028    0.2249 H       1  UNL1        0.0307
     37 H           5.1148    1.7358   -0.3838 H       1  UNL1        0.0852
     38 H           2.3032   -2.6100   -4.1877 H       1  UNL1        0.1550
     39 H           5.6261   -4.0534   -5.0700 H       1  UNL1        0.0637
     40 H           6.0190   -5.3121   -7.1115 H       1  UNL1        0.0637
     41 H           1.7988   -5.1541   -8.0225 H       1  UNL1        0.0637
     42 H           1.4121   -3.8480   -5.9778 H       1  UNL1        0.0637
     43 H           3.2457   -8.1134   -8.4653 H       1  UNL1        0.0468
     44 H           4.4407   -8.4104   -9.7613 H       1  UNL1        0.0468
     45 H           5.0059   -8.0528   -8.1046 H       1  UNL1        0.0468
     46 H           7.2611   -1.2076   -3.4869 H       1  UNL1        0.0831
     47 H           6.3013    0.7885   -2.3452 H       1  UNL1        0.0655
@<TRIPOS>BOND
     1     1    27    1
     2     1    28    1
     3     1    29    1
     4     2     1    1
     5     2    30    1
     6     3     2    1
     7     3    31    1
     8     3    32    1
     9     3    33    1
    10     4     2    1
    11     5     4   ar
    12     6     5    1
    13     6    34    1
    14     6    35    1
    15     6    36    1
    16     7     5   ar
    17     8     7   ar
    18     8    37    1
    19     9     8   ar
    20     9     4   ar
    21    10     9    1
    22    11    10   ar
    23    12    11   ar
    24    13    12    1
    25    13    38    1
    26    14    13    1
    27    15    14   ar
    28    15    39    1
    29    16    15   ar
    30    16    40    1
    31    17    16   ar
    32    18    17   ar
    33    18    41    1
    34    19    18   ar
    35    19    14   ar
    36    19    42    1
    37    20    17    1
    38    21    20    1
    39    21    43    1
    40    21    44    1
    41    21    45    1
    42    22    20    2
    43    23    20    2
    44    24    12   ar
    45    25    24   ar
    46    25    46    1
    47    26    25   ar
    48    26    10   ar
    49    26    47    1
