@<TRIPOS>MOLECULE
>49.sdf
 64 68 0 0 0
SMALL
GASTEIGER

@<TRIPOS>ATOM
      1 C           5.3367    2.8412   -1.8327 C.3     1  UNL1        0.0131
      2 C           4.3368    1.7193   -2.0265 C.2     1  UNL1        0.2225
      3 O           4.4002    1.0491   -3.0643 O.2     1  UNL1       -0.2752
      4 N           3.3961    1.5219   -1.0034 N.am    1  UNL1       -0.2180
      5 C           2.7791    2.5852   -0.3456 C.2     1  UNL1        0.1870
      6 N           2.3630    2.5528    0.8803 N.2     1  UNL1       -0.1526
      7 N           1.6634    3.6981    1.2155 N.am    1  UNL1       -0.1730
      8 C           1.3977    4.6381    0.1264 C.3     1  UNL1        0.1300
      9 S           2.4340    4.0353   -1.2429 S.3     1  UNL1       -0.0587
     10 C           1.7553    6.0444    0.4753 C.ar    1  UNL1        0.0310
     11 C           2.7207    6.4575    1.3667 C.ar    1  UNL1        0.0377
     12 N           2.6346    7.8208    1.4762 N.ar    1  UNL1       -0.2389
     13 N           1.6765    8.3196    0.6556 N.ar    1  UNL1       -0.1660
     14 C           1.1556    7.2602    0.0112 C.ar    1  UNL1        0.0989
     15 C           0.1173    7.4357   -1.0216 C.ar    1  UNL1        0.0025
     16 C           0.0582    6.5914   -2.1383 C.ar    1  UNL1       -0.0523
     17 C          -0.9123    6.7416   -3.1288 C.ar    1  UNL1       -0.0582
     18 C          -1.8375    7.7781   -3.0489 C.ar    1  UNL1       -0.0504
     19 C          -2.8412    7.9753   -4.1447 C.3     1  UNL1       -0.0397
     20 C          -1.7835    8.6454   -1.9508 C.ar    1  UNL1       -0.0582
     21 C          -0.8183    8.4737   -0.9448 C.ar    1  UNL1       -0.0523
     22 C           3.4378    8.6546    2.3057 C.ar    1  UNL1        0.0654
     23 C           4.4973    8.1090    3.0476 C.ar    1  UNL1       -0.0360
     24 C           5.3057    8.9280    3.8368 C.ar    1  UNL1       -0.0568
     25 C           5.0681   10.3010    3.9062 C.ar    1  UNL1       -0.0503
     26 C           5.9428   11.1801    4.7501 C.3     1  UNL1       -0.0397
     27 C           3.9987   10.8437    3.1802 C.ar    1  UNL1       -0.0568
     28 C           3.1889   10.0293    2.3810 C.ar    1  UNL1       -0.0360
     29 C           0.9721    3.7874    2.4140 C.2     1  UNL1        0.2330
     30 C           1.1747    2.6772    3.4152 C.3     1  UNL1        0.0141
     31 O           0.2277    4.7306    2.6889 O.2     1  UNL1       -0.2741
     32 C           2.8493    0.1850   -0.8068 C.ar    1  UNL1        0.0432
     33 C           3.5536   -0.9619   -1.2135 C.ar    1  UNL1       -0.0399
     34 C           3.0315   -2.2481   -1.0205 C.ar    1  UNL1       -0.0600
     35 C           1.7947   -2.4204   -0.4092 C.ar    1  UNL1       -0.0616
     36 C           1.0707   -1.3061   -0.0084 C.ar    1  UNL1       -0.0600
     37 C           1.5872   -0.0238   -0.2142 C.ar    1  UNL1       -0.0399
     38 H           6.3447    2.4134   -1.8265 H       1  UNL1        0.0323
     39 H           5.2550    3.5409   -2.6711 H       1  UNL1        0.0323
     40 H           5.2120    3.3846   -0.8947 H       1  UNL1        0.0323
     41 H           0.3378    4.5436   -0.1305 H       1  UNL1        0.0692
     42 H           3.4039    5.8727    1.9602 H       1  UNL1        0.0834
     43 H           0.7884    5.8144   -2.3000 H       1  UNL1        0.0624
     44 H          -0.9166    6.0541   -3.9715 H       1  UNL1        0.0620
     45 H          -3.8579    7.9314   -3.7440 H       1  UNL1        0.0278
     46 H          -2.6789    8.9409   -4.6330 H       1  UNL1        0.0278
     47 H          -2.7512    7.1971   -4.9113 H       1  UNL1        0.0278
     48 H          -2.4869    9.4719   -1.8745 H       1  UNL1        0.0620
     49 H          -0.7955    9.1673   -0.1065 H       1  UNL1        0.0624
     50 H           4.7381    7.0516    3.0284 H       1  UNL1        0.0639
     51 H           6.1271    8.4803    4.3922 H       1  UNL1        0.0621
     52 H           6.3774   11.9778    4.1401 H       1  UNL1        0.0278
     53 H           5.3620   11.6187    5.5670 H       1  UNL1        0.0278
     54 H           6.7699   10.6126    5.1910 H       1  UNL1        0.0278
     55 H           3.7908   11.9114    3.2328 H       1  UNL1        0.0621
     56 H           2.3661   10.4797    1.8276 H       1  UNL1        0.0639
     57 H           1.8980    2.9972    4.1701 H       1  UNL1        0.0323
     58 H           0.2137    2.4736    3.8990 H       1  UNL1        0.0323
     59 H           1.5109    1.7430    2.9626 H       1  UNL1        0.0323
     60 H           4.5295   -0.8911   -1.6873 H       1  UNL1        0.0636
     61 H           3.5970   -3.1149   -1.3526 H       1  UNL1        0.0618
     62 H           1.3938   -3.4183   -0.2533 H       1  UNL1        0.0618
     63 H           0.0967   -1.4282    0.4596 H       1  UNL1        0.0618
     64 H           0.9479    0.8030    0.0838 H       1  UNL1        0.0636
@<TRIPOS>BOND
     1     1    38    1
     2     1    39    1
     3     1    40    1
     4     2     1    1
     5     3     2    2
     6     4     2   am
     7     5     4    1
     8     6     5    2
     9     7     6    1
    10     8     7    1
    11     8    41    1
    12     9     8    1
    13     9     5    1
    14    10     8    1
    15    11    10   ar
    16    11    42    1
    17    12    11   ar
    18    13    12   ar
    19    14    13   ar
    20    14    10   ar
    21    15    14    1
    22    16    15   ar
    23    16    43    1
    24    17    16   ar
    25    17    44    1
    26    18    17   ar
    27    19    18    1
    28    19    45    1
    29    19    46    1
    30    19    47    1
    31    20    18   ar
    32    20    48    1
    33    21    20   ar
    34    21    15   ar
    35    21    49    1
    36    22    12    1
    37    23    22   ar
    38    23    50    1
    39    24    23   ar
    40    24    51    1
    41    25    24   ar
    42    26    25    1
    43    26    52    1
    44    26    53    1
    45    26    54    1
    46    27    25   ar
    47    27    55    1
    48    28    27   ar
    49    28    22   ar
    50    28    56    1
    51    29     7   am
    52    30    29    1
    53    30    57    1
    54    30    58    1
    55    30    59    1
    56    31    29    2
    57    32     4    1
    58    33    32   ar
    59    33    60    1
    60    34    33   ar
    61    34    61    1
    62    35    34   ar
    63    35    62    1
    64    36    35   ar
    65    36    63    1
    66    37    36   ar
    67    37    32   ar
    68    37    64    1
