@<TRIPOS>MOLECULE
>211.sdf
 47 50 0 0 0
SMALL
GASTEIGER

@<TRIPOS>ATOM
      1 O           2.8423    1.4494    1.6640 O.2     1  UNL1       -0.1231
      2 N           3.7885    1.6937    0.9050 N.pl3   1  UNL1        0.0926
      3 O           4.8739    2.1910    1.2280 O.2     1  UNL1       -0.1231
      4 C           3.5941    1.3650   -0.4732 C.ar    1  UNL1        0.2803
      5 C           2.5135    0.8564   -1.1501 C.ar    1  UNL1        0.0086
      6 C           2.9425    0.7457   -2.4957 C.ar    1  UNL1       -0.0114
      7 C           4.2569    1.1903   -2.5565 C.ar    1  UNL1        0.1645
      8 O           4.6506    1.5705   -1.2942 O.2     1  UNL1       -0.4318
      9 C           5.1071    1.2638   -3.7032 C.ar    1  UNL1        0.1687
     10 N           4.6994    0.9424   -4.9111 N.ar    1  UNL1       -0.1364
     11 N           5.6906    1.1137   -5.8467 N.ar    1  UNL1       -0.1254
     12 C           6.8381    1.5108   -5.3300 C.ar    1  UNL1        0.1845
     13 S           6.7343    1.7773   -3.6238 S.2     1  UNL1       -0.0276
     14 N           7.9671    1.7012   -6.0766 N.pl3   1  UNL1       -0.3078
     15 C           7.7787    2.2115   -7.4274 C.3     1  UNL1        0.0191
     16 C           8.7644    1.5412   -8.3649 C.3     1  UNL1        0.0062
     17 C          10.2095    1.5605   -7.8632 C.3     1  UNL1       -0.0180
     18 C          10.3256    1.1591   -6.3928 C.3     1  UNL1        0.0062
     19 C           9.2780    1.7808   -5.4653 C.3     1  UNL1        0.0191
     20 N          10.9979    2.8468   -8.1932 N.4     1  UNL1        0.2375
     21 C          11.0838    3.0890   -9.6951 C.3     1  UNL1       -0.0316
     22 C          12.0300    4.2422   -9.9976 C.3     1  UNL1       -0.0123
     23 C          11.6110    5.5056   -9.2606 C.3     1  UNL1       -0.0434
     24 C          11.5720    5.2428   -7.7654 C.3     1  UNL1       -0.0123
     25 C          10.6321    4.0964   -7.4285 C.3     1  UNL1       -0.0316
     26 H           1.5485    0.6028   -0.7335 H       1  UNL1        0.0673
     27 H           2.3681    0.3799   -3.3391 H       1  UNL1        0.0657
     28 H           7.8856    3.2993   -7.4351 H       1  UNL1        0.0466
     29 H           6.7695    2.0175   -7.8125 H       1  UNL1        0.0466
     30 H           8.6582    1.9430   -9.3755 H       1  UNL1        0.0335
     31 H           8.4648    0.4858   -8.4429 H       1  UNL1        0.0335
     32 H          10.7548    0.7953   -8.4325 H       1  UNL1        0.0852
     33 H          10.1757    0.0704   -6.3457 H       1  UNL1        0.0335
     34 H          11.3360    1.3366   -6.0029 H       1  UNL1        0.0335
     35 H           9.3230    1.2139   -4.5248 H       1  UNL1        0.0466
     36 H           9.5128    2.8140   -5.2030 H       1  UNL1        0.0466
     37 H          11.9647    2.6309   -7.9101 H       1  UNL1        0.2036
     38 H          10.0784    3.3192  -10.0575 H       1  UNL1        0.0814
     39 H          11.4458    2.1646  -10.1561 H       1  UNL1        0.0814
     40 H          12.0361    4.4337  -11.0762 H       1  UNL1        0.0317
     41 H          13.0534    3.9701   -9.7128 H       1  UNL1        0.0317
     42 H          12.3082    6.3208   -9.4794 H       1  UNL1        0.0269
     43 H          10.6195    5.8264   -9.6049 H       1  UNL1        0.0269
     44 H          12.5817    5.0141   -7.4021 H       1  UNL1        0.0317
     45 H          11.2420    6.1458   -7.2392 H       1  UNL1        0.0317
     46 H          10.7383    3.8795   -6.3675 H       1  UNL1        0.0814
     47 H           9.6044    4.3614   -7.6776 H       1  UNL1        0.0814
@<TRIPOS>UNITY_ATOM_ATTR
20 1
charge 1
@<TRIPOS>BOND
     1     2     1    2
     2     3     2    2
     3     4     2    1
     4     5     4   ar
     5     5    26    1
     6     6     5   ar
     7     6    27    1
     8     7     6   ar
     9     8     7   ar
    10     8     4   ar
    11     9     7    1
    12    10     9   ar
    13    11    10   ar
    14    12    11   ar
    15    13    12   ar
    16    13     9   ar
    17    14    12    1
    18    15    14    1
    19    15    28    1
    20    15    29    1
    21    16    15    1
    22    16    30    1
    23    16    31    1
    24    17    16    1
    25    17    32    1
    26    18    17    1
    27    18    33    1
    28    18    34    1
    29    19    18    1
    30    19    14    1
    31    19    35    1
    32    19    36    1
    33    20    17    1
    34    20    37    1
    35    21    20    1
    36    21    38    1
    37    21    39    1
    38    22    21    1
    39    22    40    1
    40    22    41    1
    41    23    22    1
    42    23    42    1
    43    23    43    1
    44    24    23    1
    45    24    44    1
    46    24    45    1
    47    25    24    1
    48    25    20    1
    49    25    46    1
    50    25    47    1
