@<TRIPOS>MOLECULE
>207.sdf
 42 44 0 0 0
SMALL
GASTEIGER

@<TRIPOS>ATOM
      1 C           2.9707   -1.0283   -1.1519 C.3     1  UNL1        0.0672
      2 N           2.5727   -0.2347    0.0009 N.pl3   1  UNL1       -0.2356
      3 C           3.2948    0.9599    0.2210 C.2     1  UNL1        0.3283
      4 N           4.2385    1.3125   -0.6565 N.2     1  UNL1        0.0212
      5 C           4.9173    2.4261   -0.4791 C.cat   1  UNL1        0.3939
      6 N           5.8248    2.8710   -1.4014 N.pl3   1  UNL1       -0.2268
      7 C           6.0949    1.9208   -2.4701 C.3     1  UNL1        0.0841
      8 C           7.1710    2.4489   -3.3924 C.ar    1  UNL1       -0.0157
      9 C           8.4985    2.0226   -3.2624 C.ar    1  UNL1       -0.0523
     10 C           9.4897    2.5314   -4.1065 C.ar    1  UNL1       -0.0196
     11 C           9.1748    3.4600   -5.1007 C.ar    1  UNL1        0.1201
     12 O          10.2451    3.9229   -5.8147 O.3     1  UNL1       -0.4951
     13 C           9.9793    4.4162   -7.1216 C.3     1  UNL1        0.0788
     14 C           7.8538    3.8809   -5.2447 C.ar    1  UNL1       -0.0196
     15 C           6.8600    3.3816   -4.3921 C.ar    1  UNL1       -0.0523
     16 N           4.7797    3.1822    0.5786 N.2     1  UNL1       -0.3477
     17 C           3.7492    2.9345    1.4184 C.ar    1  UNL1        0.0852
     18 C           3.4398    3.8273    2.4458 C.ar    1  UNL1       -0.0251
     19 C           2.3940    3.5998    3.3502 C.ar    1  UNL1       -0.0586
     20 C           1.6280    2.4488    3.2446 C.ar    1  UNL1       -0.0607
     21 C           1.9073    1.5439    2.2253 C.ar    1  UNL1       -0.0436
     22 C           2.9627    1.7856    1.3036 C.ar    1  UNL1        0.1012
     23 H           3.4536   -1.9523   -0.8184 H       1  UNL1        0.0687
     24 H           2.0729   -1.3022   -1.7140 H       1  UNL1        0.0687
     25 H           3.6450   -0.5354   -1.8597 H       1  UNL1        0.0687
     26 H           2.5835   -0.7780    0.8587 H       1  UNL1        0.2911
     27 H           6.6386    3.2779   -0.9717 H       1  UNL1        0.2456
     28 H           6.4168    0.9504   -2.0684 H       1  UNL1        0.0684
     29 H           5.1900    1.7402   -3.0668 H       1  UNL1        0.0684
     30 H           8.7727    1.2923   -2.5047 H       1  UNL1        0.0622
     31 H          10.5187    2.1998   -3.9902 H       1  UNL1        0.0654
     32 H           9.6376    3.6057   -7.7731 H       1  UNL1        0.0660
     33 H           9.2705    5.2489   -7.1222 H       1  UNL1        0.0660
     34 H          10.9218    4.7991   -7.5265 H       1  UNL1        0.0660
     35 H           7.5646    4.6182   -5.9852 H       1  UNL1        0.0654
     36 H           5.8351    3.7318   -4.5039 H       1  UNL1        0.0622
     37 H           4.0212    4.7395    2.5518 H       1  UNL1        0.0651
     38 H           2.1786    4.3289    4.1274 H       1  UNL1        0.0619
     39 H           0.8064    2.2662    3.9310 H       1  UNL1        0.0618
     40 H           1.2846    0.6605    2.1223 H       1  UNL1        0.0627
     41 H           4.8904    4.1284    0.3462 H       1  UNL1        0.2241
     42 H           5.6033    3.0710    1.1054 H       1  UNL1        0.2241
@<TRIPOS>BOND
     1     1    23    1
     2     1    24    1
     3     1    25    1
     4     2     1    1
     5     2    26    1
     6     3     2    1
     7     4     3    2
     8     5     4    1
     9     6     5    1
    10     6    27    1
    11     7     6    1
    12     7    28    1
    13     7    29    1
    14     8     7    1
    15     9     8   ar
    16     9    30    1
    17    10     9   ar
    18    10    31    1
    19    11    10   ar
    20    12    11    1
    21    13    12    1
    22    13    32    1
    23    13    33    1
    24    13    34    1
    25    14    11   ar
    26    14    35    1
    27    15    14   ar
    28    15     8   ar
    29    15    36    1
    30    16     5    2
    31    16    41    1
    32    17    16    1
    33    18    17   ar
    34    18    37    1
    35    19    18   ar
    36    19    38    1
    37    20    19   ar
    38    20    39    1
    39    21    20   ar
    40    21    40    1
    41    22    21   ar
    42    22     3    1
    43    22    17   ar
    44    16    42    1
