@<TRIPOS>MOLECULE
>178.sdf
 53 56 0 0 0
SMALL
GASTEIGER

@<TRIPOS>ATOM
      1 C           1.1748   -0.3384    0.1226 C.3     1  UNL1        0.0037
      2 N           2.5886   -0.0229    0.1032 N.pl3   1  UNL1       -0.2992
      3 C           3.2784    0.0990   -1.1919 C.3     1  UNL1        0.0355
      4 C           4.3806   -0.9695   -1.3233 C.3     1  UNL1        0.0063
      5 C           5.2674   -0.7677   -2.5372 C.3     1  UNL1       -0.0304
      6 N           5.7784    0.6458   -2.5984 N.4     1  UNL1        0.2332
      7 C           6.8089    0.9805   -1.5411 C.3     1  UNL1       -0.0431
      8 C           4.6432    1.6296   -2.6958 C.3     1  UNL1       -0.0304
      9 C           3.7367    1.5378   -1.4802 C.3     1  UNL1        0.0063
     10 C           3.2958   -0.0150    1.2970 C.ar    1  UNL1        0.2201
     11 N           2.9069   -0.7792    2.3380 N.ar    1  UNL1       -0.1982
     12 C           3.6285   -0.8319    3.5081 C.ar    1  UNL1        0.1411
     13 N           3.2546   -1.7167    4.5173 N.pl3   1  UNL1       -0.3101
     14 C           4.2521   -2.2639    5.4417 C.3     1  UNL1        0.0139
     15 C           3.9889   -3.7585    5.4556 C.3     1  UNL1       -0.0355
     16 C           2.4907   -3.8502    5.2883 C.3     1  UNL1       -0.0320
     17 C           2.1270   -2.6727    4.3572 C.3     1  UNL1        0.0376
     18 C           0.8093   -2.0432    4.8110 C.3     1  UNL1        0.0533
     19 C          -0.3586   -3.0159    4.7996 C.1     1  UNL1        0.0644
     20 N          -1.3275   -3.8230    4.7902 N.1     1  UNL1       -0.1965
     21 C           4.7188    0.0759    3.5856 C.ar    1  UNL1        0.0776
     22 S           5.7956    0.4928    4.8813 S.2     1  UNL1       -0.0917
     23 C           6.7103    1.5589    3.9200 C.ar    1  UNL1       -0.0216
     24 C           6.1821    1.6768    2.6602 C.ar    1  UNL1       -0.0285
     25 C           5.0539    0.8249    2.4650 C.ar    1  UNL1        0.0850
     26 N           4.3911    0.7412    1.3059 N.ar    1  UNL1       -0.2137
     27 H           0.6256    0.4318   -0.4322 H       1  UNL1        0.0429
     28 H           0.9874   -1.2981   -0.3694 H       1  UNL1        0.0429
     29 H           0.7415   -0.3688    1.1274 H       1  UNL1        0.0429
     30 H           2.5497   -0.1352   -1.9827 H       1  UNL1        0.0504
     31 H           3.9137   -1.9613   -1.3802 H       1  UNL1        0.0335
     32 H           5.0150   -1.0073   -0.4326 H       1  UNL1        0.0335
     33 H           4.7157   -0.9459   -3.4670 H       1  UNL1        0.0815
     34 H           6.1366   -1.4338   -2.5213 H       1  UNL1        0.0815
     35 H           6.2844    0.7222   -3.4918 H       1  UNL1        0.2030
     36 H           7.7832    1.0089   -2.0367 H       1  UNL1        0.0777
     37 H           6.5862    1.9590   -1.1088 H       1  UNL1        0.0777
     38 H           6.8139    0.2121   -0.7655 H       1  UNL1        0.0777
     39 H           5.0812    2.6276   -2.8062 H       1  UNL1        0.0815
     40 H           4.1001    1.3943   -3.6182 H       1  UNL1        0.0815
     41 H           2.8574    2.1719   -1.6423 H       1  UNL1        0.0335
     42 H           4.2594    1.9911   -0.6354 H       1  UNL1        0.0335
     43 H           4.0920   -1.8276    6.4351 H       1  UNL1        0.0464
     44 H           5.2918   -2.1198    5.1426 H       1  UNL1        0.0464
     45 H           4.4963   -4.2368    4.6102 H       1  UNL1        0.0281
     46 H           4.3416   -4.2281    6.3787 H       1  UNL1        0.0281
     47 H           2.1875   -4.8134    4.8654 H       1  UNL1        0.0284
     48 H           2.0115   -3.7525    6.2702 H       1  UNL1        0.0284
     49 H           2.0660   -3.0413    3.3252 H       1  UNL1        0.0510
     50 H           0.9065   -1.6295    5.8229 H       1  UNL1        0.0436
     51 H           0.5578   -1.1997    4.1565 H       1  UNL1        0.0436
     52 H           7.5719    2.0691    4.3305 H       1  UNL1        0.0694
     53 H           6.5790    2.3430    1.9067 H       1  UNL1        0.0644
@<TRIPOS>UNITY_ATOM_ATTR
6 1
charge 1
@<TRIPOS>BOND
     1     1    27    1
     2     1    28    1
     3     1    29    1
     4     2     1    1
     5     3     2    1
     6     3    30    1
     7     4     3    1
     8     4    31    1
     9     4    32    1
    10     5     4    1
    11     5    33    1
    12     5    34    1
    13     6     5    1
    14     7    36    1
    15     7    37    1
    16     7    38    1
    17     8     6    1
    18     8    39    1
    19     8    40    1
    20     9     8    1
    21     9     3    1
    22     9    41    1
    23     9    42    1
    24    10     2    1
    25    11    10   ar
    26    12    11   ar
    27    13    12    1
    28    14    13    1
    29    14    43    1
    30    14    44    1
    31    15    14    1
    32    15    45    1
    33    15    46    1
    34    16    15    1
    35    16    47    1
    36    16    48    1
    37    17    16    1
    38    17    13    1
    39    17    49    1
    40    18    17    1
    41    18    50    1
    42    18    51    1
    43    19    18    1
    44    20    19    3
    45    21    12   ar
    46    22    21   ar
    47    23    22   ar
    48    23    52    1
    49    24    23   ar
    50    24    53    1
    51    25    24   ar
    52    25    21   ar
    53    26    25   ar
    54    26    10   ar
    55     6     7    1
    56     6    35    1
