@<TRIPOS>MOLECULE
>34.sdf
 45 48 0 0 0
SMALL
GASTEIGER

@<TRIPOS>ATOM
      1 CL          0.1670   -0.9115   -5.1836 Cl      1  UNL1       -0.0835
      2 C           1.3016   -0.6249   -3.9232 C.ar    1  UNL1        0.0410
      3 C           1.6056    0.6889   -3.5515 C.ar    1  UNL1       -0.0427
      4 C           2.5390    0.9247   -2.5246 C.ar    1  UNL1       -0.0496
      5 C           3.1586   -0.1415   -1.8821 C.ar    1  UNL1        0.0217
      6 C           2.8284   -1.4477   -2.2550 C.ar    1  UNL1       -0.0496
      7 C           1.9015   -1.6892   -3.2731 C.ar    1  UNL1       -0.0427
      8 C           4.1808    0.0395   -0.7999 C.2     1  UNL1        0.1861
      9 O           4.3876   -0.8923   -0.0252 O.2     1  UNL1       -0.2873
     10 C           4.9516    1.3056   -0.7034 C.2     1  UNL1       -0.0138
     11 C           6.0309    1.3567    0.0966 C.2     1  UNL1       -0.0509
     12 C           6.8477    2.5659    0.2129 C.ar    1  UNL1       -0.0232
     13 C           6.5953    3.5085    1.2258 C.ar    1  UNL1       -0.0334
     14 C           7.3752    4.6779    1.3331 C.ar    1  UNL1        0.0319
     15 N           7.1869    5.6060    2.4165 N.pl3   1  UNL1       -0.3139
     16 C           8.2221    5.8910    3.3935 C.ar    1  UNL1        0.0420
     17 C           9.4249    5.1983    3.3342 C.ar    1  UNL1       -0.0218
     18 C           9.9535    4.7656    4.5217 C.ar    1  UNL1        0.0300
     19 N           9.4458    5.0905    5.7230 N.ar    1  UNL1       -0.2548
     20 C           8.4959    6.0330    5.7596 C.ar    1  UNL1        0.0738
     21 C           7.8874    6.5552    4.6016 C.ar    1  UNL1        0.0216
     22 C           7.0370    7.6855    4.7271 C.ar    1  UNL1       -0.0497
     23 C           6.8131    8.2658    5.9817 C.ar    1  UNL1       -0.0470
     24 C           7.3343    7.6520    7.1155 C.ar    1  UNL1        0.0199
     25 BR          7.0283    8.3880    8.8305 Br      1  UNL1       -0.0502
     26 C           8.1358    6.5219    6.9989 C.ar    1  UNL1       -0.0217
     27 C           8.3704    4.9058    0.3766 C.ar    1  UNL1       -0.0405
     28 C           8.6559    3.9524   -0.6013 C.ar    1  UNL1       -0.0595
     29 C           7.8973    2.7852   -0.6847 C.ar    1  UNL1       -0.0545
     30 H           1.1214    1.5225   -4.0467 H       1  UNL1        0.0632
     31 H           2.7310    1.9547   -2.2471 H       1  UNL1        0.0625
     32 H           3.2952   -2.3009   -1.7487 H       1  UNL1        0.0625
     33 H           1.6655   -2.7154   -3.5544 H       1  UNL1        0.0632
     34 H           4.6576    2.1545   -1.2986 H       1  UNL1        0.0656
     35 H           6.3563    0.4908    0.6678 H       1  UNL1        0.0625
     36 H           5.8044    3.3028    1.9439 H       1  UNL1        0.0642
     37 H           6.4394    5.2005    2.9932 H       1  UNL1        0.1522
     38 H           9.8762    4.8735    2.4094 H       1  UNL1        0.0651
     39 H          10.7833    4.0698    4.5300 H       1  UNL1        0.0830
     40 H           6.6418    8.1782    3.8388 H       1  UNL1        0.0625
     41 H           6.2525    9.1939    6.0680 H       1  UNL1        0.0629
     42 H           8.5401    6.0345    7.8816 H       1  UNL1        0.0650
     43 H           8.9641    5.8149    0.4268 H       1  UNL1        0.0636
     44 H           9.4779    4.1205   -1.2920 H       1  UNL1        0.0618
     45 H           8.1328    2.0521   -1.4534 H       1  UNL1        0.0623
@<TRIPOS>BOND
     1     2     1    1
     2     3     2   ar
     3     3    30    1
     4     4     3   ar
     5     4    31    1
     6     5     4   ar
     7     6     5   ar
     8     6    32    1
     9     7     6   ar
    10     7     2   ar
    11     7    33    1
    12     8     5    1
    13     9     8    2
    14    10     8    1
    15    10    34    1
    16    11    10    2
    17    11    35    1
    18    12    11    1
    19    13    12   ar
    20    13    36    1
    21    14    13   ar
    22    15    14    1
    23    15    37    1
    24    16    15    1
    25    17    16   ar
    26    17    38    1
    27    18    17   ar
    28    18    39    1
    29    19    18   ar
    30    20    19   ar
    31    21    20   ar
    32    21    16   ar
    33    22    21   ar
    34    22    40    1
    35    23    22   ar
    36    23    41    1
    37    24    23   ar
    38    25    24    1
    39    26    24   ar
    40    26    20   ar
    41    26    42    1
    42    27    14   ar
    43    27    43    1
    44    28    27   ar
    45    28    44    1
    46    29    28   ar
    47    29    12   ar
    48    29    45    1
