@<TRIPOS>MOLECULE
>75.sdf
 40 43 0 0 0
SMALL
GASTEIGER

@<TRIPOS>ATOM
      1 C           2.5848   -1.6958   -1.6724 C.3     1  UNL1        0.0788
      2 O           2.6805   -0.4539   -0.9874 O.3     1  UNL1       -0.4951
      3 C           3.2077    0.5961   -1.6868 C.ar    1  UNL1        0.1201
      4 C           3.6773    0.5600   -3.0006 C.ar    1  UNL1       -0.0192
      5 C           4.1784    1.7230   -3.6063 C.ar    1  UNL1       -0.0460
      6 C           4.2129    2.9382   -2.9113 C.ar    1  UNL1        0.0372
      7 C           3.7538    2.9547   -1.5844 C.ar    1  UNL1       -0.0460
      8 C           3.2554    1.7972   -0.9812 C.ar    1  UNL1       -0.0192
      9 C           4.6737    4.1617   -3.5674 C.ar    1  UNL1        0.2284
     10 N           5.1311    4.3605   -4.7949 N.ar    1  UNL1       -0.2089
     11 C           5.3082    5.7246   -4.8634 C.ar    1  UNL1        0.1105
     12 C           4.9566    6.2967   -3.6525 C.ar    1  UNL1        0.1558
     13 O           4.5635    5.3039   -2.8159 O.2     1  UNL1       -0.4353
     14 C           4.9826    7.6519   -3.3663 C.ar    1  UNL1       -0.0165
     15 C           5.4169    8.4770   -4.4087 C.ar    1  UNL1       -0.0473
     16 C           5.8178    7.9481   -5.6495 C.ar    1  UNL1        0.0245
     17 C           5.7441    6.5624   -5.9042 C.ar    1  UNL1       -0.0218
     18 C           6.2722    8.9199   -6.6797 C.2     1  UNL1        0.1932
     19 O           5.7334   10.0246   -6.7181 O.2     1  UNL1       -0.2867
     20 C           7.3716    8.6176   -7.6349 C.ar    1  UNL1        0.0223
     21 C           8.3809    7.6912   -7.3469 C.ar    1  UNL1       -0.0509
     22 C           9.3939    7.4472   -8.2773 C.ar    1  UNL1       -0.0611
     23 C           9.4188    8.1441   -9.4848 C.ar    1  UNL1       -0.0617
     24 C           8.4385    9.0954   -9.7615 C.ar    1  UNL1       -0.0611
     25 C           7.4199    9.3354   -8.8379 C.ar    1  UNL1       -0.0509
     26 H           1.9274   -1.6155   -2.5444 H       1  UNL1        0.0660
     27 H           3.5761   -2.0644   -1.9552 H       1  UNL1        0.0660
     28 H           2.1413   -2.4241   -0.9866 H       1  UNL1        0.0660
     29 H           3.6603   -0.3523   -3.5869 H       1  UNL1        0.0654
     30 H           4.5295    1.6742   -4.6360 H       1  UNL1        0.0626
     31 H           3.7640    3.8754   -1.0045 H       1  UNL1        0.0626
     32 H           2.8926    1.8382    0.0433 H       1  UNL1        0.0654
     33 H           4.6732    8.0422   -2.4068 H       1  UNL1        0.0655
     34 H           5.4408    9.5552   -4.2482 H       1  UNL1        0.0626
     35 H           5.9972    6.1354   -6.8677 H       1  UNL1        0.0647
     36 H           8.4114    7.1620   -6.3987 H       1  UNL1        0.0625
     37 H          10.1707    6.7195   -8.0552 H       1  UNL1        0.0618
     38 H          10.2104    7.9544  -10.2055 H       1  UNL1        0.0618
     39 H           8.4687    9.6546  -10.6933 H       1  UNL1        0.0618
     40 H           6.6655   10.0892   -9.0567 H       1  UNL1        0.0625
@<TRIPOS>BOND
     1     1    26    1
     2     1    27    1
     3     1    28    1
     4     2     1    1
     5     3     2    1
     6     4     3   ar
     7     4    29    1
     8     5     4   ar
     9     5    30    1
    10     6     5   ar
    11     7     6   ar
    12     7    31    1
    13     8     7   ar
    14     8     3   ar
    15     8    32    1
    16     9     6    1
    17    10     9   ar
    18    11    10   ar
    19    12    11   ar
    20    13    12   ar
    21    13     9   ar
    22    14    12   ar
    23    14    33    1
    24    15    14   ar
    25    15    34    1
    26    16    15   ar
    27    17    16   ar
    28    17    11   ar
    29    17    35    1
    30    18    16    1
    31    19    18    2
    32    20    18    1
    33    21    20   ar
    34    21    36    1
    35    22    21   ar
    36    22    37    1
    37    23    22   ar
    38    23    38    1
    39    24    23   ar
    40    24    39    1
    41    25    24   ar
    42    25    20   ar
    43    25    40    1
