@<TRIPOS>MOLECULE
>80.sdf
 44 46 0 0 0
SMALL
GASTEIGER

@<TRIPOS>ATOM
      1 C           2.7528    1.5542   -1.6605 C.3     1  UNL1       -0.0650
      2 C           2.3944    0.4347   -0.6922 C.3     1  UNL1       -0.0519
      3 C           3.0251   -0.9150   -1.0602 C.3     1  UNL1       -0.0278
      4 C           4.5378   -0.9246   -1.0484 C.ar    1  UNL1       -0.0431
      5 C           5.2393   -0.5845    0.1201 C.ar    1  UNL1       -0.0131
      6 C           6.6390   -0.5353    0.1447 C.ar    1  UNL1        0.1631
      7 O           7.1415   -0.1568    1.3584 O.3     1  UNL1       -0.4914
      8 C           8.5516   -0.0993    1.5308 C.3     1  UNL1        0.0790
      9 C           7.3272   -0.8469   -1.0296 C.ar    1  UNL1        0.1805
     10 O           8.7262   -0.7057   -1.0750 O.2     1  UNL1       -0.4179
     11 C           9.4270   -0.7678   -2.2659 C.ar    1  UNL1        0.3483
     12 O          10.5501   -0.2866   -2.3532 O.2     1  UNL1       -0.2444
     13 C           8.7740   -1.4877   -3.3757 C.ar    1  UNL1        0.1072
     14 C           7.4407   -1.6584   -3.3504 C.ar    1  UNL1       -0.0332
     15 C           6.6576   -1.2470   -2.1891 C.ar    1  UNL1        0.0222
     16 C           5.2601   -1.2817   -2.1942 C.ar    1  UNL1       -0.0476
     17 C           9.5119   -1.9829   -4.5778 C.2     1  UNL1        0.2000
     18 O           8.9317   -2.1689   -5.6478 O.2     1  UNL1       -0.2864
     19 C          10.9731   -2.2712   -4.5029 C.ar    1  UNL1        0.0229
     20 C          11.5885   -2.7776   -3.3481 C.ar    1  UNL1       -0.0445
     21 C          12.9765   -2.9536   -3.3047 C.ar    1  UNL1        0.0163
     22 C          13.7468   -2.6738   -4.4403 C.ar    1  UNL1        0.2732
     23 C          13.1347   -2.2387   -5.6226 C.ar    1  UNL1        0.0163
     24 C          11.7496   -2.0403   -5.6492 C.ar    1  UNL1       -0.0445
     25 N          15.2054   -2.8374   -4.3886 N.pl3   1  UNL1        0.0796
     26 O          15.7076   -3.1882   -3.3104 O.co2   1  UNL1       -0.5760
     27 O          15.8480   -2.6158   -5.4241 O.2     1  UNL1        0.0414
     28 H           2.2395    2.4776   -1.3732 H       1  UNL1        0.0230
     29 H           3.8280    1.7590   -1.6590 H       1  UNL1        0.0230
     30 H           2.4501    1.3017   -2.6819 H       1  UNL1        0.0230
     31 H           2.6813    0.7332    0.3225 H       1  UNL1        0.0266
     32 H           1.3041    0.3174   -0.6848 H       1  UNL1        0.0266
     33 H           2.6760   -1.6781   -0.3547 H       1  UNL1        0.0313
     34 H           2.6560   -1.2210   -2.0479 H       1  UNL1        0.0313
     35 H           4.6936   -0.3354    1.0276 H       1  UNL1        0.0658
     36 H           9.0137   -1.0785    1.3676 H       1  UNL1        0.0660
     37 H           8.9956    0.6743    0.8964 H       1  UNL1        0.0660
     38 H           8.7494    0.1843    2.5689 H       1  UNL1        0.0660
     39 H           6.9140   -2.1363   -4.1733 H       1  UNL1        0.0634
     40 H           4.7264   -1.5745   -3.0981 H       1  UNL1        0.0627
     41 H          11.0141   -3.0132   -2.4561 H       1  UNL1        0.0627
     42 H          13.4380   -3.2936   -2.3790 H       1  UNL1        0.0685
     43 H          13.7166   -2.0377   -6.5204 H       1  UNL1        0.0685
     44 H          11.2789   -1.6884   -6.5668 H       1  UNL1        0.0627
@<TRIPOS>UNITY_ATOM_ATTR
25 1
charge 1
26 1
charge -1
@<TRIPOS>BOND
     1     1    28    1
     2     1    29    1
     3     1    30    1
     4     2     1    1
     5     2    31    1
     6     2    32    1
     7     3     2    1
     8     3    33    1
     9     3    34    1
    10     4     3    1
    11     5     4   ar
    12     5    35    1
    13     6     5   ar
    14     7     6    1
    15     8     7    1
    16     8    36    1
    17     8    37    1
    18     8    38    1
    19     9     6   ar
    20    10     9   ar
    21    11    10   ar
    22    12    11    2
    23    13    11   ar
    24    14    13   ar
    25    14    39    1
    26    15    14   ar
    27    15     9   ar
    28    16    15   ar
    29    16     4   ar
    30    16    40    1
    31    17    13    1
    32    18    17    2
    33    19    17    1
    34    20    19   ar
    35    20    41    1
    36    21    20   ar
    37    21    42    1
    38    22    21   ar
    39    23    22   ar
    40    23    43    1
    41    24    23   ar
    42    24    19   ar
    43    24    44    1
    44    25    22    1
    45    26    25    1
    46    27    25    2
