@<TRIPOS>MOLECULE
>168.sdf
 22 23 0 0 0
SMALL
GASTEIGER

@<TRIPOS>ATOM
      1 C           1.1008    0.3828    0.4536 C.3     1  UNL1       -0.0619
      2 C           2.4753   -0.0727   -0.0083 C.3     1  UNL1       -0.0168
      3 C           3.0138   -1.2848    0.7572 C.3     1  UNL1        0.1209
      4 C           2.1436   -2.5620    0.6345 C.3     1  UNL1        0.0646
      5 N           3.0739   -3.4584    0.0059 N.ar    1  UNL1       -0.2952
      6 C           3.0971   -4.7080   -0.4827 C.ar    1  UNL1        0.0586
      7 C           4.3932   -4.8126   -0.9860 C.ar    1  UNL1        0.2357
      8 N           5.1237   -3.6373   -0.7969 N.ar    1  UNL1       -0.1709
      9 C           4.2657   -2.8632   -0.1967 C.ar    1  UNL1        0.3007
     10 O           4.3376   -1.6095    0.2170 O.3     1  UNL1       -0.4584
     11 N           4.9744   -5.9600   -1.6500 N.pl3   1  UNL1        0.0767
     12 O           4.2387   -6.9493   -1.7899 O.2     1  UNL1       -0.1246
     13 O           6.1501   -5.8776   -2.0299 O.2     1  UNL1       -0.1246
     14 H           0.8327    1.3229   -0.0399 H       1  UNL1        0.0231
     15 H           0.3293   -0.3513    0.2030 H       1  UNL1        0.0231
     16 H           1.0810    0.5501    1.5346 H       1  UNL1        0.0231
     17 H           2.4523   -0.2867   -1.0839 H       1  UNL1        0.0299
     18 H           3.1848    0.7559    0.1101 H       1  UNL1        0.0299
     19 H           3.1482   -1.0243    1.8142 H       1  UNL1        0.0752
     20 H           1.8706   -2.9689    1.6123 H       1  UNL1        0.0530
     21 H           1.2655   -2.4562   -0.0057 H       1  UNL1        0.0530
     22 H           2.2665   -5.3995   -0.4587 H       1  UNL1        0.0850
@<TRIPOS>BOND
     1     1    14    1
     2     1    15    1
     3     1    16    1
     4     2     1    1
     5     2    17    1
     6     2    18    1
     7     3     2    1
     8     3    19    1
     9     4     3    1
    10     4    20    1
    11     4    21    1
    12     5     4    1
    13     6     5   ar
    14     6    22    1
    15     7     6   ar
    16     8     7   ar
    17     9     8   ar
    18     9     5   ar
    19    10     9    1
    20    10     3    1
    21    11     7    1
    22    12    11    2
    23    13    11    2
