@<TRIPOS>MOLECULE
>189.sdf
 64 68 0 0 0
SMALL
GASTEIGER

@<TRIPOS>ATOM
      1 O           3.0984    2.4065   -1.7405 O.2     1  UNL1       -0.2754
      2 C           3.3143    1.4482   -1.0079 C.2     1  UNL1        0.2178
      3 C           2.6287    1.2012    0.3375 C.3     1  UNL1        0.0491
      4 C           1.7650    2.2982    0.9234 C.ar    1  UNL1       -0.0384
      5 C           0.6935    1.9601    1.7694 C.ar    1  UNL1       -0.0547
      6 C          -0.0279    2.9493    2.4479 C.ar    1  UNL1       -0.0197
      7 C           0.3180    4.2923    2.3058 C.ar    1  UNL1        0.1210
      8 O          -0.3775    5.1858    3.0834 O.3     1  UNL1       -0.4879
      9 C           0.3058    6.4227    3.2850 C.3     1  UNL1        0.1093
     10 C          -0.2813    7.1362    4.4588 C.2     1  UNL1       -0.0292
     11 C          -0.6937    8.4121    4.3997 C.2     1  UNL1        0.0566
     12 S          -1.1762    9.2530    5.8357 S.O2    1  UNL1        0.0182
     13 O          -0.5036    8.6913    6.9927 O.2     1  UNL1       -0.1649
     14 O          -1.0984   10.6780    5.5689 O.2     1  UNL1       -0.1649
     15 C          -2.8993    8.8397    5.9680 C.ar    1  UNL1        0.0929
     16 C          -3.2881    7.7412    6.7401 C.ar    1  UNL1       -0.0365
     17 C          -4.6445    7.4647    6.9030 C.ar    1  UNL1       -0.0599
     18 C          -5.6008    8.2877    6.3032 C.ar    1  UNL1       -0.0616
     19 C          -5.2062    9.3834    5.5334 C.ar    1  UNL1       -0.0599
     20 C          -3.8517    9.6660    5.3651 C.ar    1  UNL1       -0.0365
     21 C           1.3442    4.6385    1.4255 C.ar    1  UNL1       -0.0197
     22 C           2.0789    3.6503    0.7651 C.ar    1  UNL1       -0.0547
     23 N           4.2253    0.4482   -1.3107 N.am    1  UNL1       -0.3095
     24 C           5.1653    0.4565   -2.4399 C.3     1  UNL1        0.0353
     25 C           6.1905    1.6105   -2.3089 C.3     1  UNL1       -0.0287
     26 C           7.2163    1.5587   -3.4565 C.3     1  UNL1       -0.0386
     27 C           7.9709    0.2201   -3.4078 C.3     1  UNL1       -0.0472
     28 C           6.9806   -0.9456   -3.5542 C.3     1  UNL1       -0.0386
     29 C           6.2473   -0.8241   -4.8981 C.3     1  UNL1       -0.0472
     30 C           5.4847    0.5090   -4.9596 C.3     1  UNL1       -0.0386
     31 C           6.4799    1.6719   -4.8019 C.3     1  UNL1       -0.0472
     32 C           4.4558    0.5642   -3.8130 C.3     1  UNL1       -0.0287
     33 C           5.9524   -0.8826   -2.4150 C.3     1  UNL1       -0.0287
     34 H           2.0289    0.2891    0.2231 H       1  UNL1        0.0407
     35 H           3.4156    0.9950    1.0759 H       1  UNL1        0.0407
     36 H           0.4271    0.9177    1.9313 H       1  UNL1        0.0622
     37 H          -0.8397    2.6675    3.1151 H       1  UNL1        0.0654
     38 H           1.3641    6.2483    3.5196 H       1  UNL1        0.0742
     39 H           0.2231    7.0358    2.3796 H       1  UNL1        0.0742
     40 H          -0.2760    6.5916    5.4008 H       1  UNL1        0.0618
     41 H          -0.6769    8.9898    3.4856 H       1  UNL1        0.0821
     42 H          -2.5478    7.1088    7.2259 H       1  UNL1        0.0637
     43 H          -4.9591    6.6193    7.5090 H       1  UNL1        0.0618
     44 H          -6.6590    8.0804    6.4465 H       1  UNL1        0.0618
     45 H          -5.9560   10.0254    5.0777 H       1  UNL1        0.0618
     46 H          -3.5515   10.5342    4.7829 H       1  UNL1        0.0637
     47 H           1.6191    5.6704    1.2401 H       1  UNL1        0.0654
     48 H           2.9036    3.9643    0.1319 H       1  UNL1        0.0622
     49 H           4.3521   -0.2805   -0.6203 H       1  UNL1        0.1492
     50 H           5.6836    2.5832   -2.3189 H       1  UNL1        0.0288
     51 H           6.7105    1.5448   -1.3440 H       1  UNL1        0.0288
     52 H           7.9276    2.3859   -3.3534 H       1  UNL1        0.0302
     53 H           8.7160    0.1806   -4.2122 H       1  UNL1        0.0271
     54 H           8.5193    0.1317   -2.4621 H       1  UNL1        0.0271
     55 H           7.5214   -1.8976   -3.5117 H       1  UNL1        0.0302
     56 H           6.9671   -0.8846   -5.7237 H       1  UNL1        0.0271
     57 H           5.5499   -1.6616   -5.0221 H       1  UNL1        0.0271
     58 H           4.9697    0.5932   -5.9231 H       1  UNL1        0.0302
     59 H           5.9497    2.6303   -4.8593 H       1  UNL1        0.0271
     60 H           7.2040    1.6593   -5.6262 H       1  UNL1        0.0271
     61 H           3.7256   -0.2468   -3.9269 H       1  UNL1        0.0288
     62 H           3.8919    1.5007   -3.8932 H       1  UNL1        0.0288
     63 H           5.2564   -1.7283   -2.4962 H       1  UNL1        0.0288
     64 H           6.4651   -1.0002   -1.4507 H       1  UNL1        0.0288
@<TRIPOS>BOND
     1     2     1    2
     2     3     2    1
     3     3    34    1
     4     3    35    1
     5     4     3    1
     6     5     4   ar
     7     5    36    1
     8     6     5   ar
     9     6    37    1
    10     7     6   ar
    11     8     7    1
    12     9     8    1
    13     9    38    1
    14     9    39    1
    15    10     9    1
    16    10    40    1
    17    11    10    2
    18    11    41    1
    19    12    11    1
    20    13    12    2
    21    14    12    2
    22    15    12    1
    23    16    15   ar
    24    16    42    1
    25    17    16   ar
    26    17    43    1
    27    18    17   ar
    28    18    44    1
    29    19    18   ar
    30    19    45    1
    31    20    19   ar
    32    20    15   ar
    33    20    46    1
    34    21     7   ar
    35    21    47    1
    36    22    21   ar
    37    22     4   ar
    38    22    48    1
    39    23     2   am
    40    23    49    1
    41    24    23    1
    42    25    24    1
    43    25    50    1
    44    25    51    1
    45    26    25    1
    46    26    52    1
    47    27    26    1
    48    27    53    1
    49    27    54    1
    50    28    27    1
    51    28    55    1
    52    29    28    1
    53    29    56    1
    54    29    57    1
    55    30    29    1
    56    30    58    1
    57    31    30    1
    58    31    26    1
    59    31    59    1
    60    31    60    1
    61    32    30    1
    62    32    24    1
    63    32    61    1
    64    32    62    1
    65    33    28    1
    66    33    24    1
    67    33    63    1
    68    33    64    1
