@<TRIPOS>MOLECULE
>209.sdf
 56 58 0 0 0
SMALL
GASTEIGER

@<TRIPOS>ATOM
      1 C           2.7948    4.8093    0.5192 C.3     1  UNL1        0.0790
      2 O           3.0881    3.5049    0.0322 O.3     1  UNL1       -0.4913
      3 C           3.4846    2.5636    0.9477 C.ar    1  UNL1        0.1658
      4 C           3.1280    2.6322    2.3034 C.ar    1  UNL1       -0.0069
      5 C           3.4490    1.6088    3.2145 C.ar    1  UNL1        0.0075
      6 C           4.1605    0.5025    2.7237 C.ar    1  UNL1       -0.0069
      7 C           4.4986    0.3956    1.3708 C.ar    1  UNL1        0.1658
      8 O           5.1804   -0.6877    0.8666 O.3     1  UNL1       -0.4913
      9 C           4.8733   -1.9381    1.4758 C.3     1  UNL1        0.0790
     10 C           4.1903    1.4403    0.4796 C.ar    1  UNL1        0.2035
     11 O           4.5593    1.2234   -0.8281 O.3     1  UNL1       -0.4885
     12 C           4.9909    2.3635   -1.5608 C.3     1  UNL1        0.0791
     13 C           3.0177    1.6907    4.6238 C.ar    1  UNL1        0.0715
     14 C           2.7084    0.5675    5.3825 C.ar    1  UNL1       -0.0350
     15 C           2.2854    0.7291    6.6969 C.ar    1  UNL1       -0.0458
     16 C           2.1826    2.0117    7.2462 C.ar    1  UNL1        0.0592
     17 C           1.6974    2.1407    8.6448 C.2     1  UNL1        0.2618
     18 O           0.8699    2.9910    8.9554 O.2     1  UNL1       -0.2686
     19 N           2.2043    1.1998    9.5264 N.am    1  UNL1       -0.2311
     20 N           1.4915    0.9428   10.6976 N.am    1  UNL1       -0.2453
     21 C           1.8694   -0.0313   11.5934 C.2     1  UNL1        0.1510
     22 S           3.3801   -0.7475   11.6418 S.2     1  UNL1       -0.0171
     23 N           0.9184   -0.3908   12.5156 N.am    1  UNL1       -0.2958
     24 C          -0.4760   -0.4495   12.3073 C.ar    1  UNL1        0.0326
     25 C          -1.0327   -0.5548   11.0267 C.ar    1  UNL1       -0.0405
     26 C          -2.4139   -0.5992   10.8520 C.ar    1  UNL1       -0.0600
     27 C          -3.2518   -0.5509   11.9627 C.ar    1  UNL1       -0.0616
     28 C          -2.7057   -0.4891   13.2443 C.ar    1  UNL1       -0.0600
     29 C          -1.3200   -0.4629   13.4191 C.ar    1  UNL1       -0.0405
     30 C           2.4882    3.1017    6.4327 C.ar    1  UNL1        0.0510
     31 C           2.3646    4.5320    6.8642 C.3     1  UNL1       -0.0216
     32 N           2.8970    2.9404    5.1400 N.ar    1  UNL1       -0.2511
     33 H           1.8993    4.8151    1.1476 H       1  UNL1        0.0660
     34 H           3.6555    5.2343    1.0463 H       1  UNL1        0.0660
     35 H           2.5834    5.4446   -0.3466 H       1  UNL1        0.0660
     36 H           2.5535    3.4738    2.6823 H       1  UNL1        0.0662
     37 H           4.4702   -0.2757    3.4134 H       1  UNL1        0.0662
     38 H           5.4104   -2.0488    2.4233 H       1  UNL1        0.0660
     39 H           3.7946   -2.0663    1.6230 H       1  UNL1        0.0660
     40 H           5.2153   -2.7330    0.8065 H       1  UNL1        0.0660
     41 H           4.1386    2.8564   -2.0373 H       1  UNL1        0.0660
     42 H           5.5674    3.0654   -0.9479 H       1  UNL1        0.0660
     43 H           5.6468    2.0128   -2.3641 H       1  UNL1        0.0660
     44 H           2.7577   -0.4315    4.9607 H       1  UNL1        0.0639
     45 H           2.0005   -0.1535    7.2638 H       1  UNL1        0.0626
     46 H           2.8693    0.4827    9.2480 H       1  UNL1        0.1731
     47 H           0.6992    1.5553   10.8957 H       1  UNL1        0.1718
     48 H           1.2668   -0.8152   13.3689 H       1  UNL1        0.1539
     49 H          -0.4053   -0.6497   10.1443 H       1  UNL1        0.0636
     50 H          -2.8340   -0.6880    9.8544 H       1  UNL1        0.0618
     51 H          -4.3318   -0.5627   11.8278 H       1  UNL1        0.0618
     52 H          -3.3641   -0.4532   14.1082 H       1  UNL1        0.0618
     53 H          -0.9159   -0.4087   14.4262 H       1  UNL1        0.0636
     54 H           3.1414    5.1314    6.3749 H       1  UNL1        0.0293
     55 H           1.3903    4.9281    6.5611 H       1  UNL1        0.0293
     56 H           2.4951    4.6643    7.9404 H       1  UNL1        0.0293
@<TRIPOS>BOND
     1     1    33    1
     2     1    34    1
     3     1    35    1
     4     2     1    1
     5     3     2    1
     6     4     3   ar
     7     4    36    1
     8     5     4   ar
     9     6     5   ar
    10     6    37    1
    11     7     6   ar
    12     8     7    1
    13     9     8    1
    14     9    38    1
    15     9    39    1
    16     9    40    1
    17    10     7   ar
    18    10     3   ar
    19    11    10    1
    20    12    11    1
    21    12    41    1
    22    12    42    1
    23    12    43    1
    24    13     5    1
    25    14    13   ar
    26    14    44    1
    27    15    14   ar
    28    15    45    1
    29    16    15   ar
    30    17    16    1
    31    18    17    2
    32    19    17   am
    33    19    46    1
    34    20    19    1
    35    20    47    1
    36    21    20    1
    37    22    21    2
    38    23    21    1
    39    23    48    1
    40    24    23    1
    41    25    24   ar
    42    25    49    1
    43    26    25   ar
    44    26    50    1
    45    27    26   ar
    46    27    51    1
    47    28    27   ar
    48    28    52    1
    49    29    28   ar
    50    29    24   ar
    51    29    53    1
    52    30    16   ar
    53    31    30    1
    54    31    54    1
    55    31    55    1
    56    31    56    1
    57    32    30   ar
    58    32    13   ar
