@<TRIPOS>MOLECULE
>191.sdf
 35 38 0 0 0
SMALL
GASTEIGER

@<TRIPOS>ATOM
      1 CL         -2.0690   -0.3055   -0.0541 Cl      1  UNL1       -0.0828
      2 C          -0.3615   -0.0370   -0.0012 C.ar    1  UNL1        0.0533
      3 C           0.2237    1.2340   -0.0584 C.ar    1  UNL1        0.0569
      4 C           1.6330    1.3243   -0.0548 C.ar    1  UNL1       -0.0268
      5 C           2.4488    0.1941    0.0069 C.ar    1  UNL1        0.0345
      6 N           3.8562    0.2430    0.0230 N.am    1  UNL1       -0.2811
      7 C           4.6744    1.3632   -0.0158 C.2     1  UNL1        0.2549
      8 O           4.2697    2.5173   -0.1093 O.2     1  UNL1       -0.2693
      9 C           6.1078    1.0799    0.0650 C.ar    1  UNL1        0.0742
     10 C           7.1284    2.0148    0.0433 C.ar    1  UNL1       -0.0425
     11 C           8.4176    1.4256    0.1723 C.ar    1  UNL1       -0.0540
     12 C           8.3456    0.0555    0.2805 C.ar    1  UNL1       -0.0236
     13 S           6.7333   -0.5092    0.2201 S.2     1  UNL1       -0.0921
     14 C           1.8432   -1.0627    0.0587 C.ar    1  UNL1       -0.0391
     15 C           0.4496   -1.1778    0.0560 C.ar    1  UNL1       -0.0409
     16 C          -0.5056    2.4936   -0.1696 C.ar    1  UNL1        0.2299
     17 N          -0.0981    3.6051   -0.7586 N.ar    1  UNL1       -0.2089
     18 C          -1.1109    4.4923   -0.5242 C.ar    1  UNL1        0.1099
     19 C          -2.1043    3.8830    0.2234 C.ar    1  UNL1        0.1557
     20 O          -1.7133    2.5990    0.4707 O.2     1  UNL1       -0.4352
     21 C          -3.2772    4.5059    0.6305 C.ar    1  UNL1       -0.0171
     22 C          -3.4224    5.8416    0.2318 C.ar    1  UNL1       -0.0582
     23 C          -2.4363    6.4932   -0.5213 C.ar    1  UNL1       -0.0595
     24 C          -1.2640    5.8290   -0.9077 C.ar    1  UNL1       -0.0326
     25 H           2.0673    2.3204   -0.1042 H       1  UNL1        0.0644
     26 H           4.3434   -0.6433    0.0826 H       1  UNL1        0.1551
     27 H           6.9453    3.0800   -0.0526 H       1  UNL1        0.0630
     28 H           9.3482    1.9803    0.1884 H       1  UNL1        0.0623
     29 H           9.1634   -0.6427    0.3926 H       1  UNL1        0.0693
     30 H           2.4404   -1.9707    0.0953 H       1  UNL1        0.0636
     31 H          -0.0011   -2.1678    0.0862 H       1  UNL1        0.0633
     32 H          -4.0270    3.9867    1.2133 H       1  UNL1        0.0655
     33 H          -4.3223    6.3855    0.5139 H       1  UNL1        0.0619
     34 H          -2.5793    7.5317   -0.8138 H       1  UNL1        0.0618
     35 H          -0.4947    6.3254   -1.4886 H       1  UNL1        0.0640
@<TRIPOS>BOND
     1     2     1    1
     2     3     2   ar
     3     4     3   ar
     4     4    25    1
     5     5     4   ar
     6     6     5    1
     7     6    26    1
     8     7     6   am
     9     8     7    2
    10     9     7    1
    11    10     9   ar
    12    10    27    1
    13    11    10   ar
    14    11    28    1
    15    12    11   ar
    16    12    29    1
    17    13    12   ar
    18    13     9   ar
    19    14     5   ar
    20    14    30    1
    21    15    14   ar
    22    15     2   ar
    23    15    31    1
    24    16     3    1
    25    17    16   ar
    26    18    17   ar
    27    19    18   ar
    28    20    19   ar
    29    20    16   ar
    30    21    19   ar
    31    21    32    1
    32    22    21   ar
    33    22    33    1
    34    23    22   ar
    35    23    34    1
    36    24    23   ar
    37    24    18   ar
    38    24    35    1
