@<TRIPOS>MOLECULE
>131.sdf
 53 57 0 0 0
SMALL
GASTEIGER

@<TRIPOS>ATOM
      1 F           2.0757   -0.1589    0.0135 F       1  UNL1       -0.2048
      2 C           0.7419   -0.0189    0.0381 C.ar    1  UNL1        0.1327
      3 C           0.1471    1.2410    0.0727 C.ar    1  UNL1        0.0374
      4 C          -1.2504    1.3394    0.1144 C.ar    1  UNL1       -0.0285
      5 C          -2.0501    0.1964    0.0881 C.ar    1  UNL1        0.0356
      6 N          -3.4590    0.2362    0.0749 N.am    1  UNL1       -0.2693
      7 C          -4.2452    1.3390   -0.1671 C.2     1  UNL1        0.3064
      8 O          -3.8205    2.4536   -0.4596 O.2     1  UNL1       -0.2523
      9 N          -5.6029    1.1142   -0.0983 N.am    1  UNL1       -0.2854
     10 C          -6.3337   -0.0993    0.2114 C.3     1  UNL1        0.0162
     11 C          -7.6837    0.1282   -0.4453 C.3     1  UNL1       -0.0357
     12 C          -7.9110    1.6261   -0.2849 C.3     1  UNL1       -0.0357
     13 C          -6.5113    2.2273   -0.3029 C.3     1  UNL1        0.0162
     14 C          -1.4329   -1.0638    0.0694 C.ar    1  UNL1       -0.0377
     15 C          -0.0393   -1.1700    0.0384 C.ar    1  UNL1       -0.0240
     16 C           0.9271    2.5026    0.0533 C.ar    1  UNL1        0.0790
     17 N           0.5125    3.5147    0.7627 N.ar    1  UNL1       -0.2117
     18 C           1.2287    4.6753    0.6811 C.ar    1  UNL1        0.2367
     19 N           0.9727    5.8436    1.2341 N.ar    1  UNL1       -0.2168
     20 C           1.9862    6.6768    0.8354 C.ar    1  UNL1        0.0700
     21 C           2.9185    6.0173    0.0573 C.ar    1  UNL1        0.1269
     22 N           2.3795    4.7469   -0.0991 N.ar    1  UNL1       -0.2719
     23 C           2.7869    3.6800   -0.8917 C.ar    1  UNL1        0.0164
     24 C           2.1162    2.5242   -0.8567 C.ar    1  UNL1       -0.0189
     25 N           4.0658    6.4219   -0.5636 N.pl3   1  UNL1       -0.3106
     26 C           4.3284    7.8447   -0.8305 C.3     1  UNL1        0.0370
     27 C           5.1608    7.9378   -2.1265 C.3     1  UNL1        0.0634
     28 O           6.3698    7.1538   -2.0588 O.3     1  UNL1       -0.3767
     29 C           6.0724    5.7766   -1.7610 C.3     1  UNL1        0.0634
     30 C           5.3210    5.6609   -0.4267 C.3     1  UNL1        0.0370
     31 H          -1.6891    2.3323    0.1649 H       1  UNL1        0.0643
     32 H          -3.9309   -0.6524    0.1179 H       1  UNL1        0.1564
     33 H          -6.4230   -0.1604    1.3028 H       1  UNL1        0.0465
     34 H          -5.8411   -0.9984   -0.1618 H       1  UNL1        0.0465
     35 H          -7.6182   -0.1196   -1.5132 H       1  UNL1        0.0281
     36 H          -8.4795   -0.4752   -0.0025 H       1  UNL1        0.0281
     37 H          -8.5409    2.0372   -1.0800 H       1  UNL1        0.0281
     38 H          -8.3996    1.8348    0.6729 H       1  UNL1        0.0281
     39 H          -6.2825    2.7224   -1.2526 H       1  UNL1        0.0465
     40 H          -6.3785    2.9528    0.5093 H       1  UNL1        0.0465
     41 H          -2.0259   -1.9746    0.0566 H       1  UNL1        0.0637
     42 H           0.4411   -2.1430    0.0081 H       1  UNL1        0.0647
     43 H           2.0027    7.7112    1.1513 H       1  UNL1        0.0865
     44 H           3.6385    3.8280   -1.5379 H       1  UNL1        0.0815
     45 H           2.3879    1.6722   -1.4633 H       1  UNL1        0.0654
     46 H           4.8921    8.2737    0.0076 H       1  UNL1        0.0487
     47 H           3.4031    8.4172   -0.9542 H       1  UNL1        0.0487
     48 H           4.5711    7.5949   -2.9853 H       1  UNL1        0.0575
     49 H           5.4508    8.9760   -2.3107 H       1  UNL1        0.0575
     50 H           7.0175    5.2281   -1.7127 H       1  UNL1        0.0575
     51 H           5.4791    5.3549   -2.5829 H       1  UNL1        0.0575
     52 H           5.9212    6.1020    0.3789 H       1  UNL1        0.0487
     53 H           5.1664    4.6102   -0.1670 H       1  UNL1        0.0487
@<TRIPOS>BOND
     1     2     1    1
     2     3     2   ar
     3     4     3   ar
     4     4    31    1
     5     5     4   ar
     6     6     5    1
     7     6    32    1
     8     7     6   am
     9     8     7    2
    10     9     7   am
    11    10     9    1
    12    10    33    1
    13    10    34    1
    14    11    10    1
    15    11    35    1
    16    11    36    1
    17    12    11    1
    18    12    37    1
    19    12    38    1
    20    13    12    1
    21    13     9    1
    22    13    39    1
    23    13    40    1
    24    14     5   ar
    25    14    41    1
    26    15    14   ar
    27    15     2   ar
    28    15    42    1
    29    16     3    1
    30    17    16   ar
    31    18    17   ar
    32    19    18   ar
    33    20    19   ar
    34    20    43    1
    35    21    20   ar
    36    22    21   ar
    37    22    18   ar
    38    23    22   ar
    39    23    44    1
    40    24    23   ar
    41    24    16   ar
    42    24    45    1
    43    25    21    1
    44    26    25    1
    45    26    46    1
    46    26    47    1
    47    27    26    1
    48    27    48    1
    49    27    49    1
    50    28    27    1
    51    29    28    1
    52    29    50    1
    53    29    51    1
    54    30    29    1
    55    30    25    1
    56    30    52    1
    57    30    53    1
