@<TRIPOS>MOLECULE
>118.sdf
 63 65 0 0 0
SMALL
GASTEIGER

@<TRIPOS>ATOM
      1 C           0.9683   -0.4638   -0.7236 C.3     1  UNL1       -0.0653
      2 C           2.4858   -0.4127   -0.6509 C.3     1  UNL1       -0.0559
      3 C           3.0226    0.8826   -1.2515 C.3     1  UNL1       -0.0533
      4 C           4.5452    0.9313   -1.1748 C.3     1  UNL1       -0.0531
      5 C           5.0821    2.2261   -1.7773 C.3     1  UNL1       -0.0531
      6 C           6.6056    2.2701   -1.7027 C.3     1  UNL1       -0.0531
      7 C           7.1358    3.5648   -2.3075 C.3     1  UNL1       -0.0530
      8 C           8.6592    3.6223   -2.2411 C.3     1  UNL1       -0.0514
      9 C           9.1624    4.9317   -2.8375 C.3     1  UNL1       -0.0333
     10 C          10.6817    5.0368   -2.7540 C.3     1  UNL1        0.0432
     11 N          11.1593    6.2928   -3.2880 N.ar    1  UNL1       -0.2498
     12 C          10.8731    7.5502   -2.8446 C.ar    1  UNL1        0.0671
     13 C          11.4029    8.3508   -3.8197 C.ar    1  UNL1        0.1608
     14 N          11.2043    9.6753   -3.9195 N.pl3   1  UNL1       -0.3249
     15 C          11.3478   10.3842   -5.1873 C.3     1  UNL1        0.0260
     16 C          10.6644    9.6481   -6.3612 C.3     1  UNL1        0.0247
     17 N          10.7265   10.4216   -7.6118 N.pl3   1  UNL1       -0.3418
     18 C          10.2430    9.7376   -8.7642 C.ar    1  UNL1        0.0379
     19 C           9.1577    8.8560   -8.6793 C.ar    1  UNL1       -0.0221
     20 C           8.6704    8.2603   -9.8229 C.ar    1  UNL1        0.0300
     21 N           9.1410    8.5172  -11.0565 N.ar    1  UNL1       -0.2548
     22 C          10.1468    9.3951  -11.1680 C.ar    1  UNL1        0.0741
     23 C          10.6001    9.6649  -12.4539 C.ar    1  UNL1       -0.0173
     24 C          11.6394   10.5610  -12.6746 C.ar    1  UNL1        0.0430
     25 CL         12.1623   10.8805  -14.2871 Cl      1  UNL1       -0.0835
     26 C          12.2563   11.1988  -11.6130 C.ar    1  UNL1       -0.0426
     27 C          11.8161   10.9454  -10.3124 C.ar    1  UNL1       -0.0494
     28 C          10.7448   10.0483  -10.0647 C.ar    1  UNL1        0.0213
     29 N          12.0553    7.5895   -4.7419 N.ar    1  UNL1       -0.1146
     30 N          11.8978    6.3163   -4.4095 N.ar    1  UNL1       -0.0639
     31 H           0.5991   -1.3967   -0.2900 H       1  UNL1        0.0230
     32 H           0.5222    0.3700   -0.1707 H       1  UNL1        0.0230
     33 H           0.6245   -0.4102   -1.7622 H       1  UNL1        0.0230
     34 H           2.7996   -0.4979    0.3961 H       1  UNL1        0.0263
     35 H           2.9017   -1.2738   -1.1860 H       1  UNL1        0.0263
     36 H           2.7037    0.9649   -2.2975 H       1  UNL1        0.0265
     37 H           2.5995    1.7416   -0.7161 H       1  UNL1        0.0265
     38 H           4.8668    0.8514   -0.1289 H       1  UNL1        0.0265
     39 H           4.9710    0.0730   -1.7105 H       1  UNL1        0.0265
     40 H           4.7611    2.3087   -2.8231 H       1  UNL1        0.0265
     41 H           4.6607    3.0856   -1.2413 H       1  UNL1        0.0265
     42 H           6.9274    2.1917   -0.6571 H       1  UNL1        0.0265
     43 H           7.0282    1.4117   -2.2382 H       1  UNL1        0.0265
     44 H           6.8093    3.6457   -3.3516 H       1  UNL1        0.0265
     45 H           6.7110    4.4218   -1.7699 H       1  UNL1        0.0265
     46 H           8.9880    3.5399   -1.1980 H       1  UNL1        0.0266
     47 H           9.0896    2.7742   -2.7869 H       1  UNL1        0.0266
     48 H           8.8399    5.0127   -3.8835 H       1  UNL1        0.0283
     49 H           8.6982    5.7706   -2.3033 H       1  UNL1        0.0283
     50 H          11.0301    4.9797   -1.7174 H       1  UNL1        0.0509
     51 H          11.1538    4.2242   -3.3184 H       1  UNL1        0.0509
     52 H          10.2528    7.7465   -1.9854 H       1  UNL1        0.0862
     53 H          11.2699   10.2532   -3.0863 H       1  UNL1        0.1476
     54 H          10.8723   11.3682   -5.0751 H       1  UNL1        0.0477
     55 H          12.4062   10.5688   -5.4020 H       1  UNL1        0.0477
     56 H          11.1522    8.6890   -6.5490 H       1  UNL1        0.0476
     57 H           9.6231    9.4596   -6.0724 H       1  UNL1        0.0476
     58 H          11.6792   10.7341   -7.7717 H       1  UNL1        0.1461
     59 H           8.6865    8.6047   -7.7372 H       1  UNL1        0.0651
     60 H           7.8491    7.5531   -9.7775 H       1  UNL1        0.0830
     61 H          10.1199    9.1666  -13.2937 H       1  UNL1        0.0653
     62 H          13.0714   11.8862  -11.7837 H       1  UNL1        0.0632
     63 H          12.3187   11.4638   -9.5052 H       1  UNL1        0.0625
@<TRIPOS>BOND
     1     1    31    1
     2     1    32    1
     3     1    33    1
     4     2     1    1
     5     2    34    1
     6     2    35    1
     7     3     2    1
     8     3    36    1
     9     3    37    1
    10     4     3    1
    11     4    38    1
    12     4    39    1
    13     5     4    1
    14     5    40    1
    15     5    41    1
    16     6     5    1
    17     6    42    1
    18     6    43    1
    19     7     6    1
    20     7    44    1
    21     7    45    1
    22     8     7    1
    23     8    46    1
    24     8    47    1
    25     9     8    1
    26     9    48    1
    27     9    49    1
    28    10     9    1
    29    10    50    1
    30    10    51    1
    31    11    10    1
    32    12    11   ar
    33    12    52    1
    34    13    12   ar
    35    14    13    1
    36    14    53    1
    37    15    14    1
    38    15    54    1
    39    15    55    1
    40    16    15    1
    41    16    56    1
    42    16    57    1
    43    17    16    1
    44    17    58    1
    45    18    17    1
    46    19    18   ar
    47    19    59    1
    48    20    19   ar
    49    20    60    1
    50    21    20   ar
    51    22    21   ar
    52    23    22   ar
    53    23    61    1
    54    24    23   ar
    55    25    24    1
    56    26    24   ar
    57    26    62    1
    58    27    26   ar
    59    27    63    1
    60    28    27   ar
    61    28    18   ar
    62    28    22   ar
    63    29    13   ar
    64    30    29   ar
    65    30    11   ar
