@<TRIPOS>MOLECULE
>58.sdf
 60 65 0 0 0
SMALL
GASTEIGER

@<TRIPOS>ATOM
      1 CL         -2.1378   -0.1863   -0.2381 Cl      1  UNL1       -0.0835
      2 C          -0.4184   -0.1306   -0.2046 C.ar    1  UNL1        0.0410
      3 C           0.3087   -1.3159   -0.1329 C.ar    1  UNL1       -0.0430
      4 C           1.7048   -1.2736   -0.0991 C.ar    1  UNL1       -0.0538
      5 C           2.3889   -0.0456   -0.1357 C.ar    1  UNL1       -0.0085
      6 C           1.6364    1.1401   -0.2146 C.ar    1  UNL1       -0.0538
      7 C           0.2388    1.0970   -0.2444 C.ar    1  UNL1       -0.0430
      8 C           3.9085   -0.0230   -0.0204 C.3     1  UNL1        0.1192
      9 N           4.5201    0.4837   -1.2221 N.pl3   1  UNL1       -0.2273
     10 C           5.2079    1.6602   -1.2357 C.cat   1  UNL1        0.3732
     11 N           5.5090    2.3608   -0.1851 N.2     1  UNL1       -0.0761
     12 C           5.1478    1.8411    1.0426 C.2     1  UNL1        0.1516
     13 C           4.3914    0.7325    1.1758 C.2     1  UNL1        0.0121
     14 C           3.9721    0.1907    2.5204 C.3     1  UNL1       -0.0207
     15 C           5.0053    0.4693    3.6049 C.3     1  UNL1       -0.0231
     16 C           5.4734    1.8975    3.5422 C.ar    1  UNL1       -0.0365
     17 C           5.5654    2.5465    2.2885 C.ar    1  UNL1        0.0202
     18 C           6.0455    3.8614    2.2575 C.ar    1  UNL1       -0.0509
     19 C           6.4123    4.5202    3.4364 C.ar    1  UNL1       -0.0611
     20 C           6.3195    3.8678    4.6619 C.ar    1  UNL1       -0.0615
     21 C           5.8617    2.5548    4.7184 C.ar    1  UNL1       -0.0579
     22 N           5.5335    2.0227   -2.5220 N.pl3   1  UNL1       -0.2216
     23 C           6.1777    1.0786   -3.4551 C.3     1  UNL1        0.0762
     24 C           7.5827    1.5497   -3.8886 C.3     1  UNL1        0.0413
     25 N           7.5144    2.9202   -4.4174 N.pl3   1  UNL1       -0.3242
     26 C           6.9407    3.8893   -3.4637 C.3     1  UNL1        0.0413
     27 C           5.5539    3.4285   -2.9649 C.3     1  UNL1        0.0762
     28 C           7.9694    3.2458   -5.6776 C.ar    1  UNL1        0.0298
     29 C           7.3658    4.2474   -6.4514 C.ar    1  UNL1       -0.0407
     30 C           7.7932    4.5373   -7.7557 C.ar    1  UNL1       -0.0600
     31 C           8.8509    3.8336   -8.3191 C.ar    1  UNL1       -0.0616
     32 C           9.4849    2.8507   -7.5713 C.ar    1  UNL1       -0.0600
     33 C           9.0474    2.5678   -6.2708 C.ar    1  UNL1       -0.0407
     34 H          -0.2035   -2.2739   -0.0931 H       1  UNL1        0.0632
     35 H           2.2555   -2.2094   -0.0241 H       1  UNL1        0.0622
     36 H           2.1394    2.1069   -0.2274 H       1  UNL1        0.0622
     37 H          -0.3287    2.0231   -0.2875 H       1  UNL1        0.0632
     38 H           4.2628   -1.0564    0.0820 H       1  UNL1        0.0770
     39 H           4.0091    0.2967   -2.0724 H       1  UNL1        0.2453
     40 H           3.0109    0.6467    2.7931 H       1  UNL1        0.0315
     41 H           3.8082   -0.8921    2.4701 H       1  UNL1        0.0315
     42 H           4.5626    0.2452    4.5827 H       1  UNL1        0.0316
     43 H           5.8732   -0.1901    3.4772 H       1  UNL1        0.0316
     44 H           6.1289    4.3844    1.3072 H       1  UNL1        0.0625
     45 H           6.7709    5.5450    3.3935 H       1  UNL1        0.0618
     46 H           6.6051    4.3808    5.5790 H       1  UNL1        0.0618
     47 H           5.8023    2.0473    5.6783 H       1  UNL1        0.0620
     48 H           6.2799    0.0823   -3.0092 H       1  UNL1        0.0650
     49 H           5.5350    0.9757   -4.3372 H       1  UNL1        0.0650
     50 H           8.2692    1.5328   -3.0336 H       1  UNL1        0.0493
     51 H           7.9568    0.8306   -4.6250 H       1  UNL1        0.0493
     52 H           7.6225    3.9673   -2.6080 H       1  UNL1        0.0493
     53 H           6.8606    4.8974   -3.8847 H       1  UNL1        0.0493
     54 H           4.8378    3.5205   -3.7914 H       1  UNL1        0.0650
     55 H           5.2056    4.1024   -2.1738 H       1  UNL1        0.0650
     56 H           6.5134    4.8007   -6.0688 H       1  UNL1        0.0636
     57 H           7.2870    5.3072   -8.3334 H       1  UNL1        0.0618
     58 H           9.1808    4.0506   -9.3317 H       1  UNL1        0.0618
     59 H          10.3236    2.3017   -7.9931 H       1  UNL1        0.0618
     60 H           9.5925    1.8116   -5.7139 H       1  UNL1        0.0636
@<TRIPOS>BOND
     1     2     1    1
     2     3     2   ar
     3     3    34    1
     4     4     3   ar
     5     4    35    1
     6     5     4   ar
     7     6     5   ar
     8     6    36    1
     9     7     6   ar
    10     7     2   ar
    11     7    37    1
    12     8     5    1
    13     8    38    1
    14     9     8    1
    15     9    39    1
    16    10     9    1
    17    11    10    2
    18    12    11    1
    19    13    12    2
    20    13     8    1
    21    14    13    1
    22    14    40    1
    23    14    41    1
    24    15    14    1
    25    15    42    1
    26    15    43    1
    27    16    15    1
    28    17    16   ar
    29    17    12    1
    30    18    17   ar
    31    18    44    1
    32    19    18   ar
    33    19    45    1
    34    20    19   ar
    35    20    46    1
    36    21    20   ar
    37    21    16   ar
    38    21    47    1
    39    22    10    1
    40    23    22    1
    41    23    48    1
    42    23    49    1
    43    24    23    1
    44    24    50    1
    45    24    51    1
    46    25    24    1
    47    26    25    1
    48    26    52    1
    49    26    53    1
    50    27    26    1
    51    27    22    1
    52    27    54    1
    53    27    55    1
    54    28    25    1
    55    29    28   ar
    56    29    56    1
    57    30    29   ar
    58    30    57    1
    59    31    30   ar
    60    31    58    1
    61    32    31   ar
    62    32    59    1
    63    33    32   ar
    64    33    28   ar
    65    33    60    1
