@<TRIPOS>MOLECULE
>43.sdf
 45 48 0 0 0
SMALL
GASTEIGER

@<TRIPOS>ATOM
      1 CL         -5.6230    0.9131   -6.2723 Cl      1  UNL1       -0.0835
      2 C          -5.3176    2.4524   -5.5659 C.ar    1  UNL1        0.0413
      3 C          -5.8065    3.6027   -6.1779 C.ar    1  UNL1       -0.0420
      4 C          -5.5566    4.8475   -5.5995 C.ar    1  UNL1       -0.0417
      5 C          -4.8207    4.9396   -4.4114 C.ar    1  UNL1        0.0442
      6 CL         -4.5655    6.5170   -3.7577 Cl      1  UNL1       -0.0833
      7 C          -4.3140    3.7834   -3.7890 C.ar    1  UNL1       -0.0277
      8 C          -3.5115    3.8177   -2.5037 C.3     1  UNL1       -0.0259
      9 C          -4.4031    3.6818   -1.2598 C.3     1  UNL1       -0.0440
     10 C          -3.6209    3.6806    0.0843 C.3     1  UNL1       -0.0154
     11 C          -2.7962    4.9584    0.3049 C.3     1  UNL1       -0.0440
     12 C          -3.6769    6.2030    0.3960 C.3     1  UNL1       -0.0270
     13 C          -4.9074    6.0191    1.2518 C.ar    1  UNL1       -0.0422
     14 C          -5.3734    4.7444    1.6300 C.ar    1  UNL1       -0.0213
     15 C          -6.5462    4.6401    2.4003 C.ar    1  UNL1       -0.0563
     16 C          -7.2432    5.7807    2.7930 C.ar    1  UNL1       -0.0614
     17 C          -6.7841    7.0381    2.4140 C.ar    1  UNL1       -0.0615
     18 C          -5.6296    7.1567    1.6410 C.ar    1  UNL1       -0.0582
     19 C          -4.5932    3.4830    1.2864 C.3     1  UNL1        0.0633
     20 N          -3.9056    2.9571    2.4772 N.ar    1  UNL1       -0.3292
     21 C          -3.4075    3.6539    3.5491 C.ar    1  UNL1        0.0247
     22 C          -2.9072    2.7008    4.4034 C.ar    1  UNL1        0.0454
     23 N          -3.0824    1.4464    3.8843 N.ar    1  UNL1       -0.2440
     24 C          -3.6924    1.6298    2.7347 C.ar    1  UNL1        0.0964
     25 C          -4.5795    2.5359   -4.3834 C.ar    1  UNL1       -0.0388
     26 H          -6.3794    3.5379   -7.0991 H       1  UNL1        0.0633
     27 H          -5.9440    5.7448   -6.0783 H       1  UNL1        0.0633
     28 H          -2.7766    3.0022   -2.5193 H       1  UNL1        0.0314
     29 H          -2.9174    4.7355   -2.4711 H       1  UNL1        0.0314
     30 H          -5.1581    4.4768   -1.2656 H       1  UNL1        0.0272
     31 H          -4.9645    2.7406   -1.3331 H       1  UNL1        0.0272
     32 H          -2.9250    2.8307    0.0489 H       1  UNL1        0.0324
     33 H          -2.2168    4.8597    1.2312 H       1  UNL1        0.0272
     34 H          -2.0499    5.0903   -0.4860 H       1  UNL1        0.0272
     35 H          -3.0722    7.0275    0.7922 H       1  UNL1        0.0313
     36 H          -4.0022    6.4947   -0.6093 H       1  UNL1        0.0313
     37 H          -6.9095    3.6648    2.7217 H       1  UNL1        0.0621
     38 H          -8.1372    5.6885    3.4038 H       1  UNL1        0.0618
     39 H          -7.3242    7.9293    2.7225 H       1  UNL1        0.0618
     40 H          -5.2892    8.1479    1.3474 H       1  UNL1        0.0620
     41 H          -5.3200    2.7039    1.0139 H       1  UNL1        0.0580
     42 H          -3.4627    4.7310    3.6299 H       1  UNL1        0.0825
     43 H          -2.4390    2.8557    5.3672 H       1  UNL1        0.0845
     44 H          -4.0025    0.8410    2.0612 H       1  UNL1        0.1029
     45 H          -4.2058    1.6239   -3.9223 H       1  UNL1        0.0635
@<TRIPOS>BOND
     1     2     1    1
     2     3     2   ar
     3     3    26    1
     4     4     3   ar
     5     4    27    1
     6     5     4   ar
     7     6     5    1
     8     7     5   ar
     9     8     7    1
    10     8    28    1
    11     8    29    1
    12     9     8    1
    13     9    30    1
    14     9    31    1
    15    11    10    1
    16    11    33    1
    17    11    34    1
    18    12    11    1
    19    12    35    1
    20    12    36    1
    21    13    12    1
    22    14    13   ar
    23    15    14   ar
    24    15    37    1
    25    16    15   ar
    26    16    38    1
    27    17    16   ar
    28    17    39    1
    29    18    17   ar
    30    18    13   ar
    31    18    40    1
    32    19    14    1
    33    19    10    1
    34    19    41    1
    35    20    19    1
    36    21    20   ar
    37    21    42    1
    38    22    21   ar
    39    22    43    1
    40    23    22   ar
    41    24    23   ar
    42    24    20   ar
    43    24    44    1
    44    25     7   ar
    45    25     2   ar
    46    25    45    1
    47    10    32    1
    48    10     9    1
