@<TRIPOS>MOLECULE
>65.sdf
 47 50 0 0 0
SMALL
GASTEIGER

@<TRIPOS>ATOM
      1 C           1.7213   -0.8958   -2.0872 C.3     1  UNL1        0.1346
      2 O           1.9369   -2.2817   -2.3292 O.3     1  UNL1       -0.4858
      3 C           1.0691   -2.9111   -3.1719 C.ar    1  UNL1        0.1211
      4 C          -0.0336   -2.3356   -3.8052 C.ar    1  UNL1       -0.0199
      5 C          -0.8155   -3.1001   -4.6757 C.ar    1  UNL1       -0.0583
      6 C          -0.5019   -4.4392   -4.9079 C.ar    1  UNL1       -0.0615
      7 C           0.5858   -5.0193   -4.2618 C.ar    1  UNL1       -0.0583
      8 C           1.3675   -4.2566   -3.3956 C.ar    1  UNL1       -0.0199
      9 C           2.7862   -0.3674   -1.2033 C.ar    1  UNL1        0.1204
     10 C           4.0015    0.2107   -1.5030 C.ar    1  UNL1        0.0578
     11 N           4.5124    0.6111   -0.2826 N.ar    1  UNL1       -0.2191
     12 N           3.6948    0.1693    0.6858 N.ar    1  UNL1       -0.0604
     13 N           2.6313   -0.3977    0.1462 N.ar    1  UNL1       -0.1307
     14 C           5.7082    1.3411   -0.0437 C.ar    1  UNL1        0.0756
     15 C           5.8762    2.2471    1.0244 C.ar    1  UNL1        0.0200
     16 C           4.8602    2.6289    2.0323 C.2     1  UNL1        0.0547
     17 N           4.1694    1.7447    2.6606 N.2     1  UNL1       -0.1899
     18 N           3.2125    2.1968    3.5106 N.pl3   1  UNL1       -0.2378
     19 C           2.5739    1.1887    4.2853 C.ar    1  UNL1        0.0483
     20 C           3.1003   -0.1088    4.3886 C.ar    1  UNL1       -0.0391
     21 C           2.5683   -1.0391    5.2821 C.ar    1  UNL1       -0.0600
     22 C           1.5019   -0.6800    6.0993 C.ar    1  UNL1       -0.0616
     23 C           0.9500    0.5965    5.9978 C.ar    1  UNL1       -0.0600
     24 C           1.4831    1.5253    5.0968 C.ar    1  UNL1       -0.0391
     25 C           7.0730    2.9868    1.1252 C.ar    1  UNL1       -0.0511
     26 C           8.1021    2.8057    0.2018 C.ar    1  UNL1       -0.0610
     27 C           7.9473    1.9043   -0.8462 C.ar    1  UNL1       -0.0597
     28 C           6.7582    1.1846   -0.9728 C.ar    1  UNL1       -0.0356
     29 H           0.7495   -0.7463   -1.5984 H       1  UNL1        0.0764
     30 H           1.7365   -0.3369   -3.0311 H       1  UNL1        0.0764
     31 H          -0.3138   -1.2991   -3.6490 H       1  UNL1        0.0654
     32 H          -1.6690   -2.6495   -5.1756 H       1  UNL1        0.0619
     33 H          -1.1068   -5.0298   -5.5893 H       1  UNL1        0.0618
     34 H           0.8306   -6.0641   -4.4312 H       1  UNL1        0.0619
     35 H           2.2168   -4.7102   -2.8876 H       1  UNL1        0.0654
     36 H           4.4822    0.4324   -2.4416 H       1  UNL1        0.0851
     37 H           4.7615    3.7049    2.2634 H       1  UNL1        0.0852
     38 H           2.5172    2.8307    3.1154 H       1  UNL1        0.1744
     39 H           3.9368   -0.4036    3.7586 H       1  UNL1        0.0636
     40 H           3.0024   -2.0329    5.3418 H       1  UNL1        0.0618
     41 H           1.1072   -1.3929    6.8173 H       1  UNL1        0.0618
     42 H           0.1164    0.8766    6.6351 H       1  UNL1        0.0618
     43 H           1.0536    2.5213    5.0499 H       1  UNL1        0.0636
     44 H           7.2125    3.6980    1.9344 H       1  UNL1        0.0625
     45 H           9.0268    3.3698    0.3022 H       1  UNL1        0.0618
     46 H           8.7555    1.7533   -1.5575 H       1  UNL1        0.0618
     47 H           6.6868    0.4720   -1.7928 H       1  UNL1        0.0639
@<TRIPOS>BOND
     1     1    29    1
     2     1    30    1
     3     2     1    1
     4     3     2    1
     5     4     3   ar
     6     4    31    1
     7     5     4   ar
     8     5    32    1
     9     6     5   ar
    10     6    33    1
    11     7     6   ar
    12     7    34    1
    13     8     7   ar
    14     8     3   ar
    15     8    35    1
    16     9     1    1
    17    10     9   ar
    18    10    36    1
    19    11    10   ar
    20    12    11   ar
    21    13    12   ar
    22    13     9   ar
    23    14    11    1
    24    15    14   ar
    25    16    15    1
    26    16    37    1
    27    17    16    2
    28    18    17    1
    29    18    38    1
    30    19    18    1
    31    20    19   ar
    32    20    39    1
    33    21    20   ar
    34    21    40    1
    35    22    21   ar
    36    22    41    1
    37    23    22   ar
    38    23    42    1
    39    24    23   ar
    40    24    19   ar
    41    24    43    1
    42    25    15   ar
    43    25    44    1
    44    26    25   ar
    45    26    45    1
    46    27    26   ar
    47    27    46    1
    48    28    27   ar
    49    28    14   ar
    50    28    47    1
