@<TRIPOS>MOLECULE
>133.sdf
 34 36 0 0 0
SMALL
GASTEIGER

@<TRIPOS>ATOM
      1 O           3.3191   -0.9341   -0.6682 O.3     1  UNL1       -0.4771
      2 C           2.5145   -0.1040    0.0335 C.2     1  UNL1        0.3375
      3 O           1.3085   -0.2570    0.0995 O.2     1  UNL1       -0.2451
      4 C           3.2497    1.0053    0.6940 C.ar    1  UNL1        0.0700
      5 C           4.2487    1.6521   -0.0400 C.ar    1  UNL1       -0.0217
      6 C           4.9361    2.6923    0.5531 C.ar    1  UNL1        0.0654
      7 C           6.0018    3.3786   -0.1867 C.2     1  UNL1       -0.0357
      8 C           6.7487    4.3732    0.3171 C.2     1  UNL1       -0.0512
      9 C           7.7653    5.0485   -0.4968 C.ar    1  UNL1       -0.0066
     10 C           9.1170    4.6668   -0.5172 C.ar    1  UNL1        0.0481
     11 CL          9.7063    3.3459    0.4294 Cl      1  UNL1       -0.0829
     12 C          10.0315    5.3547   -1.3232 C.ar    1  UNL1       -0.0428
     13 C           9.6067    6.4207   -2.1150 C.ar    1  UNL1       -0.0603
     14 C           8.2668    6.8023   -2.1077 C.ar    1  UNL1       -0.0611
     15 C           7.3519    6.1200   -1.3027 C.ar    1  UNL1       -0.0532
     16 N           4.6535    3.1192    1.8007 N.ar    1  UNL1       -0.2472
     17 C           3.6665    2.5285    2.4972 C.ar    1  UNL1        0.0724
     18 C           3.3785    3.0202    3.7636 C.ar    1  UNL1       -0.0357
     19 C           2.3783    2.4670    4.5657 C.ar    1  UNL1       -0.0597
     20 C           1.6465    1.3880    4.0974 C.ar    1  UNL1       -0.0611
     21 C           1.9140    0.8760    2.8283 C.ar    1  UNL1       -0.0518
     22 C           2.9192    1.4420    1.9999 C.ar    1  UNL1        0.0144
     23 H           4.4657    1.3676   -1.0655 H       1  UNL1        0.0647
     24 H           6.1737    3.0429   -1.2057 H       1  UNL1        0.0639
     25 H           6.6211    4.7382    1.3329 H       1  UNL1        0.0625
     26 H          11.0790    5.0623   -1.3362 H       1  UNL1        0.0632
     27 H          10.3206    6.9542   -2.7386 H       1  UNL1        0.0618
     28 H           7.9326    7.6319   -2.7253 H       1  UNL1        0.0618
     29 H           6.3085    6.4297   -1.3067 H       1  UNL1        0.0624
     30 H           3.9485    3.8678    4.1398 H       1  UNL1        0.0639
     31 H           2.1758    2.8826    5.5494 H       1  UNL1        0.0618
     32 H           0.8647    0.9452    4.7094 H       1  UNL1        0.0618
     33 H           1.3164    0.0320    2.4869 H       1  UNL1        0.0624
     34 H           4.2777   -0.8109   -0.5375 H       1  UNL1        0.2954
@<TRIPOS>BOND
     1     2     1    1
     2     3     2    2
     3     4     2    1
     4     5     4   ar
     5     5    23    1
     6     6     5   ar
     7     7     6    1
     8     7    24    1
     9     8     7    2
    10     8    25    1
    11     9     8    1
    12    10     9   ar
    13    11    10    1
    14    12    10   ar
    15    12    26    1
    16    13    12   ar
    17    13    27    1
    18    14    13   ar
    19    14    28    1
    20    15    14   ar
    21    15     9   ar
    22    15    29    1
    23    16     6   ar
    24    17    16   ar
    25    18    17   ar
    26    18    30    1
    27    19    18   ar
    28    19    31    1
    29    20    19   ar
    30    20    32    1
    31    21    20   ar
    32    21    33    1
    33    22    21   ar
    34    22     4   ar
    35    22    17   ar
    36     1    34    1
