@<TRIPOS>MOLECULE
>87.sdf
 37 39 0 0 0
SMALL
GASTEIGER

@<TRIPOS>ATOM
      1 C           1.0118    2.3306   -1.1004 C.3     1  UNL1        0.0820
      2 O           2.4232    2.3501   -0.8678 O.3     1  UNL1       -0.4643
      3 C           2.9518    1.1175   -0.6124 C.2     1  UNL1        0.3445
      4 O           2.2813    0.0929   -0.5483 O.2     1  UNL1       -0.2448
      5 C           4.3905    1.1440   -0.4817 C.ar    1  UNL1        0.1289
      6 C           5.2308    0.1024   -0.8317 C.ar    1  UNL1        0.1815
      7 O           6.5120    0.4465   -0.5358 O.2     1  UNL1       -0.3535
      8 N           6.5463    1.7300   -0.0253 N.ar    1  UNL1       -0.0815
      9 C           5.2703    2.1501    0.0136 C.ar    1  UNL1        0.1025
     10 C           4.9576    3.5225    0.5253 C.3     1  UNL1        0.0189
     11 C           4.6686    3.3742    2.0018 C.ar    1  UNL1       -0.0414
     12 C           5.7104    3.4569    2.9411 C.ar    1  UNL1       -0.0568
     13 C           5.4678    3.2210    4.2970 C.ar    1  UNL1       -0.0431
     14 C           4.1807    2.9064    4.7243 C.ar    1  UNL1        0.0410
     15 CL          3.8954    2.5283    6.3784 Cl      1  UNL1       -0.0835
     16 C           3.1256    2.8753    3.8159 C.ar    1  UNL1       -0.0431
     17 C           3.3667    3.1168    2.4609 C.ar    1  UNL1       -0.0568
     18 C           5.0276   -1.2016   -1.4556 C.ar    1  UNL1        0.0208
     19 C           4.0352   -1.3572   -2.4399 C.ar    1  UNL1       -0.0510
     20 C           3.6888   -2.6111   -2.9266 C.ar    1  UNL1       -0.0611
     21 C           4.3678   -3.7400   -2.4804 C.ar    1  UNL1       -0.0617
     22 C           5.4008   -3.5967   -1.5575 C.ar    1  UNL1       -0.0611
     23 C           5.7340   -2.3388   -1.0451 C.ar    1  UNL1       -0.0510
     24 H           0.8142    2.0735   -2.1461 H       1  UNL1        0.0661
     25 H           0.4888    1.6433   -0.4326 H       1  UNL1        0.0661
     26 H           0.6320    3.3395   -0.9094 H       1  UNL1        0.0661
     27 H           5.8045    4.2016    0.3679 H       1  UNL1        0.0378
     28 H           4.1051    3.9705    0.0051 H       1  UNL1        0.0378
     29 H           6.7259    3.6804    2.6171 H       1  UNL1        0.0621
     30 H           6.2897    3.2612    5.0069 H       1  UNL1        0.0632
     31 H           2.1181    2.6456    4.1523 H       1  UNL1        0.0632
     32 H           2.5308    3.0837    1.7670 H       1  UNL1        0.0621
     33 H           3.4810   -0.4975   -2.8085 H       1  UNL1        0.0625
     34 H           2.8695   -2.7106   -3.6327 H       1  UNL1        0.0618
     35 H           4.0807   -4.7269   -2.8397 H       1  UNL1        0.0618
     36 H           5.9410   -4.4800   -1.2113 H       1  UNL1        0.0618
     37 H           6.5162   -2.2575   -0.2960 H       1  UNL1        0.0625
@<TRIPOS>BOND
     1     1    24    1
     2     1    25    1
     3     1    26    1
     4     2     1    1
     5     3     2    1
     6     4     3    2
     7     5     3    1
     8     6     5   ar
     9     7     6   ar
    10     8     7   ar
    11     9     8   ar
    12     9     5   ar
    13    10     9    1
    14    10    27    1
    15    10    28    1
    16    11    10    1
    17    12    11   ar
    18    12    29    1
    19    13    12   ar
    20    13    30    1
    21    14    13   ar
    22    15    14    1
    23    16    14   ar
    24    16    31    1
    25    17    16   ar
    26    17    11   ar
    27    17    32    1
    28    18     6    1
    29    19    18   ar
    30    19    33    1
    31    20    19   ar
    32    20    34    1
    33    21    20   ar
    34    21    35    1
    35    22    21   ar
    36    22    36    1
    37    23    22   ar
    38    23    18   ar
    39    23    37    1
