@<TRIPOS>MOLECULE
>92.sdf
 27 30 0 0 0
SMALL
GASTEIGER

@<TRIPOS>ATOM
      1 O           1.0992    0.0193    0.0950 O.2     1  UNL1       -0.2833
      2 C           2.3074    0.0010    0.0942 C.2     1  UNL1        0.2306
      3 C           3.2446    1.2015    0.0940 C.ar    1  UNL1        0.1895
      4 N           2.9117    2.4479    0.0942 N.ar    1  UNL1       -0.2254
      5 C           3.9837    3.3639    0.0937 C.ar    1  UNL1        0.0786
      6 C           5.3293    2.9623    0.0933 C.ar    1  UNL1        0.0653
      7 C           6.3676    3.9012    0.0927 C.ar    1  UNL1       -0.0473
      8 C           6.0649    5.2606    0.0920 C.ar    1  UNL1       -0.0609
      9 C           4.7328    5.6751    0.0922 C.ar    1  UNL1       -0.0597
     10 C           3.6995    4.7314    0.0930 C.ar    1  UNL1       -0.0355
     11 C           5.6396    1.5131    0.0934 C.ar    1  UNL1        0.2666
     12 O           6.8070    1.1371    0.0935 O.2     1  UNL1       -0.2666
     13 N           4.5304    0.6996    0.0933 N.ar    1  UNL1       -0.2571
     14 C           4.5017   -0.7053    0.0933 C.ar    1  UNL1        0.0625
     15 C           5.5560   -1.6002    0.0929 C.ar    1  UNL1       -0.0370
     16 C           5.2588   -2.9687    0.0928 C.ar    1  UNL1       -0.0598
     17 C           3.9262   -3.4225    0.0932 C.ar    1  UNL1       -0.0610
     18 C           2.8642   -2.5160    0.0937 C.ar    1  UNL1       -0.0488
     19 C           3.1852   -1.1720    0.0937 C.ar    1  UNL1        0.0493
     20 H           7.4054    3.5753    0.0925 H       1  UNL1        0.0626
     21 H           6.8666    5.9953    0.0912 H       1  UNL1        0.0618
     22 H           4.4960    6.7366    0.0916 H       1  UNL1        0.0618
     23 H           2.6642    5.0642    0.0932 H       1  UNL1        0.0639
     24 H           6.5906   -1.2713    0.0925 H       1  UNL1        0.0638
     25 H           6.0731   -3.6916    0.0924 H       1  UNL1        0.0618
     26 H           3.7264   -4.4927    0.0930 H       1  UNL1        0.0618
     27 H           1.8317   -2.8504    0.0938 H       1  UNL1        0.0625
@<TRIPOS>BOND
     1     2     1    2
     2     3     2    1
     3     4     3   ar
     4     5     4   ar
     5     6     5   ar
     6     7     6   ar
     7     7    20    1
     8     8     7   ar
     9     8    21    1
    10     9     8   ar
    11     9    22    1
    12    10     9   ar
    13    10     5   ar
    14    10    23    1
    15    11     6   ar
    16    12    11    2
    17    13    11   ar
    18    13     3   ar
    19    14    13    1
    20    15    14   ar
    21    15    24    1
    22    16    15   ar
    23    16    25    1
    24    17    16   ar
    25    17    26    1
    26    18    17   ar
    27    18    27    1
    28    19    18   ar
    29    19     2    1
    30    19    14   ar
