@<TRIPOS>MOLECULE
>121.sdf
 67 71 0 0 0
SMALL
GASTEIGER

@<TRIPOS>ATOM
      1 C           0.5356    2.4915    1.3483 C.3     1  UNL1       -0.0586
      2 C           0.5831    1.1073    0.6502 C.3     1  UNL1       -0.0179
      3 C           0.2627    1.3119   -0.8398 C.3     1  UNL1       -0.0464
      4 C          -1.2398    1.5504   -1.0955 C.3     1  UNL1       -0.0486
      5 C          -2.0848    0.4433   -0.4344 C.3     1  UNL1       -0.0271
      6 C          -1.8543    0.4262    1.1108 C.3     1  UNL1       -0.0340
      7 C          -2.8212   -0.5036    1.8744 C.3     1  UNL1       -0.0477
      8 C          -3.5096   -1.5565    1.0150 C.3     1  UNL1       -0.0294
      9 C          -4.0360   -1.0494   -0.3351 C.3     1  UNL1        0.0635
     10 N          -5.5067   -1.1672   -0.4240 N.2     1  UNL1       -0.2467
     11 C          -5.9278   -0.6574   -1.5258 C.2     1  UNL1        0.2077
     12 O          -7.2436   -0.5246   -1.7355 O.2     1  UNL1       -0.4926
     13 C          -5.1240   -0.0475   -2.6134 C.2     1  UNL1       -0.0039
     14 C          -3.9699    0.5120   -2.2145 C.2     1  UNL1       -0.0708
     15 C          -3.5936    0.4128   -0.7406 C.3     1  UNL1        0.0118
     16 C          -4.3624    1.5339    0.0101 C.3     1  UNL1       -0.0539
     17 C          -0.3888    0.0669    1.2852 C.3     1  UNL1       -0.0318
     18 C           0.1898   -0.1599    2.6730 C.3     1  UNL1       -0.0487
     19 C           1.7011   -0.1593    2.4035 C.3     1  UNL1       -0.0411
     20 C           1.8799    0.3178    0.9312 C.3     1  UNL1        0.0415
     21 C           3.2457    0.9266    0.6808 C.2     1  UNL1        0.2208
     22 O           3.4392    2.0877    0.3203 O.2     1  UNL1       -0.2751
     23 N           4.2396   -0.0183    0.9686 N.am    1  UNL1       -0.2847
     24 C           5.5129    0.3642    1.4164 C.ar    1  UNL1        0.0456
     25 C           6.0216   -0.3398    2.5074 C.ar    1  UNL1       -0.0283
     26 C           7.1673    0.1191    3.1634 C.ar    1  UNL1        0.0566
     27 C           7.6730    1.3833    2.8379 C.ar    1  UNL1       -0.0495
     28 C           7.2303    2.0229    1.6844 C.ar    1  UNL1       -0.0478
     29 C           6.2520    1.4174    0.8826 C.ar    1  UNL1        0.0760
     30 C           6.3104    1.6535   -0.6109 C.3     1  UNL1        0.4191
     31 F           5.6417    0.7313   -1.3612 F       1  UNL1       -0.1658
     32 F           5.9055    2.8801   -1.0231 F       1  UNL1       -0.1658
     33 F           7.6117    1.5457   -1.0400 F       1  UNL1       -0.1658
     34 C           7.9112   -0.7708    4.1225 C.3     1  UNL1        0.4175
     35 F           7.3884   -2.0263    4.2015 F       1  UNL1       -0.1659
     36 F           7.9490   -0.2903    5.3907 F       1  UNL1       -0.1659
     37 F           9.2071   -0.9386    3.7363 F       1  UNL1       -0.1659
     38 H          -0.4617    2.9400    1.2938 H       1  UNL1        0.0235
     39 H           0.8087    2.4516    2.4084 H       1  UNL1        0.0235
     40 H           1.2188    3.2020    0.8717 H       1  UNL1        0.0235
     41 H           0.8350    2.1556   -1.2466 H       1  UNL1        0.0271
     42 H           0.5748    0.4309   -1.4133 H       1  UNL1        0.0271
     43 H          -1.3829    1.5529   -2.1808 H       1  UNL1        0.0268
     44 H          -1.5429    2.5397   -0.7366 H       1  UNL1        0.0268
     45 H          -1.6754   -0.4909   -0.8509 H       1  UNL1        0.0312
     46 H          -2.0166    1.4297    1.5225 H       1  UNL1        0.0307
     47 H          -2.3246   -0.9985    2.7154 H       1  UNL1        0.0269
     48 H          -3.5970    0.1105    2.3469 H       1  UNL1        0.0269
     49 H          -4.3015   -2.0478    1.5921 H       1  UNL1        0.0286
     50 H          -2.7648   -2.3406    0.8138 H       1  UNL1        0.0286
     51 H          -3.6215   -1.7653   -1.0699 H       1  UNL1        0.0554
     52 H          -7.4445    0.1913   -2.3527 H       1  UNL1        0.2937
     53 H          -5.4643   -0.0768   -3.6377 H       1  UNL1        0.0667
     54 H          -3.3257    1.0084   -2.9304 H       1  UNL1        0.0580
     55 H          -4.8100    1.1757    0.9417 H       1  UNL1        0.0239
     56 H          -3.7175    2.3841    0.2531 H       1  UNL1        0.0239
     57 H          -5.1913    1.9464   -0.5786 H       1  UNL1        0.0239
     58 H          -0.2634   -0.8967    0.7622 H       1  UNL1        0.0309
     59 H          -0.1244   -1.1120    3.1106 H       1  UNL1        0.0268
     60 H          -0.0904    0.6352    3.3722 H       1  UNL1        0.0268
     61 H           2.2206    0.4955    3.1092 H       1  UNL1        0.0273
     62 H           2.1025   -1.1684    2.5261 H       1  UNL1        0.0273
     63 H           1.8625   -0.5825    0.2835 H       1  UNL1        0.0400
     64 H           3.8999   -0.9073    1.3243 H       1  UNL1        0.1548
     65 H           5.5369   -1.2534    2.8507 H       1  UNL1        0.0642
     66 H           8.4969    1.8113    3.4052 H       1  UNL1        0.0623
     67 H           7.7415    2.9195    1.3371 H       1  UNL1        0.0624
@<TRIPOS>BOND
     1     1    38    1
     2     1    39    1
     3     1    40    1
     4     2     1    1
     5     3     2    1
     6     3    41    1
     7     3    42    1
     8     4     3    1
     9     4    43    1
    10     4    44    1
    11     5     4    1
    12     5    45    1
    13     6     5    1
    14     6    46    1
    15     7     6    1
    16     7    47    1
    17     7    48    1
    18     8     7    1
    19     8    49    1
    20     8    50    1
    21     9     8    1
    22     9    51    1
    23    10     9    1
    24    11    10    2
    25    12    11    1
    26    12    52    1
    27    13    11    1
    28    13    53    1
    29    14    13    2
    30    14    54    1
    31    15    14    1
    32    15     5    1
    33    15     9    1
    34    15    16    1
    35    16    55    1
    36    16    56    1
    37    16    57    1
    38    17     6    1
    39    17     2    1
    40    17    58    1
    41    18    17    1
    42    18    59    1
    43    18    60    1
    44    19    18    1
    45    19    61    1
    46    19    62    1
    47    20    19    1
    48    20     2    1
    49    20    63    1
    50    21    20    1
    51    22    21    2
    52    23    21   am
    53    23    64    1
    54    24    23    1
    55    25    24   ar
    56    25    65    1
    57    26    25   ar
    58    27    26   ar
    59    27    66    1
    60    28    27   ar
    61    28    67    1
    62    29    28   ar
    63    29    24   ar
    64    30    29    1
    65    31    30    1
    66    32    30    1
    67    33    30    1
    68    34    26    1
    69    35    34    1
    70    36    34    1
    71    37    34    1
