@<TRIPOS>MOLECULE
>205.sdf
 27 28 0 0 0
SMALL
GASTEIGER

@<TRIPOS>ATOM
      1 C           1.4547   -0.6986   -0.9368 C.3     1  UNL1        0.0805
      2 O           2.4376   -0.1131   -0.0900 O.3     1  UNL1       -0.4783
      3 C           3.0532   -0.9927    0.7304 C.ar    1  UNL1        0.2415
      4 N           2.6967   -2.2750    0.7561 N.ar    1  UNL1       -0.1323
      5 N           3.5203   -2.8142    1.6764 N.ar    1  UNL1       -0.2594
      6 C           3.3789   -4.2299    1.9685 C.3     1  UNL1        0.0519
      7 C           3.5913   -5.0862    0.7350 C.3     1  UNL1        0.0229
      8 BR          3.3766   -6.9680    1.1986 Br      1  UNL1       -0.0899
      9 C           4.3859   -1.9067    2.2499 C.ar    1  UNL1        0.0728
     10 C           4.0946   -0.6891    1.6310 C.ar    1  UNL1        0.0650
     11 C           4.8096    0.4701    1.9859 C.ar    1  UNL1       -0.0172
     12 C           5.8064    0.3628    2.9676 C.ar    1  UNL1        0.1270
     13 C           6.0869   -0.8645    3.5863 C.ar    1  UNL1       -0.0294
     14 C           5.3788   -2.0230    3.2355 C.ar    1  UNL1       -0.0338
     15 N           6.5660    1.5608    3.3515 N.pl3   1  UNL1        0.0565
     16 O           6.2929    2.6279    2.7851 O.2     1  UNL1       -0.1261
     17 O           7.4401    1.4324    4.2232 O.2     1  UNL1       -0.1261
     18 H           1.9086   -1.4164   -1.6294 H       1  UNL1        0.0660
     19 H           0.6518   -1.1672   -0.3564 H       1  UNL1        0.0660
     20 H           1.0065    0.1020   -1.5332 H       1  UNL1        0.0660
     21 H           4.0897   -4.4965    2.7570 H       1  UNL1        0.0517
     22 H           2.3696   -4.3647    2.3759 H       1  UNL1        0.0517
     23 H           2.8593   -4.8818   -0.0538 H       1  UNL1        0.0400
     24 H           4.5980   -4.9773    0.3224 H       1  UNL1        0.0400
     25 H           4.5781    1.4146    1.4993 H       1  UNL1        0.0648
     26 H           6.8602   -0.9388    4.3497 H       1  UNL1        0.0641
     27 H           5.6001   -2.9683    3.7220 H       1  UNL1        0.0639
@<TRIPOS>BOND
     1     1    18    1
     2     1    19    1
     3     1    20    1
     4     2     1    1
     5     3     2    1
     6     4     3   ar
     7     5     4   ar
     8     6     5    1
     9     6    21    1
    10     6    22    1
    11     7     6    1
    12     7    23    1
    13     7    24    1
    14     8     7    1
    15     9     5   ar
    16    10     9   ar
    17    10     3   ar
    18    11    10   ar
    19    11    25    1
    20    12    11   ar
    21    13    12   ar
    22    13    26    1
    23    14    13   ar
    24    14     9   ar
    25    14    27    1
    26    15    12    1
    27    16    15    2
    28    17    15    2
