@<TRIPOS>MOLECULE
>176.sdf
 49 53 0 0 0
SMALL
GASTEIGER

@<TRIPOS>ATOM
      1 C           0.3291   -1.7541    2.9362 C.3     1  UNL1       -0.0430
      2 N          -0.0306   -0.8317    1.8053 N.4     1  UNL1        0.2353
      3 C          -0.0213   -1.5725    0.4691 C.3     1  UNL1       -0.0160
      4 C          -0.4558   -0.6526   -0.6884 C.3     1  UNL1        0.0538
      5 N          -1.7108    0.0386   -0.3829 N.pl3   1  UNL1       -0.3032
      6 C          -1.7567    0.7676    0.8854 C.3     1  UNL1        0.0538
      7 C          -1.3776   -0.1478    2.0600 C.3     1  UNL1       -0.0160
      8 C          -2.8175    0.0006   -1.2182 C.ar    1  UNL1        0.1505
      9 N          -3.9147   -0.5543   -0.7555 N.ar    1  UNL1       -0.1473
     10 N          -4.9940   -0.5786   -1.6248 N.ar    1  UNL1       -0.1902
     11 C          -6.2591   -1.1219   -1.4356 C.ar    1  UNL1        0.1854
     12 N          -6.9815   -0.8812   -2.5201 N.ar    1  UNL1       -0.1270
     13 N          -6.2050   -0.2104   -3.4319 N.ar    1  UNL1       -0.1270
     14 C          -5.0242   -0.0380   -2.8871 C.ar    1  UNL1        0.1860
     15 C          -3.8489    0.6125   -3.4065 C.ar    1  UNL1        0.0315
     16 C          -2.7166    0.6298   -2.5892 C.ar    1  UNL1        0.0274
     17 C          -1.5564    1.2773   -3.0322 C.ar    1  UNL1       -0.0506
     18 C          -1.5261    1.8717   -4.2946 C.ar    1  UNL1       -0.0611
     19 C          -2.6592    1.8522   -5.1046 C.ar    1  UNL1       -0.0610
     20 C          -3.8247    1.2282   -4.6600 C.ar    1  UNL1       -0.0503
     21 C          -6.7499   -1.8100   -0.2385 C.ar    1  UNL1        0.0231
     22 C          -8.1261   -1.8034    0.0501 C.ar    1  UNL1       -0.0509
     23 C          -8.6295   -2.4184    1.2022 C.ar    1  UNL1       -0.0589
     24 C          -7.7621   -3.0515    2.0909 C.ar    1  UNL1       -0.0314
     25 C          -6.3939   -3.0817    1.8003 C.ar    1  UNL1        0.1269
     26 C          -5.8915   -2.4863    0.6340 C.ar    1  UNL1       -0.0207
     27 N          -5.4543   -3.7008    2.7422 N.pl3   1  UNL1        0.0564
     28 O          -5.9165   -4.2295    3.7609 O.2     1  UNL1       -0.1261
     29 O          -4.2407   -3.6224    2.4821 O.2     1  UNL1       -0.1261
     30 H           1.3011   -2.2021    2.7126 H       1  UNL1        0.0778
     31 H           0.3913   -1.1599    3.8512 H       1  UNL1        0.0778
     32 H          -0.4445   -2.5225    3.0184 H       1  UNL1        0.0778
     33 H           0.6873   -0.0967    1.7619 H       1  UNL1        0.2032
     34 H           1.0055   -1.9191    0.3078 H       1  UNL1        0.0830
     35 H          -0.6932   -2.4302    0.5694 H       1  UNL1        0.0830
     36 H           0.3288    0.0943   -0.8591 H       1  UNL1        0.0517
     37 H          -0.5473   -1.2519   -1.6017 H       1  UNL1        0.0517
     38 H          -1.0495    1.6043    0.8247 H       1  UNL1        0.0517
     39 H          -2.7473    1.2015    1.0624 H       1  UNL1        0.0517
     40 H          -2.1195   -0.9392    2.2034 H       1  UNL1        0.0830
     41 H          -1.2667    0.4361    2.9798 H       1  UNL1        0.0830
     42 H          -0.6707    1.3526   -2.4165 H       1  UNL1        0.0625
     43 H          -0.6193    2.3641   -4.6436 H       1  UNL1        0.0618
     44 H          -2.6395    2.3347   -6.0793 H       1  UNL1        0.0618
     45 H          -4.7136    1.2353   -5.2881 H       1  UNL1        0.0625
     46 H          -8.8233   -1.3057   -0.6263 H       1  UNL1        0.0625
     47 H          -9.6992   -2.3926    1.4048 H       1  UNL1        0.0618
     48 H          -8.1656   -3.5109    2.9917 H       1  UNL1        0.0640
     49 H          -4.8314   -2.5522    0.4061 H       1  UNL1        0.0647
@<TRIPOS>UNITY_ATOM_ATTR
2 1
charge 1
@<TRIPOS>BOND
     1     1    30    1
     2     1    31    1
     3     1    32    1
     4     2     1    1
     5     2    33    1
     6     3     2    1
     7     3    34    1
     8     3    35    1
     9     4     3    1
    10     4    36    1
    11     4    37    1
    12     5     4    1
    13     6     5    1
    14     6    38    1
    15     6    39    1
    16     7     6    1
    17     7     2    1
    18     7    40    1
    19     7    41    1
    20     8     5    1
    21     9     8   ar
    22    10     9   ar
    23    11    10   ar
    24    12    11   ar
    25    13    12   ar
    26    14    13   ar
    27    14    10   ar
    28    15    14   ar
    29    16    15   ar
    30    16     8   ar
    31    17    16   ar
    32    17    42    1
    33    18    17   ar
    34    18    43    1
    35    19    18   ar
    36    19    44    1
    37    20    19   ar
    38    20    15   ar
    39    20    45    1
    40    21    11    1
    41    22    21   ar
    42    22    46    1
    43    23    22   ar
    44    23    47    1
    45    24    23   ar
    46    24    48    1
    47    25    24   ar
    48    26    25   ar
    49    26    21   ar
    50    26    49    1
    51    27    25    1
    52    28    27    2
    53    29    27    2
