@<TRIPOS>MOLECULE
>160.sdf
 61 62 0 0 0
SMALL
GASTEIGER

@<TRIPOS>ATOM
      1 C           2.0407   -1.2149    0.5016 C.3     1  UNL1        0.0788
      2 O           2.3028   -0.1136   -0.3278 O.3     1  UNL1       -0.4947
      3 C           3.1630    0.9125   -0.0979 C.ar    1  UNL1        0.1270
      4 C           4.0921    1.1959    0.9117 C.ar    1  UNL1       -0.0015
      5 C           4.5118    0.2799    2.0539 C.3     1  UNL1       -0.0058
      6 C           3.7157    0.4879    3.3147 C.2     1  UNL1       -0.0809
      7 C           4.1251    0.7279    4.5791 C.2     1  UNL1       -0.0793
      8 C           5.5352    0.7167    5.1016 C.3     1  UNL1       -0.0440
      9 C           3.0783    1.0845    5.6053 C.3     1  UNL1       -0.0440
     10 C           4.7606    2.4697    0.8467 C.ar    1  UNL1       -0.0473
     11 C           4.6386    3.3761   -0.2388 C.ar    1  UNL1        0.0058
     12 C           5.4627    4.6679   -0.2707 C.3     1  UNL1        0.0339
     13 C           6.5128    4.7476   -1.3840 C.2     1  UNL1       -0.0792
     14 C           7.0852    3.7399   -2.0587 C.2     1  UNL1       -0.1017
     15 C           4.6256    5.9632   -0.1551 C.ar    1  UNL1        0.0055
     16 C           4.3527    6.4890    1.1284 C.ar    1  UNL1       -0.0507
     17 C           3.6504    7.6978    1.3086 C.ar    1  UNL1       -0.0431
     18 C           3.3263    8.2021    2.7012 C.3     1  UNL1       -0.0092
     19 C           4.3813    9.0810    3.3195 C.2     1  UNL1       -0.0810
     20 C           4.3439    9.5733    4.5788 C.2     1  UNL1       -0.0793
     21 C           3.2318    9.3219    5.5601 C.3     1  UNL1       -0.0440
     22 C           5.4626   10.4442    5.0866 C.3     1  UNL1       -0.0440
     23 C           3.2255    8.4076    0.1814 C.ar    1  UNL1       -0.0548
     24 C           3.4600    7.9005   -1.0977 C.ar    1  UNL1       -0.0196
     25 C           4.1443    6.6905   -1.2570 C.ar    1  UNL1        0.1209
     26 O           4.3622    6.2218   -2.5254 O.3     1  UNL1       -0.5065
     27 C           3.7857    2.9735   -1.2789 C.ar    1  UNL1        0.1244
     28 O           3.6528    3.6292   -2.4629 O.3     1  UNL1       -0.5063
     29 C           3.0433    1.8038   -1.1733 C.ar    1  UNL1        0.0221
     30 H           2.6974   -2.0442    0.2245 H       1  UNL1        0.0660
     31 H           2.0818   -0.9985    1.5633 H       1  UNL1        0.0660
     32 H           1.0159   -1.5308    0.2783 H       1  UNL1        0.0660
     33 H           4.4550   -0.7649    1.7251 H       1  UNL1        0.0357
     34 H           5.5792    0.4523    2.2475 H       1  UNL1        0.0357
     35 H           2.6396    0.4773    3.1458 H       1  UNL1        0.0575
     36 H           5.8013    1.7002    5.5039 H       1  UNL1        0.0274
     37 H           5.6221   -0.0101    5.9202 H       1  UNL1        0.0274
     38 H           6.2786    0.4415    4.3510 H       1  UNL1        0.0274
     39 H           2.7495    2.1160    5.4359 H       1  UNL1        0.0274
     40 H           2.2096    0.4216    5.5410 H       1  UNL1        0.0274
     41 H           3.4671    1.0234    6.6263 H       1  UNL1        0.0274
     42 H           5.4365    2.7400    1.6617 H       1  UNL1        0.0626
     43 H           6.0854    4.6657    0.6359 H       1  UNL1        0.0442
     44 H           6.7950    5.7572   -1.6857 H       1  UNL1        0.0576
     45 H           6.8748    2.6982   -1.8402 H       1  UNL1        0.0532
     46 H           7.7788    3.9489   -2.8686 H       1  UNL1        0.0532
     47 H           4.7003    5.9518    2.0108 H       1  UNL1        0.0625
     48 H           2.3785    8.7550    2.6583 H       1  UNL1        0.0356
     49 H           3.1522    7.3309    3.3442 H       1  UNL1        0.0356
     50 H           5.2350    9.3326    2.6916 H       1  UNL1        0.0575
     51 H           3.6247    8.8339    6.4586 H       1  UNL1        0.0274
     52 H           2.7682   10.2689    5.8579 H       1  UNL1        0.0274
     53 H           2.4403    8.6827    5.1600 H       1  UNL1        0.0274
     54 H           6.4143    9.9041    5.0616 H       1  UNL1        0.0274
     55 H           5.5496   11.3540    4.4838 H       1  UNL1        0.0274
     56 H           5.2891   10.7537    6.1235 H       1  UNL1        0.0274
     57 H           2.6972    9.3528    0.2882 H       1  UNL1        0.0622
     58 H           3.0964    8.4594   -1.9551 H       1  UNL1        0.0654
     59 H           4.0641    6.8940   -3.1621 H       1  UNL1        0.2921
     60 H           4.2814    4.3750   -2.4998 H       1  UNL1        0.2921
     61 H           2.3643    1.5631   -1.9871 H       1  UNL1        0.0691
@<TRIPOS>BOND
     1     1    30    1
     2     1    31    1
     3     1    32    1
     4     2     1    1
     5     3     2    1
     6     4     3   ar
     7     5     4    1
     8     5    33    1
     9     5    34    1
    10     6     5    1
    11     6    35    1
    12     7     6    2
    13     8     7    1
    14     8    36    1
    15     8    37    1
    16     8    38    1
    17     9     7    1
    18     9    39    1
    19     9    40    1
    20     9    41    1
    21    10     4   ar
    22    10    42    1
    23    11    10   ar
    24    12    11    1
    25    12    43    1
    26    13    12    1
    27    13    44    1
    28    14    13    2
    29    14    45    1
    30    14    46    1
    31    15    12    1
    32    16    15   ar
    33    16    47    1
    34    17    16   ar
    35    18    17    1
    36    18    48    1
    37    18    49    1
    38    19    18    1
    39    19    50    1
    40    20    19    2
    41    21    20    1
    42    21    51    1
    43    21    52    1
    44    21    53    1
    45    22    20    1
    46    22    54    1
    47    22    55    1
    48    22    56    1
    49    23    17   ar
    50    23    57    1
    51    24    23   ar
    52    24    58    1
    53    25    24   ar
    54    25    15   ar
    55    26    25    1
    56    26    59    1
    57    27    11   ar
    58    28    27    1
    59    28    60    1
    60    29    27   ar
    61    29     3   ar
    62    29    61    1
