@<TRIPOS>MOLECULE
>163.sdf
 46 48 0 0 0
SMALL
GASTEIGER

@<TRIPOS>ATOM
      1 C           1.4580   -0.0486    0.8719 C.3     1  UNL1        0.0790
      2 O           2.5752    0.0251   -0.0020 O.3     1  UNL1       -0.4914
      3 C           3.1867    1.2374   -0.1344 C.ar    1  UNL1        0.1624
      4 C           2.8123    2.4279    0.5066 C.ar    1  UNL1       -0.0091
      5 C           3.5082    3.6394    0.2779 C.ar    1  UNL1       -0.0208
      6 C           3.0768    4.8681    0.9715 C.2     1  UNL1       -0.0477
      7 C           3.2255    6.0921    0.4349 C.2     1  UNL1        0.0229
      8 C           2.8947    7.3846    1.0660 C.2     1  UNL1        0.3296
      9 O           1.9726    7.3300    2.0376 O.3     1  UNL1       -0.4775
     10 O           3.4193    8.4221    0.6967 O.2     1  UNL1       -0.2458
     11 C           4.6224    3.6429   -0.5726 C.ar    1  UNL1       -0.0468
     12 C           4.9681    2.4710   -1.2155 C.ar    1  UNL1        0.0161
     13 C           4.2649    1.2987   -1.0025 C.ar    1  UNL1        0.1669
     14 O           4.7597    0.2483   -1.7413 O.3     1  UNL1       -0.4791
     15 C           5.5968    0.8762   -2.7661 C.3     1  UNL1        0.1424
     16 C           6.0672    2.2253   -2.1867 C.3     1  UNL1        0.1256
     17 C           7.4517    2.0794   -1.6030 C.2     1  UNL1        0.3163
     18 O           7.5420    1.8245   -0.2804 O.3     1  UNL1       -0.4801
     19 O           8.4570    2.1642   -2.2988 O.2     1  UNL1       -0.2502
     20 C           4.8238    1.0265   -4.0824 C.ar    1  UNL1       -0.0025
     21 C           3.4901    0.5846   -4.2106 C.ar    1  UNL1       -0.0096
     22 C           2.7800    0.7691   -5.3981 C.ar    1  UNL1        0.1616
     23 O           1.4767    0.4047   -5.6236 O.3     1  UNL1       -0.4914
     24 C           0.7948   -0.2129   -4.5366 C.3     1  UNL1        0.0790
     25 C           3.4222    1.3837   -6.4758 C.ar    1  UNL1        0.1585
     26 O           2.7531    1.5839   -7.6523 O.3     1  UNL1       -0.5033
     27 C           4.7422    1.8042   -6.3887 C.ar    1  UNL1       -0.0161
     28 C           5.4447    1.6198   -5.1965 C.ar    1  UNL1       -0.0514
     29 H           1.7398    0.2071    1.8985 H       1  UNL1        0.0660
     30 H           0.6388    0.5864    0.5179 H       1  UNL1        0.0660
     31 H           1.0979   -1.0830    0.8744 H       1  UNL1        0.0660
     32 H           1.9603    2.4407    1.1809 H       1  UNL1        0.0661
     33 H           2.6513    4.7185    1.9590 H       1  UNL1        0.0626
     34 H           3.6837    6.2300   -0.5404 H       1  UNL1        0.0689
     35 H           1.5163    6.4765    2.1200 H       1  UNL1        0.2954
     36 H           5.2094    4.5409   -0.7448 H       1  UNL1        0.0628
     37 H           6.4328    0.1901   -2.9537 H       1  UNL1        0.0796
     38 H           6.1028    3.0352   -2.9234 H       1  UNL1        0.0504
     39 H           3.0155    0.1015   -3.3624 H       1  UNL1        0.0659
     40 H           1.2650   -1.1643   -4.2667 H       1  UNL1        0.0660
     41 H           0.7345    0.4590   -3.6735 H       1  UNL1        0.0660
     42 H          -0.2279   -0.4272   -4.8613 H       1  UNL1        0.0660
     43 H           1.8625    1.2118   -7.5011 H       1  UNL1        0.2923
     44 H           5.2182    2.2746   -7.2444 H       1  UNL1        0.0655
     45 H           6.4806    1.9522   -5.1466 H       1  UNL1        0.0623
     46 H           6.6953    1.7200    0.1957 H       1  UNL1        0.2951
@<TRIPOS>BOND
     1     1    29    1
     2     1    30    1
     3     1    31    1
     4     2     1    1
     5     3     2    1
     6     4     3   ar
     7     4    32    1
     8     5     4   ar
     9     6     5    1
    10     6    33    1
    11     7     6    2
    12     7    34    1
    13     8     7    1
    14     9     8    1
    15     9    35    1
    16    10     8    2
    17    11     5   ar
    18    11    36    1
    19    12    11   ar
    20    13    12   ar
    21    13     3   ar
    22    14    13    1
    23    15    14    1
    24    15    37    1
    25    16    15    1
    26    16    12    1
    27    16    38    1
    28    17    16    1
    29    18    17    1
    30    19    17    2
    31    20    15    1
    32    21    20   ar
    33    21    39    1
    34    22    21   ar
    35    23    22    1
    36    24    23    1
    37    24    40    1
    38    24    41    1
    39    24    42    1
    40    25    22   ar
    41    26    25    1
    42    26    43    1
    43    27    25   ar
    44    27    44    1
    45    28    27   ar
    46    28    20   ar
    47    28    45    1
    48    18    46    1
