@<TRIPOS>MOLECULE
>64.sdf
 37 39 0 0 0
SMALL
GASTEIGER

@<TRIPOS>ATOM
      1 C           1.0902   -0.0128    0.3096 C.3     1  UNL1        0.0004
      2 N           2.4818   -0.1224   -0.1062 N.pl3   1  UNL1       -0.3360
      3 C           3.2714   -1.1859    0.5048 C.3     1  UNL1        0.0004
      4 C           3.1433    0.9518   -0.6910 C.ar    1  UNL1        0.0313
      5 C           4.2545    0.7421   -1.5179 C.ar    1  UNL1       -0.0400
      6 C           4.8635    1.7975   -2.2006 C.ar    1  UNL1       -0.0508
      7 C           4.3814    3.1037   -2.0564 C.ar    1  UNL1        0.0012
      8 C           4.9390    4.1873   -2.7481 C.ar    1  UNL1       -0.0416
      9 C           4.4377    5.4923   -2.5970 C.ar    1  UNL1        0.0223
     10 C           3.3645    5.6247   -1.6987 C.ar    1  UNL1        0.1246
     11 N           2.7633    6.8506   -1.4099 N.pl3   1  UNL1       -0.3426
     12 N           2.8158    4.5958   -1.0195 N.ar    1  UNL1       -0.2318
     13 C           3.3019    3.3574   -1.2007 C.ar    1  UNL1        0.0749
     14 C           2.7129    2.2811   -0.5423 C.ar    1  UNL1       -0.0146
     15 C           5.0502    6.6168   -3.3555 C.ar    1  UNL1       -0.0118
     16 C           5.5049    6.4431   -4.6790 C.ar    1  UNL1       -0.0355
     17 C           6.1169    7.4862   -5.3819 C.ar    1  UNL1        0.0429
     18 CL          6.7044    7.2077   -6.9763 Cl      1  UNL1       -0.0835
     19 C           6.2643    8.7411   -4.8052 C.ar    1  UNL1       -0.0250
     20 C           5.8088    8.9390   -3.5086 C.ar    1  UNL1        0.0429
     21 CL          5.9610   10.4912   -2.7814 Cl      1  UNL1       -0.0835
     22 C           5.2289    7.8914   -2.7861 C.ar    1  UNL1       -0.0355
     23 H           0.5770   -0.9591    0.1041 H       1  UNL1        0.0428
     24 H           1.0136    0.1968    1.3808 H       1  UNL1        0.0428
     25 H           0.5393    0.7546   -0.2455 H       1  UNL1        0.0428
     26 H           3.7855   -1.7844   -0.2536 H       1  UNL1        0.0428
     27 H           4.0101   -0.7788    1.2050 H       1  UNL1        0.0428
     28 H           2.6321   -1.8743    1.0699 H       1  UNL1        0.0428
     29 H           4.6306   -0.2628   -1.6881 H       1  UNL1        0.0636
     30 H           5.6996    1.5829   -2.8619 H       1  UNL1        0.0625
     31 H           5.7829    4.0018   -3.4088 H       1  UNL1        0.0631
     32 H           1.9971    6.6539   -0.7725 H       1  UNL1        0.1437
     33 H           2.4460    7.3187   -2.2525 H       1  UNL1        0.1437
     34 H           1.8864    2.5125    0.1271 H       1  UNL1        0.0657
     35 H           5.3849    5.4834   -5.1794 H       1  UNL1        0.0638
     36 H           6.7303    9.5518   -5.3569 H       1  UNL1        0.0647
     37 H           4.9200    8.0793   -1.7591 H       1  UNL1        0.0638
@<TRIPOS>BOND
     1     1    23    1
     2     1    24    1
     3     1    25    1
     4     2     1    1
     5     3     2    1
     6     3    26    1
     7     3    27    1
     8     3    28    1
     9     4     2    1
    10     5     4   ar
    11     5    29    1
    12     6     5   ar
    13     6    30    1
    14     7     6   ar
    15     8     7   ar
    16     8    31    1
    17     9     8   ar
    18    10     9   ar
    19    11    10    1
    20    11    32    1
    21    11    33    1
    22    12    10   ar
    23    13    12   ar
    24    13     7   ar
    25    14    13   ar
    26    14     4   ar
    27    14    34    1
    28    15     9    1
    29    16    15   ar
    30    16    35    1
    31    17    16   ar
    32    18    17    1
    33    19    17   ar
    34    19    36    1
    35    20    19   ar
    36    21    20    1
    37    22    20   ar
    38    22    15   ar
    39    22    37    1
