@<TRIPOS>MOLECULE
>63.sdf
 55 56 0 0 0
SMALL
GASTEIGER

@<TRIPOS>ATOM
      1 C           5.1481   -1.1052   -0.9969 C.3     1  UNL1       -0.0306
      2 C           4.1934   -0.0079   -1.4487 C.3     1  UNL1        0.0900
      3 O           4.6069    1.2963   -1.0032 O.3     1  UNL1       -0.4616
      4 C           4.4340    1.5204    0.3259 C.2     1  UNL1        0.3375
      5 O           3.9508    0.7114    1.1060 O.2     1  UNL1       -0.2452
      6 C           4.9142    2.8696    0.7255 C.2     1  UNL1        0.0652
      7 C           4.3150    3.5282    1.7495 C.2     1  UNL1        0.0157
      8 C           3.1177    3.0754    2.5547 C.3     1  UNL1       -0.0260
      9 N           4.8198    4.7502    2.1616 N.pl3   1  UNL1       -0.3207
     10 C           6.0570    5.2610    1.7989 C.2     1  UNL1        0.0157
     11 C           6.5025    6.4180    2.6604 C.3     1  UNL1       -0.0260
     12 C           6.7447    4.6892    0.7808 C.2     1  UNL1        0.0652
     13 C           6.1440    3.4809    0.0195 C.3     1  UNL1        0.0507
     14 C           7.2206    2.4383   -0.2770 C.ar    1  UNL1       -0.0314
     15 C           7.8956    1.7834    0.7537 C.ar    1  UNL1       -0.0540
     16 C           8.9902    0.9703    0.4649 C.ar    1  UNL1       -0.0160
     17 C           9.4339    0.7892   -0.8544 C.ar    1  UNL1        0.1615
     18 O          10.5746    0.0998   -1.1678 O.3     1  UNL1       -0.4915
     19 C          11.4238   -0.2863   -0.0941 C.3     1  UNL1        0.0790
     20 C           8.7072    1.3758   -1.9010 C.ar    1  UNL1        0.1618
     21 O           8.9766    1.3375   -3.2459 O.3     1  UNL1       -0.4914
     22 C           9.6691    0.1935   -3.7320 C.3     1  UNL1        0.0790
     23 C           7.6149    2.1976   -1.6032 C.ar    1  UNL1       -0.0122
     24 C           8.1442    5.1226    0.5035 C.2     1  UNL1        0.3375
     25 O           8.9160    5.4912    1.3803 O.2     1  UNL1       -0.2452
     26 O           8.4758    5.0287   -0.8130 O.3     1  UNL1       -0.4616
     27 C           9.8561    5.3510   -1.0632 C.3     1  UNL1        0.0900
     28 C          10.2729    4.9209   -2.4580 C.3     1  UNL1       -0.0306
     29 H           4.7746   -2.0876   -1.3017 H       1  UNL1        0.0262
     30 H           6.1406   -0.9564   -1.4324 H       1  UNL1        0.0262
     31 H           5.2805   -1.1167    0.0891 H       1  UNL1        0.0262
     32 H           4.1714    0.0185   -2.5432 H       1  UNL1        0.0695
     33 H           3.1690   -0.2100   -1.1138 H       1  UNL1        0.0695
     34 H           3.4062    2.9676    3.6071 H       1  UNL1        0.0290
     35 H           2.3288    3.8336    2.4990 H       1  UNL1        0.0290
     36 H           2.6633    2.1373    2.2425 H       1  UNL1        0.0290
     37 H           4.4090    5.1370    3.0097 H       1  UNL1        0.1516
     38 H           5.7080    7.1699    2.7080 H       1  UNL1        0.0290
     39 H           6.6908    6.0648    3.6818 H       1  UNL1        0.0290
     40 H           7.3925    6.9377    2.3072 H       1  UNL1        0.0290
     41 H           5.7750    3.8780   -0.9391 H       1  UNL1        0.0451
     42 H           7.6087    1.9427    1.7918 H       1  UNL1        0.0622
     43 H           9.5017    0.5175    1.3073 H       1  UNL1        0.0655
     44 H          11.6744    0.5607    0.5545 H       1  UNL1        0.0660
     45 H          10.9675   -1.1014    0.4762 H       1  UNL1        0.0660
     46 H          12.3592   -0.6571   -0.5227 H       1  UNL1        0.0660
     47 H          10.7420    0.2602   -3.5291 H       1  UNL1        0.0660
     48 H           9.2371   -0.7384   -3.3569 H       1  UNL1        0.0660
     49 H           9.5608    0.1876   -4.8266 H       1  UNL1        0.0660
     50 H           7.0927    2.6907   -2.4234 H       1  UNL1        0.0658
     51 H           9.9735    6.4353   -0.9693 H       1  UNL1        0.0695
     52 H          10.5102    4.8508   -0.3380 H       1  UNL1        0.0695
     53 H          10.3801    3.8333   -2.5111 H       1  UNL1        0.0262
     54 H           9.5339    5.2164   -3.2075 H       1  UNL1        0.0262
     55 H          11.2421    5.3608   -2.7170 H       1  UNL1        0.0262
@<TRIPOS>BOND
     1     1    29    1
     2     1    30    1
     3     1    31    1
     4     2     1    1
     5     2    32    1
     6     2    33    1
     7     3     2    1
     8     4     3    1
     9     5     4    2
    10     6     4    1
    11     7     6    2
    12     8     7    1
    13     8    34    1
    14     8    35    1
    15     8    36    1
    16     9     7    1
    17     9    37    1
    18    10     9    1
    19    11    10    1
    20    11    38    1
    21    11    39    1
    22    11    40    1
    23    12    10    2
    24    13    12    1
    25    13     6    1
    26    15    14   ar
    27    15    42    1
    28    16    15   ar
    29    16    43    1
    30    17    16   ar
    31    18    17    1
    32    19    18    1
    33    19    44    1
    34    19    45    1
    35    19    46    1
    36    20    17   ar
    37    21    20    1
    38    22    21    1
    39    22    47    1
    40    22    48    1
    41    22    49    1
    42    23    20   ar
    43    23    14   ar
    44    23    50    1
    45    24    12    1
    46    25    24    2
    47    26    24    1
    48    27    26    1
    49    27    51    1
    50    27    52    1
    51    28    27    1
    52    28    53    1
    53    28    54    1
    54    28    55    1
    55    13    14    1
    56    13    41    1
