@<TRIPOS>MOLECULE
>30.sdf
 48 51 0 0 0
SMALL
GASTEIGER

@<TRIPOS>ATOM
      1 O           1.4520   -1.7439   -0.6579 O.3     1  UNL1       -0.5033
      2 C           0.2907   -1.0226   -0.6915 C.ar    1  UNL1        0.1582
      3 C          -0.1229   -0.3361   -1.8243 C.ar    1  UNL1       -0.0160
      4 C          -1.3272    0.3782   -1.7870 C.ar    1  UNL1       -0.0509
      5 C          -2.1210    0.3989   -0.6254 C.ar    1  UNL1       -0.0213
      6 C          -3.3664    1.1784   -0.6254 C.2     1  UNL1       -0.0525
      7 C          -4.4507    0.8717    0.1097 C.2     1  UNL1       -0.0357
      8 C          -5.6924    1.6562    0.1051 C.ar    1  UNL1        0.0647
      9 N          -5.7277    2.7563   -0.6796 N.ar    1  UNL1       -0.2436
     10 C          -6.8581    3.4874   -0.7461 C.ar    1  UNL1        0.1136
     11 C          -8.0005    3.1459    0.0072 C.ar    1  UNL1        0.0040
     12 C          -7.9346    2.0191    0.8371 C.ar    1  UNL1       -0.0504
     13 C          -6.7700    1.2609    0.8825 C.ar    1  UNL1       -0.0357
     14 C          -9.1635    3.9276   -0.0698 C.ar    1  UNL1       -0.0517
     15 C          -9.2116    5.0382   -0.9121 C.ar    1  UNL1       -0.0467
     16 C          -8.0994    5.3844   -1.6860 C.ar    1  UNL1        0.0658
     17 C          -8.2247    6.5845   -2.5581 C.2     1  UNL1        0.1968
     18 O          -8.9849    7.4910   -2.2197 O.2     1  UNL1       -0.2865
     19 C          -7.4386    6.7560   -3.8093 C.ar    1  UNL1        0.0245
     20 C          -7.1163    5.6726   -4.6362 C.ar    1  UNL1       -0.0207
     21 C          -6.2526    5.8744   -5.7202 C.ar    1  UNL1        0.1269
     22 C          -5.7734    7.1562   -6.0264 C.ar    1  UNL1       -0.0314
     23 C          -6.1583    8.2417   -5.2392 C.ar    1  UNL1       -0.0589
     24 C          -6.9856    8.0425   -4.1327 C.ar    1  UNL1       -0.0508
     25 N          -5.8111    4.7236   -6.5186 N.pl3   1  UNL1        0.0564
     26 O          -6.2567    3.6071   -6.2193 O.2     1  UNL1       -0.1261
     27 O          -5.0177    4.9375   -7.4462 O.2     1  UNL1       -0.1261
     28 C          -6.9280    4.6216   -1.5650 C.ar    1  UNL1        0.1535
     29 O          -5.7911    4.9855   -2.2525 O.3     1  UNL1       -0.5039
     30 C          -1.6691   -0.2820    0.5125 C.ar    1  UNL1       -0.0094
     31 C          -0.4786   -0.9911    0.4685 C.ar    1  UNL1        0.1588
     32 O          -0.0593   -1.6605    1.5826 O.3     1  UNL1       -0.5033
     33 H           1.8714   -1.6775   -1.5366 H       1  UNL1        0.2923
     34 H           0.4632   -0.3418   -2.7376 H       1  UNL1        0.0655
     35 H          -1.6508    0.9126   -2.6776 H       1  UNL1        0.0625
     36 H          -3.3859    2.0451   -1.2846 H       1  UNL1        0.0624
     37 H          -4.4527   -0.0080    0.7458 H       1  UNL1        0.0639
     38 H          -8.7863    1.7212    1.4437 H       1  UNL1        0.0625
     39 H          -6.7170    0.3800    1.5143 H       1  UNL1        0.0639
     40 H         -10.0415    3.6760    0.5223 H       1  UNL1        0.0624
     41 H         -10.1216    5.6343   -0.9605 H       1  UNL1        0.0626
     42 H          -7.4835    4.6757   -4.4034 H       1  UNL1        0.0647
     43 H          -5.1010    7.3221   -6.8660 H       1  UNL1        0.0640
     44 H          -5.7989    9.2414   -5.4746 H       1  UNL1        0.0618
     45 H          -7.2603    8.8911   -3.5064 H       1  UNL1        0.0625
     46 H          -5.3858    5.7177   -1.7544 H       1  UNL1        0.2923
     47 H          -2.2293   -0.2620    1.4420 H       1  UNL1        0.0661
     48 H           0.7872   -2.0721    1.3136 H       1  UNL1        0.2923
@<TRIPOS>BOND
     1     1    33    1
     2     2     1    1
     3     3     2   ar
     4     3    34    1
     5     4     3   ar
     6     4    35    1
     7     5     4   ar
     8     6     5    1
     9     6    36    1
    10     7     6    2
    11     7    37    1
    12     8     7    1
    13     9     8   ar
    14    10     9   ar
    15    11    10   ar
    16    12    11   ar
    17    12    38    1
    18    13    12   ar
    19    13     8   ar
    20    13    39    1
    21    14    11   ar
    22    14    40    1
    23    15    14   ar
    24    15    41    1
    25    16    15   ar
    26    17    16    1
    27    18    17    2
    28    19    17    1
    29    20    19   ar
    30    20    42    1
    31    21    20   ar
    32    22    21   ar
    33    22    43    1
    34    23    22   ar
    35    23    44    1
    36    24    23   ar
    37    24    19   ar
    38    24    45    1
    39    25    21    1
    40    26    25    2
    41    27    25    2
    42    28    16   ar
    43    28    10   ar
    44    29    28    1
    45    29    46    1
    46    30     5   ar
    47    30    47    1
    48    31    30   ar
    49    31     2   ar
    50    32    31    1
    51    32    48    1
