@<TRIPOS>MOLECULE
>32.sdf
 47 49 0 0 0
SMALL
GASTEIGER

@<TRIPOS>ATOM
      1 C           1.7893    2.1361    2.9747 C.3     1  UNL1       -0.0494
      2 C           2.1442    0.8503    2.2412 C.3     1  UNL1        0.0097
      3 N           2.8951    1.1126    0.9792 N.pl3   1  UNL1       -0.3222
      4 C           2.3554    0.3434   -0.1775 C.3     1  UNL1        0.0522
      5 C           1.5473    1.2761   -1.0991 C.3     1  UNL1       -0.0193
      6 N           2.3279    2.5041   -1.3788 N.4     1  UNL1        0.2196
      7 C           4.3074    1.2674    1.0763 C.ar    1  UNL1        0.0736
      8 C           4.9440    1.4311    2.3353 C.ar    1  UNL1       -0.0159
      9 C           6.3331    1.5826    2.5005 C.ar    1  UNL1        0.0333
     10 N           6.8801    1.7937    3.7837 N.pl3   1  UNL1       -0.3139
     11 C           8.1899    1.4718    4.2241 C.ar    1  UNL1        0.0420
     12 C           8.7791    0.2679    3.8328 C.ar    1  UNL1       -0.0218
     13 C          10.0694   -0.0002    4.2364 C.ar    1  UNL1        0.0300
     14 N          10.8012    0.8341    4.9987 N.ar    1  UNL1       -0.2548
     15 C          10.2365    1.9795    5.4098 C.ar    1  UNL1        0.0741
     16 C           8.9104    2.3485    5.0758 C.ar    1  UNL1        0.0216
     17 C           8.3999    3.5723    5.5679 C.ar    1  UNL1       -0.0494
     18 C           9.1901    4.4181    6.3511 C.ar    1  UNL1       -0.0426
     19 C          10.4947    4.0459    6.6415 C.ar    1  UNL1        0.0430
     20 CL         11.4972    5.0969    7.5649 Cl      1  UNL1       -0.0835
     21 C          11.0062    2.8383    6.1762 C.ar    1  UNL1       -0.0173
     22 C           7.1343    1.5749    1.3618 C.ar    1  UNL1       -0.0370
     23 C           6.5672    1.4496    0.0999 C.ar    1  UNL1       -0.0166
     24 C           5.1781    1.3296   -0.0414 C.ar    1  UNL1        0.1379
     25 O           4.7011    1.3262   -1.3381 O.3     1  UNL1       -0.5049
     26 H           1.3670    1.8960    3.9564 H       1  UNL1        0.0245
     27 H           2.6467    2.7954    3.1300 H       1  UNL1        0.0245
     28 H           1.0403    2.7030    2.4134 H       1  UNL1        0.0245
     29 H           2.6823    0.1425    2.8839 H       1  UNL1        0.0461
     30 H           1.1905    0.3548    2.0184 H       1  UNL1        0.0461
     31 H           3.1275   -0.1931   -0.7368 H       1  UNL1        0.0516
     32 H           1.6869   -0.4573    0.1624 H       1  UNL1        0.0516
     33 H           1.3094    0.8012   -2.0545 H       1  UNL1        0.0829
     34 H           0.6252    1.6092   -0.6127 H       1  UNL1        0.0829
     35 H           2.5813    2.9232   -0.4711 H       1  UNL1        0.1995
     36 H           3.2451    2.2423   -1.7769 H       1  UNL1        0.1995
     37 H           1.8617    3.1932   -1.9749 H       1  UNL1        0.1995
     38 H           4.3670    1.4332    3.2535 H       1  UNL1        0.0656
     39 H           6.2156    1.8182    4.5516 H       1  UNL1        0.1522
     40 H           8.2456   -0.4517    3.2216 H       1  UNL1        0.0651
     41 H          10.5684   -0.9191    3.9440 H       1  UNL1        0.0830
     42 H           7.3856    3.8839    5.3330 H       1  UNL1        0.0625
     43 H           8.7884    5.3571    6.7183 H       1  UNL1        0.0632
     44 H          12.0312    2.5574    6.4037 H       1  UNL1        0.0653
     45 H           8.2115    1.7077    1.4437 H       1  UNL1        0.0637
     46 H           7.2308    1.4792   -0.7608 H       1  UNL1        0.0655
     47 H           5.4587    1.0634   -1.9018 H       1  UNL1        0.2922
@<TRIPOS>UNITY_ATOM_ATTR
6 1
charge 1
@<TRIPOS>BOND
     1     1    26    1
     2     1    27    1
     3     1    28    1
     4     2     1    1
     5     2    29    1
     6     2    30    1
     7     3     2    1
     8     4     3    1
     9     4    31    1
    10     4    32    1
    11     5     4    1
    12     5    33    1
    13     5    34    1
    14     6     5    1
    15     6    35    1
    16     6    36    1
    17     6    37    1
    18     7     3    1
    19     8     7   ar
    20     8    38    1
    21     9     8   ar
    22    10     9    1
    23    10    39    1
    24    11    10    1
    25    12    11   ar
    26    12    40    1
    27    13    12   ar
    28    13    41    1
    29    14    13   ar
    30    15    14   ar
    31    16    15   ar
    32    16    11   ar
    33    17    16   ar
    34    17    42    1
    35    18    17   ar
    36    18    43    1
    37    19    18   ar
    38    20    19    1
    39    21    19   ar
    40    21    15   ar
    41    21    44    1
    42    22     9   ar
    43    22    45    1
    44    23    22   ar
    45    23    46    1
    46    24    23   ar
    47    24     7   ar
    48    25    24    1
    49    25    47    1
