@<TRIPOS>MOLECULE
>226_3.sdf
 35 38 0 0 0
SMALL
GASTEIGER

@<TRIPOS>ATOM
      1 CL          6.0763   -5.7221    0.2188 Cl      1  UNL1       -0.0835
      2 C           5.4897   -4.1071    0.1386 C.ar    1  UNL1        0.0410
      3 C           6.1644   -3.1632   -0.6276 C.ar    1  UNL1       -0.0430
      4 C           5.6955   -1.8488   -0.6779 C.ar    1  UNL1       -0.0536
      5 C           4.5489   -1.4615    0.0367 C.ar    1  UNL1       -0.0048
      6 C           3.8754   -2.4306    0.7988 C.ar    1  UNL1       -0.0536
      7 C           4.3443   -3.7489    0.8464 C.ar    1  UNL1       -0.0430
      8 C           4.0623   -0.0158    0.0235 C.3     1  UNL1        0.1546
      9 O           4.4035    0.5924   -1.2331 O.3     1  UNL1       -0.4809
     10 C           4.2108    1.9426   -1.3056 C.ar    1  UNL1        0.1320
     11 C           4.3137    2.5087   -2.5752 C.ar    1  UNL1       -0.0192
     12 C           4.1612    3.8866   -2.7433 C.ar    1  UNL1       -0.0583
     13 C           3.9003    4.7031   -1.6425 C.ar    1  UNL1       -0.0609
     14 C           3.7972    4.1428   -0.3692 C.ar    1  UNL1       -0.0477
     15 C           3.9649    2.7642   -0.2069 C.ar    1  UNL1        0.0613
     16 C           3.9453    2.1670    1.1395 C.2     1  UNL1        0.1949
     17 O           3.5245    2.7971    2.1058 O.2     1  UNL1       -0.2895
     18 C           4.5143    0.7822    1.2577 C.3     1  UNL1        0.1574
     19 N           5.9348    0.8708    1.5186 N.ar    1  UNL1       -0.2372
     20 C           6.5466    0.9470    2.7387 C.ar    1  UNL1        0.0464
     21 C           7.8837    1.0179    2.4341 C.ar    1  UNL1        0.0693
     22 N           8.0413    1.0200    1.0792 N.ar    1  UNL1       -0.1379
     23 N           6.8380    0.9637    0.5267 N.ar    1  UNL1       -0.0649
     24 H           7.0596   -3.4344   -1.1815 H       1  UNL1        0.0632
     25 H           6.2465   -1.1222   -1.2753 H       1  UNL1        0.0622
     26 H           2.9787   -2.1766    1.3583 H       1  UNL1        0.0622
     27 H           3.8142   -4.4905    1.4390 H       1  UNL1        0.0632
     28 H           2.9619   -0.0636    0.0277 H       1  UNL1        0.0811
     29 H           4.5256    1.8777   -3.4351 H       1  UNL1        0.0654
     30 H           4.2570    4.3241   -3.7344 H       1  UNL1        0.0619
     31 H           3.7966    5.7774   -1.7741 H       1  UNL1        0.0618
     32 H           3.6163    4.7836    0.4911 H       1  UNL1        0.0626
     33 H           4.0682    0.3142    2.1464 H       1  UNL1        0.0669
     34 H           6.0041    0.9535    3.6726 H       1  UNL1        0.0842
     35 H           8.7294    1.0786    3.1034 H       1  UNL1        0.0864
@<TRIPOS>BOND
     1     2     1    1
     2     3     2   ar
     3     3    24    1
     4     4     3   ar
     5     4    25    1
     6     5     4   ar
     7     6     5   ar
     8     6    26    1
     9     7     6   ar
    10     7     2   ar
    11     7    27    1
    12     9     8    1
    13    10     9    1
    14    11    10   ar
    15    11    29    1
    16    12    11   ar
    17    12    30    1
    18    13    12   ar
    19    13    31    1
    20    14    13   ar
    21    14    32    1
    22    15    14   ar
    23    15    10   ar
    24    16    15    1
    25    17    16    2
    26    18    16    1
    27    18     8    1
    28    20    19   ar
    29    20    34    1
    30    21    20   ar
    31    21    35    1
    32    22    21   ar
    33    23    22   ar
    34    23    19   ar
    35     8    28    1
    36     8     5    1
    37    18    19    1
    38    18    33    1
