@<TRIPOS>MOLECULE
>142.sdf
 45 48 0 0 0
SMALL
GASTEIGER

@<TRIPOS>ATOM
      1 C          10.4595    0.9442   -6.0318 C.3     1  UNL1        0.0790
      2 O          10.2114    2.3294   -5.7963 O.3     1  UNL1       -0.4914
      3 C           9.0446    2.6306   -5.1258 C.ar    1  UNL1        0.1632
      4 C           8.4962    3.9258   -5.3165 C.ar    1  UNL1        0.1798
      5 O           9.2444    4.7082   -6.1577 O.3     1  UNL1       -0.4901
      6 C           8.8323    6.0199   -6.4981 C.3     1  UNL1        0.0790
      7 C           7.2939    4.2375   -4.6546 C.ar    1  UNL1        0.0864
      8 CL          6.4120    5.7223   -4.7824 Cl      1  UNL1       -0.0796
      9 C           6.6800    3.2912   -3.8196 C.ar    1  UNL1       -0.0355
     10 C           7.2257    2.0170   -3.6339 C.ar    1  UNL1       -0.0295
     11 C           8.4255    1.7052   -4.2785 C.ar    1  UNL1       -0.0121
     12 C           6.4836    0.9739   -2.7956 C.3     1  UNL1        0.0562
     13 C           6.0955   -0.2116   -3.6608 C.2     1  UNL1        0.0981
     14 C           5.4284    0.1985   -4.9636 C.1     1  UNL1        0.1008
     15 N           4.8750    0.5387   -6.0443 N.1     1  UNL1       -0.1910
     16 C           6.3793   -1.4810   -3.3223 C.2     1  UNL1        0.1987
     17 N           6.0026   -2.5932   -4.0257 N.pl3   1  UNL1       -0.3284
     18 O           7.1318   -1.7597   -2.1751 O.2     1  UNL1       -0.4370
     19 C           7.6115   -0.7188   -1.3770 C.2     1  UNL1        0.1848
     20 C           7.2897    0.5594   -1.6062 C.2     1  UNL1        0.0585
     21 C           7.7333    1.6393   -0.7085 C.2     1  UNL1        0.1944
     22 O           7.1660    2.7219   -0.6685 O.2     1  UNL1       -0.2868
     23 C           8.9133    1.3688    0.1191 C.ar    1  UNL1        0.0330
     24 C           9.2859    0.0514    0.3659 C.ar    1  UNL1        0.0362
     25 C          10.3914   -0.1946    1.1897 C.ar    1  UNL1       -0.0501
     26 C          11.1201    0.8759    1.7200 C.ar    1  UNL1       -0.0610
     27 C          10.7551    2.1918    1.4309 C.ar    1  UNL1       -0.0610
     28 C           9.6402    2.4431    0.6380 C.ar    1  UNL1       -0.0502
     29 C           8.5462   -1.0679   -0.2648 C.2     1  UNL1        0.2291
     30 O           8.7511   -2.2271    0.0681 O.2     1  UNL1       -0.2833
     31 H          10.7907    0.4476   -5.1130 H       1  UNL1        0.0660
     32 H           9.5776    0.4431   -6.4489 H       1  UNL1        0.0660
     33 H          11.2680    0.8584   -6.7617 H       1  UNL1        0.0660
     34 H           7.9037    6.0020   -7.0772 H       1  UNL1        0.0660
     35 H           8.7680    6.6614   -5.6150 H       1  UNL1        0.0660
     36 H           9.6018    6.4554   -7.1425 H       1  UNL1        0.0660
     37 H           5.7544    3.5548   -3.3081 H       1  UNL1        0.0636
     38 H           8.8591    0.7228   -4.1230 H       1  UNL1        0.0658
     39 H           5.5465    1.4147   -2.4242 H       1  UNL1        0.0457
     40 H           6.5623   -3.4197   -3.8306 H       1  UNL1        0.1451
     41 H           5.7461   -2.4709   -5.0013 H       1  UNL1        0.1451
     42 H          10.6960   -1.2186    1.4124 H       1  UNL1        0.0625
     43 H          11.9840    0.6846    2.3534 H       1  UNL1        0.0618
     44 H          11.3345    3.0231    1.8272 H       1  UNL1        0.0618
     45 H           9.3522    3.4674    0.4095 H       1  UNL1        0.0625
@<TRIPOS>BOND
     1     1    31    1
     2     1    32    1
     3     1    33    1
     4     2     1    1
     5     3     2    1
     6     4     3   ar
     7     5     4    1
     8     6     5    1
     9     6    34    1
    10     6    35    1
    11     6    36    1
    12     7     4   ar
    13     8     7    1
    14     9     7   ar
    15     9    37    1
    16    10     9   ar
    17    11    10   ar
    18    11     3   ar
    19    11    38    1
    20    13    12    1
    21    14    13    1
    22    15    14    3
    23    16    13    2
    24    17    16    1
    25    17    40    1
    26    17    41    1
    27    18    16    1
    28    19    18    1
    29    20    19    2
    30    20    12    1
    31    21    20    1
    32    22    21    2
    33    23    21    1
    34    24    23   ar
    35    25    24   ar
    36    25    42    1
    37    26    25   ar
    38    26    43    1
    39    27    26   ar
    40    27    44    1
    41    28    27   ar
    42    28    23   ar
    43    28    45    1
    44    29    24    1
    45    29    19    1
    46    30    29    2
    47    12    39    1
    48    12    10    1
