@<TRIPOS>MOLECULE
>221.sdf
 57 59 0 0 0
SMALL
GASTEIGER

@<TRIPOS>ATOM
      1 C           8.9333  -10.7930    4.7187 C.3     1  UNL1       -0.0440
      2 C           9.0626   -9.3508    5.1168 C.2     1  UNL1       -0.0793
      3 C           8.8896   -9.0558    6.5812 C.3     1  UNL1       -0.0440
      4 C           9.3312   -8.4046    4.1972 C.2     1  UNL1       -0.0809
      5 C           9.5457   -6.9488    4.4657 C.3     1  UNL1       -0.0058
      6 C           8.5524   -6.0462    3.7796 C.ar    1  UNL1       -0.0016
      7 C           7.5159   -5.5020    4.5465 C.ar    1  UNL1       -0.0481
      8 C           6.9020   -4.3332    4.1036 C.ar    1  UNL1       -0.0062
      9 C           6.9261   -4.0445    2.7280 C.ar    1  UNL1       -0.0481
     10 C           7.8608   -4.6705    1.8896 C.ar    1  UNL1       -0.0016
     11 C           7.9103   -4.2870    0.4243 C.3     1  UNL1       -0.0058
     12 C           6.7309   -4.8524   -0.3207 C.2     1  UNL1       -0.0809
     13 C           6.6749   -5.2206   -1.6147 C.2     1  UNL1       -0.0793
     14 C           7.7690   -5.0301   -2.6207 C.3     1  UNL1       -0.0440
     15 C           5.4337   -5.9053   -2.1180 C.3     1  UNL1       -0.0440
     16 C           8.7429   -5.5866    2.4647 C.ar    1  UNL1        0.1238
     17 O           9.8757   -5.9678    1.8038 O.3     1  UNL1       -0.5062
     18 C           6.6726   -3.1638    5.0935 C.3     1  UNL1        0.1322
     19 C           7.5046   -1.9475    4.6517 C.3     1  UNL1        0.0519
     20 C           8.9484   -2.4000    4.6420 C.2     1  UNL1        0.1705
     21 O           9.7653   -2.0408    3.7901 O.2     1  UNL1       -0.2918
     22 C           9.3496   -3.2358    5.7826 C.ar    1  UNL1        0.0594
     23 C          10.6626   -3.6885    5.9355 C.ar    1  UNL1       -0.0443
     24 C          11.0444   -4.2605    7.1471 C.ar    1  UNL1       -0.0193
     25 C          10.1164   -4.3317    8.1857 C.ar    1  UNL1        0.1204
     26 O          10.5029   -4.7184    9.4347 O.3     1  UNL1       -0.5066
     27 C           8.7747   -4.0109    7.9815 C.ar    1  UNL1        0.0223
     28 C           8.3751   -3.5261    6.7392 C.ar    1  UNL1        0.1353
     29 O           7.0220   -3.4251    6.4864 O.3     1  UNL1       -0.4830
     30 H           9.7352  -11.3780    5.1801 H       1  UNL1        0.0274
     31 H           7.9696  -11.1947    5.0471 H       1  UNL1        0.0274
     32 H           9.0016  -10.9296    3.6350 H       1  UNL1        0.0274
     33 H           9.7220   -8.4612    6.9697 H       1  UNL1        0.0274
     34 H           7.9511   -8.5211    6.7543 H       1  UNL1        0.0274
     35 H           8.8603   -9.9792    7.1674 H       1  UNL1        0.0274
     36 H           9.4450   -8.6910    3.1514 H       1  UNL1        0.0575
     37 H           9.5194   -6.7347    5.5412 H       1  UNL1        0.0357
     38 H          10.5640   -6.6710    4.1644 H       1  UNL1        0.0357
     39 H           7.3917   -5.8274    5.5788 H       1  UNL1        0.0625
     40 H           6.3446   -3.2135    2.3326 H       1  UNL1        0.0625
     41 H           7.9213   -3.1934    0.3427 H       1  UNL1        0.0357
     42 H           8.8430   -4.6413   -0.0251 H       1  UNL1        0.0357
     43 H           5.8451   -5.0404    0.2885 H       1  UNL1        0.0575
     44 H           8.0776   -5.9918   -3.0352 H       1  UNL1        0.0274
     45 H           7.4099   -4.3970   -3.4457 H       1  UNL1        0.0274
     46 H           8.6562   -4.5379   -2.2067 H       1  UNL1        0.0274
     47 H           5.4206   -6.9460   -1.7796 H       1  UNL1        0.0274
     48 H           4.5303   -5.4045   -1.7526 H       1  UNL1        0.0274
     49 H           5.3903   -5.9046   -3.2120 H       1  UNL1        0.0274
     50 H          10.2612   -5.1546    1.4348 H       1  UNL1        0.2922
     51 H           5.6059   -2.9120    5.0823 H       1  UNL1        0.0789
     52 H           7.2288   -1.5873    3.6573 H       1  UNL1        0.0385
     53 H           7.4126   -1.1158    5.3592 H       1  UNL1        0.0385
     54 H          11.3780   -3.5917    5.1223 H       1  UNL1        0.0627
     55 H          12.0631   -4.6150    7.2749 H       1  UNL1        0.0654
     56 H          11.4727   -4.6689    9.4843 H       1  UNL1        0.2921
     57 H           8.0555   -4.1341    8.7852 H       1  UNL1        0.0691
@<TRIPOS>BOND
     1     1    30    1
     2     1    31    1
     3     1    32    1
     4     2     1    1
     5     3     2    1
     6     3    33    1
     7     3    34    1
     8     3    35    1
     9     4     2    2
    10     4    36    1
    11     5     4    1
    12     5    37    1
    13     5    38    1
    14     6     5    1
    15     7     6   ar
    16     7    39    1
    17     8     7   ar
    18     9     8   ar
    19     9    40    1
    20    10     9   ar
    21    11    10    1
    22    11    41    1
    23    11    42    1
    24    12    11    1
    25    12    43    1
    26    13    12    2
    27    14    13    1
    28    14    44    1
    29    14    45    1
    30    14    46    1
    31    15    13    1
    32    15    47    1
    33    15    48    1
    34    15    49    1
    35    16    10   ar
    36    16     6   ar
    37    17    16    1
    38    17    50    1
    39    19    18    1
    40    19    52    1
    41    19    53    1
    42    20    19    1
    43    21    20    2
    44    22    20    1
    45    23    22   ar
    46    23    54    1
    47    24    23   ar
    48    24    55    1
    49    25    24   ar
    50    26    25    1
    51    26    56    1
    52    27    25   ar
    53    27    57    1
    54    28    27   ar
    55    28    22   ar
    56    29    28    1
    57    29    18    1
    58    18    51    1
    59    18     8    1
