@<TRIPOS>MOLECULE
>83.sdf
 40 42 0 0 0
SMALL
GASTEIGER

@<TRIPOS>ATOM
      1 O           1.7076    1.7069   -0.6103 O.2     1  UNL1       -0.2693
      2 C           2.6389    0.9598   -0.3211 C.2     1  UNL1        0.2549
      3 N           2.9657    0.6299    0.9907 N.am    1  UNL1       -0.2811
      4 C           2.3849    1.3226    2.0700 C.ar    1  UNL1        0.0340
      5 C           1.1923    0.8509    2.6170 C.ar    1  UNL1       -0.0405
      6 C           0.6433    1.4859    3.7296 C.ar    1  UNL1       -0.0597
      7 C           1.2701    2.6066    4.2802 C.ar    1  UNL1       -0.0570
      8 C           2.4631    3.1040    3.7288 C.ar    1  UNL1       -0.0287
      9 C           3.1170    4.3420    4.3092 C.3     1  UNL1        0.0344
     10 N           4.0489    3.9667    5.3615 N.pl3   1  UNL1       -0.3397
     11 C           4.7420    4.9348    6.0960 C.ar    1  UNL1        0.0274
     12 C           4.7264    6.3028    5.8118 C.ar    1  UNL1       -0.0408
     13 C           5.4866    7.2116    6.5671 C.ar    1  UNL1       -0.0600
     14 C           6.3054    6.7565    7.5950 C.ar    1  UNL1       -0.0616
     15 C           6.3723    5.3947    7.8647 C.ar    1  UNL1       -0.0600
     16 C           5.6007    4.4966    7.1170 C.ar    1  UNL1       -0.0408
     17 C           3.0331    2.4295    2.6350 C.ar    1  UNL1       -0.0358
     18 C           3.5000    0.3792   -1.3555 C.ar    1  UNL1        0.0763
     19 C           3.4637    0.6543   -2.7143 C.ar    1  UNL1       -0.0402
     20 C           4.3846   -0.1355   -3.4686 C.ar    1  UNL1       -0.0234
     21 C           5.0977   -0.9854   -2.6500 C.ar    1  UNL1        0.1641
     22 S           4.7037   -0.7970   -1.0077 S.2     1  UNL1       -0.0599
     23 N           6.0774   -1.9563   -3.0655 N.pl3   1  UNL1        0.0632
     24 O           6.2756   -2.0484   -4.2882 O.2     1  UNL1       -0.1256
     25 O           6.6427   -2.6273   -2.1981 O.2     1  UNL1       -0.1256
     26 H           3.9373    0.3566    1.1134 H       1  UNL1        0.1551
     27 H           0.7054   -0.0248    2.1998 H       1  UNL1        0.0636
     28 H          -0.2765    1.1067    4.1686 H       1  UNL1        0.0618
     29 H           0.8159    3.0989    5.1383 H       1  UNL1        0.0621
     30 H           3.6414    4.8760    3.5069 H       1  UNL1        0.0511
     31 H           2.3379    5.0122    4.6939 H       1  UNL1        0.0511
     32 H           3.6885    3.2327    5.9672 H       1  UNL1        0.1464
     33 H           4.1143    6.7065    5.0116 H       1  UNL1        0.0636
     34 H           5.4395    8.2746    6.3435 H       1  UNL1        0.0618
     35 H           6.8989    7.4587    8.1756 H       1  UNL1        0.0618
     36 H           7.0279    5.0252    8.6483 H       1  UNL1        0.0618
     37 H           5.6899    3.4341    7.3296 H       1  UNL1        0.0636
     38 H           3.9590    2.7991    2.1994 H       1  UNL1        0.0639
     39 H           2.7824    1.3790   -3.1513 H       1  UNL1        0.0631
     40 H           4.4979   -0.0922   -4.5470 H       1  UNL1        0.0646
@<TRIPOS>BOND
     1     2     1    2
     2     3     2   am
     3     3    26    1
     4     4     3    1
     5     5     4   ar
     6     5    27    1
     7     6     5   ar
     8     6    28    1
     9     7     6   ar
    10     7    29    1
    11     8     7   ar
    12     9     8    1
    13     9    30    1
    14     9    31    1
    15    10     9    1
    16    10    32    1
    17    11    10    1
    18    12    11   ar
    19    12    33    1
    20    13    12   ar
    21    13    34    1
    22    14    13   ar
    23    14    35    1
    24    15    14   ar
    25    15    36    1
    26    16    15   ar
    27    16    11   ar
    28    16    37    1
    29    17     8   ar
    30    17     4   ar
    31    17    38    1
    32    18     2    1
    33    19    18   ar
    34    19    39    1
    35    20    19   ar
    36    20    40    1
    37    21    20   ar
    38    22    21   ar
    39    22    18   ar
    40    23    21    1
    41    24    23    2
    42    25    23    2
