@<TRIPOS>MOLECULE
>116.sdf
 32 34 0 0 0
SMALL
GASTEIGER

@<TRIPOS>ATOM
      1 O           1.4537   -1.0624    0.0173 O.3     1  UNL1       -0.3809
      2 C           2.3207    0.0657   -0.0624 C.3     1  UNL1        0.1252
      3 C           2.8731    0.4754    1.2634 C.ar    1  UNL1        0.1160
      4 C           2.7502    1.6863    1.9094 C.ar    1  UNL1        0.0573
      5 N           3.3894    1.5220    3.1150 N.ar    1  UNL1       -0.2197
      6 N           3.8868    0.2633    3.1882 N.ar    1  UNL1       -0.0604
      7 N           3.5467   -0.3900    2.0855 N.ar    1  UNL1       -0.1312
      8 C           3.5295    2.4574    4.1726 C.ar    1  UNL1        0.0671
      9 C           2.9142    3.7181    4.0955 C.ar    1  UNL1       -0.0352
     10 C           3.0429    4.6260    5.1497 C.ar    1  UNL1       -0.0458
     11 C           3.7886    4.2843    6.2751 C.ar    1  UNL1        0.0180
     12 BR          3.9529    5.5192    7.6966 Br      1  UNL1       -0.0503
     13 C           4.4091    3.0396    6.3593 C.ar    1  UNL1       -0.0458
     14 C           4.2772    2.1222    5.3119 C.ar    1  UNL1       -0.0352
     15 C           3.4890   -0.2259   -0.9844 C.ar    1  UNL1       -0.0131
     16 C           3.7144    0.6008   -2.0993 C.ar    1  UNL1       -0.0547
     17 C           4.7547    0.3325   -2.9927 C.ar    1  UNL1       -0.0474
     18 C           5.5836   -0.7664   -2.7792 C.ar    1  UNL1        0.0179
     19 BR          6.9817   -1.1367   -3.9961 Br      1  UNL1       -0.0503
     20 C           5.3850   -1.5951   -1.6798 C.ar    1  UNL1       -0.0474
     21 C           4.3404   -1.3298   -0.7911 C.ar    1  UNL1       -0.0547
     22 H           1.8866   -1.6912    0.6169 H       1  UNL1        0.2108
     23 H           1.7237    0.8885   -0.4708 H       1  UNL1        0.0711
     24 H           2.2666    2.6033    1.6139 H       1  UNL1        0.0851
     25 H           2.3203    4.0221    3.2403 H       1  UNL1        0.0639
     26 H           2.5535    5.5951    5.0828 H       1  UNL1        0.0629
     27 H           4.9947    2.7719    7.2356 H       1  UNL1        0.0629
     28 H           4.7676    1.1534    5.4011 H       1  UNL1        0.0639
     29 H           3.0690    1.4560   -2.2911 H       1  UNL1        0.0622
     30 H           4.9028    0.9793   -3.8536 H       1  UNL1        0.0629
     31 H           6.0305   -2.4525   -1.5060 H       1  UNL1        0.0629
     32 H           4.2012   -1.9945    0.0597 H       1  UNL1        0.0622
@<TRIPOS>BOND
     1     1    22    1
     2     2     1    1
     3     2    23    1
     4     3     2    1
     5     4     3   ar
     6     4    24    1
     7     5     4   ar
     8     6     5   ar
     9     7     6   ar
    10     7     3   ar
    11     8     5    1
    12     9     8   ar
    13     9    25    1
    14    10     9   ar
    15    10    26    1
    16    11    10   ar
    17    12    11    1
    18    13    11   ar
    19    13    27    1
    20    14    13   ar
    21    14     8   ar
    22    14    28    1
    23    15     2    1
    24    16    15   ar
    25    16    29    1
    26    17    16   ar
    27    17    30    1
    28    18    17   ar
    29    19    18    1
    30    20    18   ar
    31    20    31    1
    32    21    20   ar
    33    21    15   ar
    34    21    32    1
