@<TRIPOS>MOLECULE
>71.sdf
 58 61 0 0 0
SMALL
GASTEIGER

@<TRIPOS>ATOM
      1 C          16.1231    3.1500   10.1610 C.3     1  UNL1        0.0820
      2 O          15.3011    2.4471    9.2313 O.3     1  UNL1       -0.4645
      3 C          15.8671    2.2414    8.0205 C.2     1  UNL1        0.3390
      4 O          16.9848    2.6054    7.6764 O.2     1  UNL1       -0.2450
      5 C          14.9369    1.4746    7.1465 C.ar    1  UNL1        0.0605
      6 C          13.6360    1.1457    7.5498 C.ar    1  UNL1       -0.0276
      7 C          12.8007    0.4080    6.7065 C.ar    1  UNL1        0.0629
      8 CL         11.2854   -0.1190    7.3475 Cl      1  UNL1       -0.0816
      9 C          13.2675   -0.0031    5.4519 C.ar    1  UNL1        0.0519
     10 N          12.5403   -0.8299    4.5842 N.am    1  UNL1       -0.2836
     11 C          11.3705   -0.4456    3.9538 C.2     1  UNL1        0.2275
     12 O          10.7020    0.5449    4.2419 O.2     1  UNL1       -0.2746
     13 C          10.9752   -1.3769    2.8102 C.3     1  UNL1        0.0779
     14 S          12.1126   -1.1929    1.3585 S.3     1  UNL1       -0.0768
     15 C          13.4736   -2.2225    1.8092 C.ar    1  UNL1        0.1908
     16 N          13.6425   -2.6159    3.0569 N.ar    1  UNL1       -0.2205
     17 C          13.3291   -3.9494    2.9745 C.ar    1  UNL1        0.0920
     18 C          13.2536   -4.3360    1.6276 C.ar    1  UNL1        0.0946
     19 C          12.5024   -5.4344    1.2106 C.ar    1  UNL1       -0.0159
     20 C          11.9057   -6.1779    2.2421 C.ar    1  UNL1        0.0431
     21 CL         10.7547   -7.3936    1.8329 Cl      1  UNL1       -0.0835
     22 C          12.1518   -5.9171    3.5969 C.ar    1  UNL1       -0.0413
     23 C          12.9056   -4.8062    3.9893 C.ar    1  UNL1       -0.0328
     24 N          13.8959   -3.2660    0.9912 N.ar    1  UNL1       -0.1858
     25 S          15.6680   -3.3387    0.8819 S.O2    1  UNL1        0.0864
     26 O          16.0951   -1.9449    0.8614 O.2     1  UNL1       -0.1476
     27 O          16.1231   -4.2510    1.9181 O.2     1  UNL1       -0.1476
     28 C          16.1000   -4.0472   -0.6822 C.ar    1  UNL1        0.1116
     29 C          16.3713   -3.1861   -1.7511 C.ar    1  UNL1       -0.0319
     30 C          16.8578   -3.6958   -2.9580 C.ar    1  UNL1       -0.0483
     31 C          17.1304   -2.7913   -4.1238 C.3     1  UNL1       -0.0396
     32 C          17.0916   -5.0719   -3.0746 C.ar    1  UNL1       -0.0558
     33 C          16.8659   -5.9384   -1.9961 C.ar    1  UNL1       -0.0483
     34 C          17.1763   -7.4026   -2.1341 C.3     1  UNL1       -0.0396
     35 C          16.3812   -5.4161   -0.7863 C.ar    1  UNL1       -0.0319
     36 C          14.5730    0.2999    5.0644 C.ar    1  UNL1       -0.0383
     37 C          15.4025    1.0612    5.8885 C.ar    1  UNL1       -0.0459
     38 H          17.1193    2.7014   10.2314 H       1  UNL1        0.0661
     39 H          16.1890    4.2051    9.8788 H       1  UNL1        0.0661
     40 H          15.6477    3.0814   11.1428 H       1  UNL1        0.0661
     41 H          13.2829    1.4233    8.5358 H       1  UNL1        0.0641
     42 H          13.1246   -1.4352    4.0077 H       1  UNL1        0.1549
     43 H          10.9177   -2.4104    3.1712 H       1  UNL1        0.0475
     44 H           9.9604   -1.1075    2.4936 H       1  UNL1        0.0475
     45 H          12.2901   -5.6295    0.1643 H       1  UNL1        0.0654
     46 H          11.6908   -6.5285    4.3695 H       1  UNL1        0.0633
     47 H          13.0128   -4.5293    5.0325 H       1  UNL1        0.0640
     48 H          16.2499   -2.1095   -1.6363 H       1  UNL1        0.0640
     49 H          18.1622   -2.9107   -4.4702 H       1  UNL1        0.0278
     50 H          16.4448   -3.0293   -4.9430 H       1  UNL1        0.0278
     51 H          16.9877   -1.7391   -3.8570 H       1  UNL1        0.0278
     52 H          17.4750   -5.4679   -4.0148 H       1  UNL1        0.0623
     53 H          18.0073   -7.6841   -1.4797 H       1  UNL1        0.0278
     54 H          16.2953   -8.0011   -1.8837 H       1  UNL1        0.0278
     55 H          17.4619   -7.6540   -3.1622 H       1  UNL1        0.0278
     56 H          16.2681   -6.0731    0.0750 H       1  UNL1        0.0640
     57 H          14.9567   -0.0131    4.0899 H       1  UNL1        0.0637
     58 H          16.4114    1.3118    5.5584 H       1  UNL1        0.0626
@<TRIPOS>BOND
     1     1    38    1
     2     1    39    1
     3     1    40    1
     4     2     1    1
     5     3     2    1
     6     4     3    2
     7     5     3    1
     8     6     5   ar
     9     6    41    1
    10     7     6   ar
    11     8     7    1
    12     9     7   ar
    13    10     9    1
    14    10    42    1
    15    11    10   am
    16    12    11    2
    17    13    11    1
    18    13    43    1
    19    13    44    1
    20    14    13    1
    21    15    14    1
    22    16    15   ar
    23    17    16   ar
    24    18    17   ar
    25    19    18   ar
    26    19    45    1
    27    20    19   ar
    28    21    20    1
    29    22    20   ar
    30    22    46    1
    31    23    22   ar
    32    23    17   ar
    33    23    47    1
    34    24    18   ar
    35    24    15   ar
    36    25    24    1
    37    26    25    2
    38    27    25    2
    39    28    25    1
    40    29    28   ar
    41    29    48    1
    42    30    29   ar
    43    31    30    1
    44    31    49    1
    45    31    50    1
    46    31    51    1
    47    32    30   ar
    48    32    52    1
    49    33    32   ar
    50    34    33    1
    51    34    53    1
    52    34    54    1
    53    34    55    1
    54    35    33   ar
    55    35    28   ar
    56    35    56    1
    57    36     9   ar
    58    36    57    1
    59    37    36   ar
    60    37     5   ar
    61    37    58    1
