@<TRIPOS>MOLECULE
>120.sdf
 58 60 0 0 0
SMALL
GASTEIGER

@<TRIPOS>ATOM
      1 C          -7.2117    7.2583   -3.7698 C.3     1  UNL1        0.0790
      2 O          -7.9799    8.0599   -2.8776 O.3     1  UNL1       -0.4914
      3 C          -7.3081    8.6088   -1.8178 C.ar    1  UNL1        0.1618
      4 C          -5.9454    8.4571   -1.5470 C.ar    1  UNL1       -0.0092
      5 C          -5.3668    9.0532   -0.4157 C.ar    1  UNL1       -0.0212
      6 C          -3.9338    8.9225   -0.1172 C.2     1  UNL1       -0.0508
      7 C          -3.1849    7.8469   -0.4185 C.2     1  UNL1       -0.0137
      8 C          -1.7340    7.8535   -0.0596 C.2     1  UNL1        0.1898
      9 O          -1.2017    8.9351    0.1767 O.2     1  UNL1       -0.2872
     10 C          -0.9669    6.5455   -0.0228 C.2     1  UNL1        0.0688
     11 C          -1.6790    5.4065    0.1515 C.2     1  UNL1       -0.0400
     12 C          -1.2447    4.0041    0.2587 C.ar    1  UNL1       -0.0214
     13 C          -1.1800    3.1808   -0.8722 C.ar    1  UNL1       -0.0164
     14 C          -0.9364    1.8142   -0.7174 C.ar    1  UNL1        0.1590
     15 F          -0.9197    1.0236   -1.8003 F       1  UNL1       -0.2025
     16 C          -0.7553    1.2661    0.5467 C.ar    1  UNL1        0.1584
     17 F          -0.5662   -0.0530    0.6927 F       1  UNL1       -0.2025
     18 C          -0.7988    2.0772    1.6743 C.ar    1  UNL1       -0.0230
     19 C          -1.0426    3.4466    1.5306 C.ar    1  UNL1       -0.0517
     20 C           0.5448    6.4979   -0.1525 C.2     1  UNL1        0.1898
     21 O           1.1409    5.4550   -0.4145 O.2     1  UNL1       -0.2872
     22 C           1.3131    7.7708   -0.0097 C.2     1  UNL1       -0.0137
     23 C           2.5160    7.9309   -0.5844 C.2     1  UNL1       -0.0508
     24 C           3.2030    9.2348   -0.6785 C.ar    1  UNL1       -0.0212
     25 C           2.4861   10.4236   -0.9321 C.ar    1  UNL1       -0.0092
     26 C           3.1563   11.6249   -1.1777 C.ar    1  UNL1        0.1618
     27 O           2.5786   12.8354   -1.4670 O.3     1  UNL1       -0.4914
     28 C           1.1566   12.8719   -1.5160 C.3     1  UNL1        0.0790
     29 C           4.5538   11.6302   -1.1624 C.ar    1  UNL1        0.1585
     30 O           5.2407   12.7827   -1.4336 O.3     1  UNL1       -0.5033
     31 C           5.2806   10.4768   -0.8988 C.ar    1  UNL1       -0.0160
     32 C           4.6040    9.2774   -0.6634 C.ar    1  UNL1       -0.0509
     33 C          -6.1688    9.8426    0.4255 C.ar    1  UNL1       -0.0509
     34 C          -7.5305   10.0046    0.1607 C.ar    1  UNL1       -0.0160
     35 C          -8.0826    9.3837   -0.9503 C.ar    1  UNL1        0.1585
     36 O          -9.4205    9.5519   -1.1881 O.3     1  UNL1       -0.5033
     37 H          -6.4377    7.8545   -4.2651 H       1  UNL1        0.0660
     38 H          -6.7756    6.3969   -3.2521 H       1  UNL1        0.0660
     39 H          -7.8840    6.8753   -4.5432 H       1  UNL1        0.0660
     40 H          -5.3135    7.8897   -2.2201 H       1  UNL1        0.0661
     41 H          -3.4879    9.7728    0.3997 H       1  UNL1        0.0625
     42 H          -3.5989    6.9828   -0.9187 H       1  UNL1        0.0656
     43 H          -2.7571    5.4455    0.2926 H       1  UNL1        0.0632
     44 H          -1.3372    3.5714   -1.8715 H       1  UNL1        0.0653
     45 H          -0.6647    1.6371    2.6579 H       1  UNL1        0.0647
     46 H          -1.1014    4.0684    2.4215 H       1  UNL1        0.0624
     47 H           0.8657    8.5928    0.5280 H       1  UNL1        0.0656
     48 H           3.0062    7.0980   -1.0848 H       1  UNL1        0.0625
     49 H           1.4020   10.3850   -0.9694 H       1  UNL1        0.0661
     50 H           0.7721   12.2223   -2.3092 H       1  UNL1        0.0660
     51 H           0.7213   12.6151   -0.5449 H       1  UNL1        0.0660
     52 H           0.8581   13.8978   -1.7539 H       1  UNL1        0.0660
     53 H           4.5505   13.4479   -1.6236 H       1  UNL1        0.2923
     54 H           6.3662   10.5088   -0.9002 H       1  UNL1        0.0655
     55 H           5.1836    8.3746   -0.4838 H       1  UNL1        0.0625
     56 H          -5.7442   10.3344    1.2979 H       1  UNL1        0.0625
     57 H          -8.1534   10.6111    0.8133 H       1  UNL1        0.0655
     58 H          -9.5983    9.0464   -2.0055 H       1  UNL1        0.2923
@<TRIPOS>BOND
     1     1    37    1
     2     1    38    1
     3     1    39    1
     4     2     1    1
     5     3     2    1
     6     4     3   ar
     7     4    40    1
     8     5     4   ar
     9     6     5    1
    10     6    41    1
    11     7     6    2
    12     7    42    1
    13     8     7    1
    14     9     8    2
    15    10     8    1
    16    11    10    2
    17    11    43    1
    18    12    11    1
    19    13    12   ar
    20    13    44    1
    21    14    13   ar
    22    15    14    1
    23    16    14   ar
    24    17    16    1
    25    18    16   ar
    26    18    45    1
    27    19    18   ar
    28    19    12   ar
    29    19    46    1
    30    20    10    1
    31    21    20    2
    32    22    20    1
    33    22    47    1
    34    23    22    2
    35    23    48    1
    36    24    23    1
    37    25    24   ar
    38    25    49    1
    39    26    25   ar
    40    27    26    1
    41    28    27    1
    42    28    50    1
    43    28    51    1
    44    28    52    1
    45    29    26   ar
    46    30    29    1
    47    30    53    1
    48    31    29   ar
    49    31    54    1
    50    32    31   ar
    51    32    24   ar
    52    32    55    1
    53    33     5   ar
    54    33    56    1
    55    34    33   ar
    56    34    57    1
    57    35    34   ar
    58    35     3   ar
    59    36    35    1
    60    36    58    1
