@<TRIPOS>MOLECULE
mol_101_akc_s11686_021_00457_6
>100.sdf
 47 48 0 0 0
SMALL
GASTEIGER

@<TRIPOS>ATOM
      1 C           5.2762   -1.5818    0.3418 C.3     1  UNL1       -0.0306
      2 C           4.1944   -1.3499   -0.7019 C.3     1  UNL1        0.0900
      3 O           4.5415   -0.3051   -1.6260 O.3     1  UNL1       -0.4616
      4 C           4.4808    0.9555   -1.1286 C.2     1  UNL1        0.3375
      5 O           4.1625    1.2506    0.0150 O.2     1  UNL1       -0.2452
      6 C           4.8556    1.9451   -2.1689 C.2     1  UNL1        0.0652
      7 C           4.2059    3.1306   -2.2563 C.2     1  UNL1        0.0157
      8 C           3.0375    3.5770   -1.4090 C.3     1  UNL1       -0.0260
      9 N           4.6064    4.0615   -3.2017 N.pl3   1  UNL1       -0.3207
     10 C           5.7649    3.9691   -3.9565 C.2     1  UNL1        0.0157
     11 C           6.0934    5.2032   -4.7605 C.3     1  UNL1       -0.0260
     12 C           6.4932    2.8273   -3.9316 C.2     1  UNL1        0.0652
     13 C           6.0240    1.6153   -3.1132 C.3     1  UNL1        0.0506
     14 C           7.1789    0.9213   -2.3853 C.ar    1  UNL1       -0.0337
     15 C           7.4944   -0.4136   -2.7010 C.ar    1  UNL1       -0.0393
     16 C           8.5347   -1.0660   -2.0458 C.ar    1  UNL1        0.0413
     17 CL          8.8902   -2.7041   -2.4341 Cl      1  UNL1       -0.0835
     18 C           9.2766   -0.4049   -1.0726 C.ar    1  UNL1       -0.0434
     19 C           8.9766    0.9190   -0.7529 C.ar    1  UNL1       -0.0601
     20 C           7.9317    1.5798   -1.4016 C.ar    1  UNL1       -0.0576
     21 C           7.8028    2.7716   -4.6191 C.2     1  UNL1        0.3375
     22 O           8.6021    3.6976   -4.6316 O.2     1  UNL1       -0.2452
     23 O           7.9984    1.5615   -5.2052 O.3     1  UNL1       -0.4616
     24 C           9.2924    1.4238   -5.8115 C.3     1  UNL1        0.0900
     25 C           9.5903   -0.0465   -6.0276 C.3     1  UNL1       -0.0306
     26 H           4.9927   -2.3977    1.0132 H       1  UNL1        0.0262
     27 H           6.2271   -1.8355   -0.1343 H       1  UNL1        0.0262
     28 H           5.4546   -0.6894    0.9491 H       1  UNL1        0.0262
     29 H           4.0680   -2.2634   -1.2928 H       1  UNL1        0.0695
     30 H           3.2271   -1.1327   -0.2346 H       1  UNL1        0.0695
     31 H           3.3299    4.4409   -0.8018 H       1  UNL1        0.0290
     32 H           2.2068    3.8832   -2.0552 H       1  UNL1        0.0290
     33 H           2.6389    2.8149   -0.7395 H       1  UNL1        0.0290
     34 H           4.1562    4.9732   -3.1658 H       1  UNL1        0.1516
     35 H           5.1877    5.5870   -5.2454 H       1  UNL1        0.0290
     36 H           6.4827    5.9867   -4.1026 H       1  UNL1        0.0290
     37 H           6.8123    5.0274   -5.5636 H       1  UNL1        0.0290
     38 H           5.6175    0.9054   -3.8504 H       1  UNL1        0.0451
     39 H           6.9213   -0.9454   -3.4571 H       1  UNL1        0.0635
     40 H          10.0872   -0.9147   -0.5584 H       1  UNL1        0.0632
     41 H           9.5552    1.4385    0.0076 H       1  UNL1        0.0618
     42 H           7.7120    2.6141   -1.1386 H       1  UNL1        0.0621
     43 H           9.2843    1.9482   -6.7727 H       1  UNL1        0.0695
     44 H          10.0733    1.8500   -5.1707 H       1  UNL1        0.0695
     45 H           9.6471   -0.5714   -5.0691 H       1  UNL1        0.0262
     46 H           8.7995   -0.5256   -6.6122 H       1  UNL1        0.0262
     47 H          10.5448   -0.1730   -6.5472 H       1  UNL1        0.0262
@<TRIPOS>BOND
     1     1    26    1
     2     1    27    1
     3     1    28    1
     4     2     1    1
     5     2    29    1
     6     2    30    1
     7     3     2    1
     8     4     3    1
     9     5     4    2
    10     6     4    1
    11     7     6    2
    12     8     7    1
    13     8    31    1
    14     8    32    1
    15     8    33    1
    16     9     7    1
    17     9    34    1
    18    10     9    1
    19    11    10    1
    20    11    35    1
    21    11    36    1
    22    11    37    1
    23    12    10    2
    24    13    12    1
    25    13     6    1
    26    15    14   ar
    27    15    39    1
    28    16    15   ar
    29    17    16    1
    30    18    16   ar
    31    18    40    1
    32    19    18   ar
    33    19    41    1
    34    20    19   ar
    35    20    14   ar
    36    20    42    1
    37    21    12    1
    38    22    21    2
    39    23    21    1
    40    24    23    1
    41    24    43    1
    42    24    44    1
    43    25    24    1
    44    25    45    1
    45    25    46    1
    46    25    47    1
    47    13    14    1
    48    13    38    1
