@<TRIPOS>MOLECULE
mol_102_akc_jejmech2021113915
>101.sdf
 39 42 0 0 0
SMALL
GASTEIGER

@<TRIPOS>ATOM
      1 C           0.9084    0.6199   -0.3575 C.3     1  UNL1       -0.0612
      2 C           2.3197    0.1146   -0.0874 C.3     1  UNL1       -0.0284
      3 C           2.8294   -0.7168   -1.2402 C.ar    1  UNL1       -0.0143
      4 C           2.7171   -2.0992   -1.3092 C.ar    1  UNL1        0.1114
      5 C           2.1394   -2.8939   -0.1543 C.3     1  UNL1       -0.0073
      6 C           2.1336   -4.4059   -0.3427 C.3     1  UNL1       -0.0596
      7 N           3.0953   -2.7870   -2.4063 N.ar    1  UNL1        0.0049
      8 N           3.5984   -2.1517   -3.4766 N.ar    1  UNL1       -0.0396
      9 C           3.7808   -0.8121   -3.4589 C.ar    1  UNL1        0.2647
     10 C           3.3905   -0.0771   -2.3387 C.ar    1  UNL1        0.0197
     11 C           4.3566   -0.1703   -4.6321 C.ar    1  UNL1        0.1224
     12 C           4.6924    1.1528   -4.8580 C.ar    1  UNL1       -0.0288
     13 C           5.1997    1.2448   -6.1643 C.ar    1  UNL1       -0.0286
     14 C           5.1716   -0.0183   -6.7129 C.ar    1  UNL1        0.0908
     15 BR          5.7837   -0.2695   -8.4664 Br      1  UNL1       -0.0302
     16 N           4.6635   -0.9030   -5.7754 N.ar    1  UNL1       -0.2924
     17 C           4.4329   -2.3052   -5.8132 C.ar    1  UNL1        0.1237
     18 C           3.9161   -2.9247   -4.6610 C.ar    1  UNL1        0.2644
     19 C           3.6633   -4.3060   -4.6326 C.ar    1  UNL1        0.0161
     20 C           3.9225   -5.0796   -5.7641 C.ar    1  UNL1       -0.0369
     21 C           4.4319   -4.4747   -6.9081 C.ar    1  UNL1        0.0434
     22 CL          4.7414   -5.4273   -8.3045 Cl      1  UNL1       -0.0835
     23 C           4.6902   -3.0993   -6.9375 C.ar    1  UNL1       -0.0129
     24 H           0.5367    1.1875    0.5011 H       1  UNL1        0.0233
     25 H           0.8846    1.2783   -1.2329 H       1  UNL1        0.0233
     26 H           0.2162   -0.2079   -0.5449 H       1  UNL1        0.0233
     27 H           2.9905    0.9681    0.0720 H       1  UNL1        0.0311
     28 H           2.3395   -0.4515    0.8490 H       1  UNL1        0.0311
     29 H           2.7217   -2.6737    0.7487 H       1  UNL1        0.0327
     30 H           1.1087   -2.5624    0.0174 H       1  UNL1        0.0327
     31 H           1.5556   -4.6958   -1.2258 H       1  UNL1        0.0233
     32 H           3.1515   -4.7943   -0.4545 H       1  UNL1        0.0233
     33 H           1.6826   -4.8903    0.5296 H       1  UNL1        0.0233
     34 H           3.4999    1.0058   -2.3239 H       1  UNL1        0.0688
     35 H           4.5876    1.9815   -4.1672 H       1  UNL1        0.0641
     36 H           5.5513    2.1449   -6.6572 H       1  UNL1        0.0644
     37 H           3.2593   -4.8014   -3.7533 H       1  UNL1        0.0685
     38 H           3.7215   -6.1500   -5.7519 H       1  UNL1        0.0634
     39 H           5.0808   -2.7059   -7.8657 H       1  UNL1        0.0655
@<TRIPOS>UNITY_ATOM_ATTR
8 1
charge 1
@<TRIPOS>BOND
     1     1    24    1
     2     1    25    1
     3     1    26    1
     4     2     1    1
     5     2    27    1
     6     2    28    1
     7     3     2    1
     8     4     3   ar
     9     5     4    1
    10     5    29    1
    11     5    30    1
    12     6     5    1
    13     6    31    1
    14     6    32    1
    15     6    33    1
    16     7     4   ar
    17     8     7   ar
    18     9     8   ar
    19    10     9   ar
    20    10     3   ar
    21    10    34    1
    22    11     9   ar
    23    12    11   ar
    24    12    35    1
    25    13    12   ar
    26    13    36    1
    27    14    13   ar
    28    15    14    1
    29    16    14   ar
    30    16    11   ar
    31    17    16   ar
    32    18    17   ar
    33    18     8   ar
    34    19    18   ar
    35    19    37    1
    36    20    19   ar
    37    20    38    1
    38    21    20   ar
    39    22    21    1
    40    23    21   ar
    41    23    17   ar
    42    23    39    1
