@<TRIPOS>MOLECULE
mol_103_akc_jcbi2021109690
>102.sdf
 26 26 0 0 0
SMALL
GASTEIGER

@<TRIPOS>ATOM
      1 C           1.7019   -0.4581    1.2371 C.3     1  UNL1        0.0128
      2 C           2.5125   -0.0900    0.0152 C.2     1  UNL1        0.2186
      3 O           2.6233   -0.9417   -0.8663 O.2     1  UNL1       -0.2755
      4 N           3.0587    1.1879   -0.0650 N.am    1  UNL1       -0.2414
      5 C           2.7129    2.3204    0.8090 C.3     1  UNL1        0.1094
      6 C           1.4129    3.0569    0.4399 C.3     1  UNL1       -0.0171
      7 C           0.1359    2.2345    0.5792 C.3     1  UNL1        0.0259
      8 C          -1.1143    3.0200    0.2559 C.2     1  UNL1        0.2106
      9 N          -2.2612    2.2831    0.3473 N.am    1  UNL1       -0.3293
     10 O          -1.1342    4.2024   -0.0474 O.2     1  UNL1       -0.2760
     11 C           3.8709    3.2699    0.5253 C.2     1  UNL1        0.2394
     12 O           4.0958    4.3227    1.1066 O.2     1  UNL1       -0.2734
     13 N           4.5958    2.7817   -0.5056 N.am    1  UNL1       -0.2658
     14 C           4.1746    1.5383   -0.8666 C.2     1  UNL1        0.1462
     15 S           4.9986    0.6888   -2.0297 S.2     1  UNL1       -0.0179
     16 H           0.7180   -0.8081    0.9070 H       1  UNL1        0.0323
     17 H           2.2101   -1.2680    1.7663 H       1  UNL1        0.0323
     18 H           1.5538    0.3503    1.9467 H       1  UNL1        0.0323
     19 H           2.7576    2.0227    1.8597 H       1  UNL1        0.0601
     20 H           1.3273    3.9441    1.0836 H       1  UNL1        0.0293
     21 H           1.4796    3.4454   -0.5854 H       1  UNL1        0.0293
     22 H           0.1619    1.3811   -0.1047 H       1  UNL1        0.0359
     23 H           0.0317    1.8772    1.6088 H       1  UNL1        0.0359
     24 H          -3.1329    2.7439    0.1111 H       1  UNL1        0.1449
     25 H          -2.2722    1.2868    0.5070 H       1  UNL1        0.1449
     26 H           5.4186    3.2315   -0.8786 H       1  UNL1        0.1566
@<TRIPOS>BOND
     1     1    16    1
     2     1    17    1
     3     1    18    1
     4     2     1    1
     5     3     2    2
     6     4     2   am
     7     5     4    1
     8     5    19    1
     9     6     5    1
    10     6    20    1
    11     6    21    1
    12     7     6    1
    13     7    22    1
    14     7    23    1
    15     8     7    1
    16     9     8   am
    17     9    24    1
    18     9    25    1
    19    10     8    2
    20    11     5    1
    21    12    11    2
    22    13    11   am
    23    13    26    1
    24    14    13    1
    25    14     4    1
    26    15    14    2
