@<TRIPOS>MOLECULE
mol_104_akc_jcbi2021109690
>103.sdf
 33 35 0 0 0
SMALL
GASTEIGER

@<TRIPOS>ATOM
      1 C           5.4486   -3.8391    1.4071 C.3     1  UNL1        0.0128
      2 C           4.4904   -3.6887    2.5641 C.2     1  UNL1        0.2186
      3 O           4.7261   -4.3276    3.5900 O.2     1  UNL1       -0.2755
      4 N           3.3670   -2.8847    2.3836 N.am    1  UNL1       -0.2411
      5 C           3.0122   -2.2073    1.1291 C.3     1  UNL1        0.1129
      6 C           2.6613   -3.0920   -0.0732 C.3     1  UNL1        0.0020
      7 C           1.5776   -4.0950    0.1712 C.ar    1  UNL1       -0.0201
      8 C           1.7238   -5.3467    0.7363 C.ar    1  UNL1        0.0060
      9 N           0.4925   -5.9454    0.7803 N.ar    1  UNL1       -0.3604
     10 C          -0.4608   -5.1121    0.2448 C.ar    1  UNL1        0.0467
     11 C          -1.8390   -5.3006    0.0878 C.ar    1  UNL1       -0.0378
     12 C          -2.5729   -4.2702   -0.5066 C.ar    1  UNL1       -0.0598
     13 C          -1.9483   -3.0985   -0.9298 C.ar    1  UNL1       -0.0611
     14 C          -0.5700   -2.9276   -0.7661 C.ar    1  UNL1       -0.0523
     15 C           0.1920   -3.9484   -0.1607 C.ar    1  UNL1        0.0029
     16 C           1.8198   -1.3644    1.5481 C.2     1  UNL1        0.2398
     17 O           1.2093   -0.5777    0.8407 O.2     1  UNL1       -0.2734
     18 N           1.5708   -1.5946    2.8597 N.am    1  UNL1       -0.2658
     19 C           2.4766   -2.4575    3.4021 C.2     1  UNL1        0.1462
     20 S           2.4258   -2.8011    5.0253 S.2     1  UNL1       -0.0179
     21 H           6.4693   -3.8718    1.8013 H       1  UNL1        0.0323
     22 H           5.2352   -4.7799    0.8944 H       1  UNL1        0.0323
     23 H           5.4127   -3.0123    0.6989 H       1  UNL1        0.0323
     24 H           3.8236   -1.5153    0.8731 H       1  UNL1        0.0604
     25 H           2.3675   -2.4483   -0.9130 H       1  UNL1        0.0337
     26 H           3.5463   -3.6317   -0.4247 H       1  UNL1        0.0337
     27 H           2.5937   -5.8676    1.1157 H       1  UNL1        0.0810
     28 H           0.3050   -6.8676    1.1496 H       1  UNL1        0.1653
     29 H          -2.3288   -6.2123    0.4143 H       1  UNL1        0.0638
     30 H          -3.6458   -4.3802   -0.6354 H       1  UNL1        0.0618
     31 H          -2.5343   -2.3068   -1.3900 H       1  UNL1        0.0618
     32 H          -0.1002   -2.0059   -1.0993 H       1  UNL1        0.0624
     33 H           0.8348   -1.1425    3.3791 H       1  UNL1        0.1566
@<TRIPOS>BOND
     1     1    21    1
     2     1    22    1
     3     1    23    1
     4     2     1    1
     5     3     2    2
     6     4     2   am
     7     5     4    1
     8     6    25    1
     9     6    26    1
    10     7     6    1
    11     8     7   ar
    12     8    27    1
    13     9     8   ar
    14     9    28    1
    15    10     9   ar
    16    11    10   ar
    17    11    29    1
    18    12    11   ar
    19    12    30    1
    20    13    12   ar
    21    13    31    1
    22    14    13   ar
    23    14    32    1
    24    15    14   ar
    25    15     7   ar
    26    15    10   ar
    27    16     5    1
    28    17    16    2
    29    18    16   am
    30    18    33    1
    31    19    18    1
    32    19     4    1
    33    20    19    2
    34     5     6    1
    35     5    24    1
