@<TRIPOS>MOLECULE
mol_105_akc_1475636620222117316
>104.sdf
 56 60 0 0 0
SMALL
GASTEIGER

@<TRIPOS>ATOM
      1 C           3.6910   -1.7596   -0.6244 C.3     1  UNL1        0.0140
      2 C           2.8688   -0.5036   -0.7895 C.2     1  UNL1        0.2322
      3 O           1.8785   -0.3109   -0.0818 O.2     1  UNL1       -0.2741
      4 N           3.3131    0.4104   -1.7272 N.am    1  UNL1       -0.1852
      5 N           4.4090    0.1782   -2.5182 N.2     1  UNL1       -0.1809
      6 C           4.7408    1.3130   -3.0474 C.2     1  UNL1        0.0688
      7 C           3.9153    2.4905   -2.6114 C.3     1  UNL1        0.0165
      8 C           2.8639    1.7998   -1.7519 C.3     1  UNL1        0.0828
      9 C           1.4877    1.9734   -2.3147 C.ar    1  UNL1        0.0210
     10 C           0.8538    1.1850   -3.2568 C.ar    1  UNL1        0.0369
     11 N          -0.4203    1.6698   -3.4124 N.ar    1  UNL1       -0.2390
     12 N          -0.5911    2.8227   -2.7252 N.ar    1  UNL1       -0.1660
     13 C           0.5329    2.9958   -2.0101 C.ar    1  UNL1        0.0981
     14 C           0.6358    4.1189   -1.0617 C.ar    1  UNL1        0.0024
     15 C          -0.5090    4.5700   -0.3876 C.ar    1  UNL1       -0.0525
     16 C          -0.4297    5.6019    0.5534 C.ar    1  UNL1       -0.0611
     17 C           0.7966    6.1963    0.8377 C.ar    1  UNL1       -0.0617
     18 C           1.9385    5.7779    0.1627 C.ar    1  UNL1       -0.0611
     19 C           1.8522    4.7608   -0.7928 C.ar    1  UNL1       -0.0525
     20 C          -1.4857    1.0951   -4.1631 C.ar    1  UNL1        0.0654
     21 C          -1.3352   -0.1482   -4.7905 C.ar    1  UNL1       -0.0360
     22 C          -2.4059   -0.7206   -5.4835 C.ar    1  UNL1       -0.0568
     23 C          -3.6374   -0.0627   -5.5616 C.ar    1  UNL1       -0.0503
     24 C          -4.7924   -0.6803   -6.2927 C.3     1  UNL1       -0.0397
     25 C          -3.7812    1.1844   -4.9462 C.ar    1  UNL1       -0.0568
     26 C          -2.7162    1.7616   -4.2481 C.ar    1  UNL1       -0.0360
     27 C           5.8805    1.4778   -3.9785 C.ar    1  UNL1       -0.0022
     28 C           6.6228    0.3527   -4.3494 C.ar    1  UNL1       -0.0528
     29 C           7.7015    0.4858   -5.2280 C.ar    1  UNL1       -0.0611
     30 C           8.0345    1.7378   -5.7400 C.ar    1  UNL1       -0.0617
     31 C           7.2979    2.8625   -5.3689 C.ar    1  UNL1       -0.0611
     32 C           6.2231    2.7366   -4.4883 C.ar    1  UNL1       -0.0528
     33 H           3.8198   -1.9405    0.4481 H       1  UNL1        0.0323
     34 H           3.1739   -2.6058   -1.0799 H       1  UNL1        0.0323
     35 H           4.6934   -1.6744   -1.0496 H       1  UNL1        0.0323
     36 H           3.5050    3.0294   -3.4705 H       1  UNL1        0.0351
     37 H           4.5404    3.1603   -2.0111 H       1  UNL1        0.0351
     38 H           2.8928    2.1631   -0.7182 H       1  UNL1        0.0576
     39 H           1.2043    0.3039   -3.7740 H       1  UNL1        0.0834
     40 H          -1.4753    4.1100   -0.5876 H       1  UNL1        0.0624
     41 H          -1.3279    5.9345    1.0673 H       1  UNL1        0.0618
     42 H           0.8616    6.9891    1.5781 H       1  UNL1        0.0618
     43 H           2.8975    6.2437    0.3747 H       1  UNL1        0.0618
     44 H           2.7571    4.4983   -1.3228 H       1  UNL1        0.0624
     45 H          -0.4089   -0.7122   -4.7430 H       1  UNL1        0.0639
     46 H          -2.2715   -1.6939   -5.9518 H       1  UNL1        0.0621
     47 H          -5.6534   -0.7798   -5.6238 H       1  UNL1        0.0278
     48 H          -5.0701   -0.0609   -7.1509 H       1  UNL1        0.0278
     49 H          -4.5432   -1.6801   -6.6640 H       1  UNL1        0.0278
     50 H          -4.7317    1.7149   -4.9964 H       1  UNL1        0.0621
     51 H          -2.8630    2.7288   -3.7705 H       1  UNL1        0.0639
     52 H           6.3753   -0.6302   -3.9587 H       1  UNL1        0.0624
     53 H           8.2768   -0.3906   -5.5157 H       1  UNL1        0.0618
     54 H           8.8684    1.8389   -6.4291 H       1  UNL1        0.0618
     55 H           7.5618    3.8390   -5.7688 H       1  UNL1        0.0618
     56 H           5.6734    3.6323   -4.2172 H       1  UNL1        0.0624
@<TRIPOS>BOND
     1     1    33    1
     2     1    34    1
     3     1    35    1
     4     2     1    1
     5     3     2    2
     6     4     2   am
     7     5     4    1
     8     6     5    2
     9     7     6    1
    10     7    36    1
    11     7    37    1
    12     8     7    1
    13     8     4    1
    14    10     9   ar
    15    10    39    1
    16    11    10   ar
    17    12    11   ar
    18    13    12   ar
    19    13     9   ar
    20    14    13    1
    21    15    14   ar
    22    15    40    1
    23    16    15   ar
    24    16    41    1
    25    17    16   ar
    26    17    42    1
    27    18    17   ar
    28    18    43    1
    29    19    18   ar
    30    19    14   ar
    31    19    44    1
    32    20    11    1
    33    21    20   ar
    34    21    45    1
    35    22    21   ar
    36    22    46    1
    37    23    22   ar
    38    24    23    1
    39    24    47    1
    40    24    48    1
    41    24    49    1
    42    25    23   ar
    43    25    50    1
    44    26    25   ar
    45    26    20   ar
    46    26    51    1
    47    27     6    1
    48    28    27   ar
    49    28    52    1
    50    29    28   ar
    51    29    53    1
    52    30    29   ar
    53    30    54    1
    54    31    30   ar
    55    31    55    1
    56    32    31   ar
    57    32    27   ar
    58    32    56    1
    59     8     9    1
    60     8    38    1
