@<TRIPOS>MOLECULE
mol_107_akc_1475636620222117316
>105.sdf
 59 63 0 0 0
SMALL
GASTEIGER

@<TRIPOS>ATOM
      1 C           5.5904   -2.7505   -0.8768 C.3     1  UNL1       -0.0648
      2 C           4.7118   -1.5141   -0.7463 C.3     1  UNL1       -0.0476
      3 C           5.5082   -0.2598   -1.0838 C.3     1  UNL1        0.0256
      4 C           4.7399    1.0363   -0.8537 C.2     1  UNL1        0.2353
      5 O           3.8345    1.1249   -0.0291 O.2     1  UNL1       -0.2738
      6 N           5.2265    2.1258   -1.5653 N.am    1  UNL1       -0.1850
      7 N           6.2620    2.0018   -2.4577 N.2     1  UNL1       -0.1809
      8 C           6.6569    3.2009   -2.7540 C.2     1  UNL1        0.0688
      9 C           5.9590    4.3034   -2.0102 C.3     1  UNL1        0.0165
     10 C           4.8906    3.5141   -1.2564 C.3     1  UNL1        0.0828
     11 C           3.5095    3.9030   -1.6919 C.ar    1  UNL1        0.0210
     12 C           2.7695    3.3852   -2.7389 C.ar    1  UNL1        0.0369
     13 N           1.5576    4.0302   -2.7534 N.ar    1  UNL1       -0.2390
     14 N           1.5070    4.9944   -1.8057 N.ar    1  UNL1       -0.1660
     15 C           2.6641    4.9161   -1.1301 C.ar    1  UNL1        0.0981
     16 C           2.9008    5.8010    0.0239 C.ar    1  UNL1        0.0024
     17 C           1.8273    6.1789    0.8451 C.ar    1  UNL1       -0.0525
     18 C           2.0313    6.9784    1.9751 C.ar    1  UNL1       -0.0611
     19 C           3.3136    7.4098    2.3036 C.ar    1  UNL1       -0.0617
     20 C           4.3861    7.0680    1.4868 C.ar    1  UNL1       -0.0611
     21 C           4.1759    6.2854    0.3469 C.ar    1  UNL1       -0.0525
     22 C           0.4497    3.7969   -3.6188 C.ar    1  UNL1        0.0655
     23 C           0.4749    2.7676   -4.5718 C.ar    1  UNL1       -0.0349
     24 C          -0.6324    2.5499   -5.4005 C.ar    1  UNL1       -0.0414
     25 C          -1.7626    3.3559   -5.2816 C.ar    1  UNL1        0.0411
     26 CL         -3.1217    3.0763   -6.2990 Cl      1  UNL1       -0.0835
     27 C          -1.7988    4.3834   -4.3424 C.ar    1  UNL1       -0.0414
     28 C          -0.6967    4.6044   -3.5106 C.ar    1  UNL1       -0.0349
     29 C           7.7478    3.4776   -3.7161 C.ar    1  UNL1       -0.0022
     30 C           8.3812    2.4016   -4.3508 C.ar    1  UNL1       -0.0528
     31 C           9.4128    2.6327   -5.2626 C.ar    1  UNL1       -0.0611
     32 C           9.8139    3.9360   -5.5433 C.ar    1  UNL1       -0.0617
     33 C           9.1874    5.0119   -4.9136 C.ar    1  UNL1       -0.0611
     34 C           8.1563    4.7857   -4.0001 C.ar    1  UNL1       -0.0528
     35 H           5.0069   -3.6580   -0.6976 H       1  UNL1        0.0230
     36 H           6.0278   -2.8186   -1.8787 H       1  UNL1        0.0230
     37 H           6.4098   -2.7228   -0.1507 H       1  UNL1        0.0230
     38 H           3.8574   -1.5984   -1.4281 H       1  UNL1        0.0267
     39 H           4.3070   -1.4600    0.2702 H       1  UNL1        0.0267
     40 H           6.4006   -0.2069   -0.4468 H       1  UNL1        0.0359
     41 H           5.8411   -0.3335   -2.1242 H       1  UNL1        0.0359
     42 H           5.5553    5.0537   -2.6966 H       1  UNL1        0.0351
     43 H           6.6700    4.7687   -1.3204 H       1  UNL1        0.0351
     44 H           4.9909    3.6376   -0.1723 H       1  UNL1        0.0576
     45 H           3.0155    2.6023   -3.4400 H       1  UNL1        0.0834
     46 H           0.8184    5.8435    0.6114 H       1  UNL1        0.0624
     47 H           1.1869    7.2564    2.6003 H       1  UNL1        0.0618
     48 H           3.4753    8.0180    3.1897 H       1  UNL1        0.0618
     49 H           5.3876    7.4119    1.7330 H       1  UNL1        0.0618
     50 H           5.0320    6.0813   -0.2813 H       1  UNL1        0.0624
     51 H           1.3307    2.1107   -4.6906 H       1  UNL1        0.0639
     52 H          -0.6073    1.7454   -6.1313 H       1  UNL1        0.0633
     53 H          -2.6790    5.0134   -4.2475 H       1  UNL1        0.0633
     54 H          -0.7449    5.4115   -2.7809 H       1  UNL1        0.0639
     55 H           8.0785    1.3779   -4.1405 H       1  UNL1        0.0624
     56 H           9.9018    1.7948   -5.7531 H       1  UNL1        0.0618
     57 H          10.6170    4.1150   -6.2550 H       1  UNL1        0.0618
     58 H           9.5036    6.0280   -5.1363 H       1  UNL1        0.0618
     59 H           7.6905    5.6445   -3.5264 H       1  UNL1        0.0624
@<TRIPOS>BOND
     1     1    35    1
     2     1    36    1
     3     1    37    1
     4     2     1    1
     5     2    38    1
     6     2    39    1
     7     3     2    1
     8     3    40    1
     9     3    41    1
    10     4     3    1
    11     5     4    2
    12     6     4   am
    13     7     6    1
    14     8     7    2
    15     9     8    1
    16     9    42    1
    17     9    43    1
    18    10     9    1
    19    10     6    1
    20    12    11   ar
    21    12    45    1
    22    13    12   ar
    23    14    13   ar
    24    15    14   ar
    25    15    11   ar
    26    16    15    1
    27    17    16   ar
    28    17    46    1
    29    18    17   ar
    30    18    47    1
    31    19    18   ar
    32    19    48    1
    33    20    19   ar
    34    20    49    1
    35    21    20   ar
    36    21    16   ar
    37    21    50    1
    38    22    13    1
    39    23    22   ar
    40    23    51    1
    41    24    23   ar
    42    24    52    1
    43    25    24   ar
    44    26    25    1
    45    27    25   ar
    46    27    53    1
    47    28    27   ar
    48    28    22   ar
    49    28    54    1
    50    29     8    1
    51    30    29   ar
    52    30    55    1
    53    31    30   ar
    54    31    56    1
    55    32    31   ar
    56    32    57    1
    57    33    32   ar
    58    33    58    1
    59    34    33   ar
    60    34    29   ar
    61    34    59    1
    62    10    11    1
    63    10    44    1
