@<TRIPOS>MOLECULE
mol_108_akc_acsmedchemlett2c00170
>106.sdf
 43 46 0 0 0
SMALL
GASTEIGER

@<TRIPOS>ATOM
      1 N           6.9615   -2.8730    7.8249 N.3     1  UNL1       -0.2553
      2 N           7.3475   -3.6992    6.7432 N.pl3   1  UNL1       -0.2657
      3 C           6.8971   -3.3358    5.4325 C.ar    1  UNL1        0.1617
      4 N           5.9264   -2.3939    5.3269 N.ar    1  UNL1       -0.2175
      5 C           5.4663   -2.1582    4.0989 C.ar    1  UNL1        0.1190
      6 N           5.8749   -2.7717    2.9853 N.ar    1  UNL1       -0.2303
      7 C           6.8332   -3.7239    3.1307 C.ar    1  UNL1        0.1342
      8 C           7.3008   -4.4928    2.0619 C.ar    1  UNL1        0.1525
      9 N           6.6835   -4.3215    0.7985 N.pl3   1  UNL1       -0.2975
     10 C           6.4567   -5.2733   -0.2061 C.ar    1  UNL1        0.0359
     11 C           6.3725   -4.8794   -1.5454 C.ar    1  UNL1       -0.0403
     12 C           6.1763   -5.8263   -2.5546 C.ar    1  UNL1       -0.0566
     13 C           6.0733   -7.1801   -2.2334 C.ar    1  UNL1       -0.0198
     14 C           6.1828   -7.5964   -0.9085 C.ar    1  UNL1        0.1227
     15 O           6.0913   -8.9472   -0.7017 O.3     1  UNL1       -0.4873
     16 C           6.5493   -9.4132    0.5716 C.3     1  UNL1        0.1147
     17 C           6.7197  -10.9128    0.5775 C.ar    1  UNL1       -0.0075
     18 C           6.8939  -11.6469   -0.5990 C.ar    1  UNL1       -0.0372
     19 C           7.1047  -13.0139   -0.5107 C.ar    1  UNL1        0.0279
     20 N           7.1614  -13.6902    0.6547 N.ar    1  UNL1       -0.2632
     21 C           7.0030  -12.9672    1.7822 C.ar    1  UNL1        0.0279
     22 C           6.7865  -11.5984    1.7953 C.ar    1  UNL1       -0.0372
     23 C           6.3640   -6.6408    0.0925 C.ar    1  UNL1        0.0013
     24 N           8.2558   -5.4457    2.1864 N.ar    1  UNL1       -0.2184
     25 C           8.7748   -5.6270    3.3979 C.ar    1  UNL1        0.1190
     26 N           8.3992   -4.9769    4.4982 N.ar    1  UNL1       -0.2302
     27 C           7.4170   -4.0514    4.3497 C.ar    1  UNL1        0.1350
     28 H           7.2690   -1.9110    7.6493 H       1  UNL1        0.1404
     29 H           5.9378   -2.8024    7.8193 H       1  UNL1        0.1404
     30 H           8.3346   -3.9741    6.7023 H       1  UNL1        0.1675
     31 H           4.6870   -1.4104    3.9966 H       1  UNL1        0.1048
     32 H           6.4261   -3.3626    0.6002 H       1  UNL1        0.1536
     33 H           6.4714   -3.8322   -1.8180 H       1  UNL1        0.0636
     34 H           6.1136   -5.5106   -3.5926 H       1  UNL1        0.0619
     35 H           5.9222   -7.9143   -3.0203 H       1  UNL1        0.0654
     36 H           7.5266   -8.9756    0.8136 H       1  UNL1        0.0748
     37 H           5.8092   -9.1410    1.3343 H       1  UNL1        0.0748
     38 H           6.8701  -11.1660   -1.5739 H       1  UNL1        0.0636
     39 H           7.2380  -13.6153   -1.4054 H       1  UNL1        0.0829
     40 H           7.0624  -13.5330    2.7069 H       1  UNL1        0.0829
     41 H           6.6777  -11.0785    2.7431 H       1  UNL1        0.0636
     42 H           6.4090   -6.9385    1.1338 H       1  UNL1        0.0673
     43 H           9.5599   -6.3680    3.4965 H       1  UNL1        0.1048
@<TRIPOS>BOND
     1     1    28    1
     2     1    29    1
     3     2     1    1
     4     2    30    1
     5     3     2    1
     6     4     3   ar
     7     5     4   ar
     8     5    31    1
     9     6     5   ar
    10     7     6   ar
    11     8     7   ar
    12     9     8    1
    13     9    32    1
    14    10     9    1
    15    11    10   ar
    16    11    33    1
    17    12    11   ar
    18    12    34    1
    19    13    12   ar
    20    13    35    1
    21    14    13   ar
    22    15    14    1
    23    16    15    1
    24    16    36    1
    25    16    37    1
    26    17    16    1
    27    18    17   ar
    28    18    38    1
    29    19    18   ar
    30    19    39    1
    31    20    19   ar
    32    21    20   ar
    33    21    40    1
    34    22    21   ar
    35    22    17   ar
    36    22    41    1
    37    23    14   ar
    38    23    10   ar
    39    23    42    1
    40    24     8   ar
    41    25    24   ar
    42    25    43    1
    43    26    25   ar
    44    27    26   ar
    45    27     3   ar
    46    27     7   ar
