@<TRIPOS>MOLECULE
mol_110_akc_ijms222413613
>108.sdf
 26 27 0 0 0
SMALL
GASTEIGER

@<TRIPOS>ATOM
      1 C           4.4731   -2.0771    0.9185 C.3     1  UNL1        0.0833
      2 O           4.1896   -0.7438    0.4868 O.3     1  UNL1       -0.4534
      3 C           5.0526   -0.2848   -0.4658 C.2     1  UNL1        0.4065
      4 O           5.9380   -0.9700   -0.9510 O.2     1  UNL1       -0.2260
      5 N           4.7297    1.0176   -0.7245 N.am    1  UNL1       -0.2210
      6 C           5.4940    1.8181   -1.5342 C.ar    1  UNL1        0.2053
      7 N           6.5889    1.4753   -2.1710 N.ar    1  UNL1       -0.2140
      8 C           7.0408    2.5984   -2.8045 C.ar    1  UNL1        0.0923
      9 C           6.1904    3.6750   -2.5720 C.ar    1  UNL1        0.0699
     10 C           6.4268    4.9471   -3.1082 C.ar    1  UNL1       -0.0346
     11 C           7.5780    5.1018   -3.8910 C.ar    1  UNL1       -0.0413
     12 C           8.4399    4.0288   -4.1266 C.ar    1  UNL1        0.0431
     13 CL          9.8482    4.2712   -5.0893 Cl      1  UNL1       -0.0835
     14 C           8.1855    2.7645   -3.5946 C.ar    1  UNL1       -0.0158
     15 N           5.2046    3.1497   -1.7643 N.ar    1  UNL1       -0.3146
     16 C           4.0700    3.8743   -1.2455 C.3     1  UNL1        0.0150
     17 H           4.2651   -2.7879    0.1137 H       1  UNL1        0.0661
     18 H           5.5116   -2.1657    1.2571 H       1  UNL1        0.0661
     19 H           3.8197   -2.3058    1.7645 H       1  UNL1        0.0661
     20 H           3.9352    1.3774   -0.2258 H       1  UNL1        0.1610
     21 H           5.7627    5.7855   -2.9290 H       1  UNL1        0.0639
     22 H           7.8011    6.0771   -4.3184 H       1  UNL1        0.0633
     23 H           8.8468    1.9238   -3.7698 H       1  UNL1        0.0654
     24 H           3.1837    3.5683   -1.8069 H       1  UNL1        0.0457
     25 H           3.9524    3.6431   -0.1839 H       1  UNL1        0.0457
     26 H           4.2271    4.9494   -1.3543 H       1  UNL1        0.0457
@<TRIPOS>BOND
     1     1    17    1
     2     1    18    1
     3     1    19    1
     4     2     1    1
     5     3     2    1
     6     4     3    2
     7     5     3   am
     8     5    20    1
     9     6     5    1
    10     7     6   ar
    11     8     7   ar
    12     9     8   ar
    13    10     9   ar
    14    10    21    1
    15    11    10   ar
    16    11    22    1
    17    12    11   ar
    18    13    12    1
    19    14    12   ar
    20    14     8   ar
    21    14    23    1
    22    15     9   ar
    23    15     6   ar
    24    16    15    1
    25    16    24    1
    26    16    25    1
    27    16    26    1
