@<TRIPOS>MOLECULE
mol_111_akc_molecules26247473
>109.sdf
 22 24 0 0 0
SMALL
GASTEIGER

@<TRIPOS>ATOM
      1 O           2.4914   -1.1261   -7.1198 O.2     1  UNL1       -0.2456
      2 C           3.4167   -0.5313   -6.6040 C.2     1  UNL1        0.3327
      3 O           4.7379   -0.6723   -6.9108 O.3     1  UNL1       -0.4464
      4 C           5.5070    0.0325   -5.9071 C.3     1  UNL1        0.1755
      5 C           6.7543    0.7959   -6.3995 C.3     1  UNL1       -0.0008
      6 C           7.6599   -0.2877   -5.7930 C.3     1  UNL1       -0.0008
      7 C           6.4530   -0.8703   -5.0281 C.3     1  UNL1        0.1755
      8 O           6.4309   -0.6285   -3.6011 O.3     1  UNL1       -0.4464
      9 C           6.1159   -1.7973   -2.9751 C.2     1  UNL1        0.3327
     10 O           5.9380   -1.9462   -1.7798 O.2     1  UNL1       -0.2456
     11 C           6.0310   -2.8622   -3.9856 C.2     1  UNL1        0.0225
     12 C           6.2549   -2.3247   -5.1851 C.2     1  UNL1       -0.0300
     13 C           4.5245    0.8373   -5.1570 C.2     1  UNL1       -0.0300
     14 C           3.2979    0.4793   -5.5400 C.2     1  UNL1        0.0225
     15 H           6.8418    0.8948   -7.4865 H       1  UNL1        0.0310
     16 H           6.9023    1.7866   -5.9539 H       1  UNL1        0.0310
     17 H           8.4640    0.1023   -5.1597 H       1  UNL1        0.0310
     18 H           8.1063   -0.9553   -6.5389 H       1  UNL1        0.0310
     19 H           5.8204   -3.8883   -3.7407 H       1  UNL1        0.0687
     20 H           6.2535   -2.8568   -6.1259 H       1  UNL1        0.0615
     21 H           4.7618    1.5730   -4.4012 H       1  UNL1        0.0615
     22 H           2.3501    0.8385   -5.1794 H       1  UNL1        0.0687
@<TRIPOS>BOND
     1     3     2    1
     2     4     3    1
     3     5     4    1
     4     6     5    1
     5     7     6    1
     6     7     4    1
     7     8     7    1
     8     9     8    1
     9    11     9    1
    10    12    11    2
    11    12     7    1
    12    13     4    1
    13    14    13    2
    14    14     2    1
    15     2     1    2
    16     5    15    1
    17     5    16    1
    18     6    17    1
    19     6    18    1
    20    10     9    2
    21    11    19    1
    22    12    20    1
    23    13    21    1
    24    14    22    1
