@<TRIPOS>MOLECULE
mol_112_akc_jbioorg2021105414
>110.sdf
 50 54 0 0 0
SMALL
GASTEIGER

@<TRIPOS>ATOM
      1 O           1.1322    0.0056    0.2105 O.2     1  UNL1       -0.2754
      2 C           2.3452   -0.0484   -0.0097 C.2     1  UNL1        0.2183
      3 C           2.9621    0.5837   -1.2424 C.3     1  UNL1        0.0247
      4 C           2.0655    1.5826   -1.9667 C.3     1  UNL1       -0.0394
      5 C           2.8086    2.1026   -3.2006 C.3     1  UNL1       -0.0120
      6 C           2.0484    3.1335   -3.9570 C.ar    1  UNL1        0.0170
      7 C           2.3720    4.4401   -4.2604 C.ar    1  UNL1       -0.0334
      8 C           1.3425    4.9675   -5.0880 C.ar    1  UNL1       -0.0001
      9 C           1.1360    6.2048   -5.7229 C.ar    1  UNL1       -0.0526
     10 C          -0.0115    6.3900   -6.5009 C.ar    1  UNL1       -0.0611
     11 C          -0.9477    5.3663   -6.6440 C.ar    1  UNL1       -0.0598
     12 C          -0.7640    4.1292   -6.0182 C.ar    1  UNL1       -0.0378
     13 C           0.3927    3.9595   -5.2513 C.ar    1  UNL1        0.0467
     14 N           0.8379    2.8634   -4.5474 N.ar    1  UNL1       -0.3579
     15 N           3.1385   -0.7066    0.8940 N.am    1  UNL1       -0.2699
     16 C           4.5262   -0.9434    0.8514 C.ar    1  UNL1        0.1333
     17 N           5.1595   -0.6311   -0.2918 N.ar    1  UNL1       -0.2312
     18 C           6.4789   -0.7464   -0.3875 C.ar    1  UNL1        0.0737
     19 C           7.2842   -1.1893    0.6736 C.ar    1  UNL1        0.0082
     20 C           8.6807   -1.2793    0.4325 C.ar    1  UNL1       -0.0520
     21 C           9.2407   -0.9395   -0.8005 C.ar    1  UNL1       -0.0611
     22 C           8.4213   -0.4888   -1.8233 C.ar    1  UNL1       -0.0597
     23 C           7.0517   -0.3972   -1.6038 C.ar    1  UNL1       -0.0357
     24 C           6.6229   -1.5210    1.9045 C.ar    1  UNL1       -0.0054
     25 C           7.3294   -1.9224    3.0680 C.ar    1  UNL1       -0.0533
     26 C           6.6811   -2.2837    4.2487 C.ar    1  UNL1       -0.0611
     27 C           5.2992   -2.2840    4.2983 C.ar    1  UNL1       -0.0611
     28 C           4.5714   -1.8716    3.1824 C.ar    1  UNL1       -0.0507
     29 C           5.2072   -1.4523    1.9816 C.ar    1  UNL1        0.0228
     30 H           3.8571    1.1386   -0.9465 H       1  UNL1        0.0358
     31 H           3.2309   -0.2267   -1.9309 H       1  UNL1        0.0358
     32 H           1.1167    1.1134   -2.2507 H       1  UNL1        0.0273
     33 H           1.8196    2.4128   -1.2933 H       1  UNL1        0.0273
     34 H           3.7732    2.5281   -2.8933 H       1  UNL1        0.0328
     35 H           3.0390    1.2678   -3.8742 H       1  UNL1        0.0328
     36 H           3.2700    4.9568   -3.9478 H       1  UNL1        0.0641
     37 H           1.8624    7.0054   -5.6167 H       1  UNL1        0.0624
     38 H          -0.1730    7.3423   -6.9999 H       1  UNL1        0.0618
     39 H          -1.8325    5.5301   -7.2530 H       1  UNL1        0.0618
     40 H          -1.4923    3.3330   -6.1331 H       1  UNL1        0.0638
     41 H           0.3483    1.9817   -4.4959 H       1  UNL1        0.1656
     42 H           2.6209   -1.0032    1.7056 H       1  UNL1        0.1562
     43 H           9.3583   -1.6353    1.2034 H       1  UNL1        0.0624
     44 H          10.3119   -1.0298   -0.9588 H       1  UNL1        0.0618
     45 H           8.8395   -0.2151   -2.7861 H       1  UNL1        0.0618
     46 H           6.4057   -0.0429   -2.4045 H       1  UNL1        0.0639
     47 H           8.4165   -1.9442    3.0811 H       1  UNL1        0.0624
     48 H           7.2612   -2.5709    5.1220 H       1  UNL1        0.0618
     49 H           4.7845   -2.5940    5.2044 H       1  UNL1        0.0618
     50 H           3.4891   -1.8936    3.2712 H       1  UNL1        0.0625
@<TRIPOS>BOND
     1     2     1    2
     2     3     2    1
     3     3    30    1
     4     3    31    1
     5     4     3    1
     6     4    32    1
     7     4    33    1
     8     5     4    1
     9     5    34    1
    10     5    35    1
    11     6     5    1
    12     7     6   ar
    13     7    36    1
    14     8     7   ar
    15     9     8   ar
    16     9    37    1
    17    10     9   ar
    18    10    38    1
    19    11    10   ar
    20    11    39    1
    21    12    11   ar
    22    12    40    1
    23    13    12   ar
    24    13     8   ar
    25    14    13   ar
    26    14     6   ar
    27    14    41    1
    28    15     2   am
    29    15    42    1
    30    16    15    1
    31    17    16   ar
    32    18    17   ar
    33    19    18   ar
    34    20    19   ar
    35    20    43    1
    36    21    20   ar
    37    21    44    1
    38    22    21   ar
    39    22    45    1
    40    23    22   ar
    41    23    18   ar
    42    23    46    1
    43    24    19   ar
    44    25    24   ar
    45    25    47    1
    46    26    25   ar
    47    26    48    1
    48    27    26   ar
    49    27    49    1
    50    28    27   ar
    51    28    50    1
    52    29    28   ar
    53    29    16   ar
    54    29    24   ar
