@<TRIPOS>MOLECULE
mol_113_akc_journalpone0258996
>111.sdf
 44 47 0 0 0
SMALL
GASTEIGER

@<TRIPOS>ATOM
      1 C           4.9775   -2.0728    3.5436 C.3     1  UNL1       -0.0364
      2 C           5.3555   -0.8946    2.6700 C.3     1  UNL1        0.0829
      3 C           5.1585    0.4344    3.3504 C.3     1  UNL1        0.0773
      4 O           4.9326    1.3571    2.2873 O.3     1  UNL1       -0.3407
      5 C           4.5426    0.5767    1.1271 C.3     1  UNL1        0.2185
      6 C           3.1217    1.0148    0.7221 C.3     1  UNL1        0.1018
      7 N           3.0499    2.3808    0.2599 N.ar    1  UNL1       -0.2465
      8 C           3.0881    3.5123    1.0102 C.ar    1  UNL1        0.1145
      9 N           2.9380    4.5616    0.2317 N.ar    1  UNL1       -0.2228
     10 C           2.7968    4.0042   -1.0063 C.ar    1  UNL1        0.1379
     11 N           2.8520    2.6701   -1.0408 N.ar    1  UNL1       -0.1582
     12 O           4.4876   -0.8046    1.5416 O.3     1  UNL1       -0.3379
     13 C           5.5811    0.7508    0.0142 C.ar    1  UNL1        0.0315
     14 C           6.5951    1.7255    0.1585 C.ar    1  UNL1       -0.0486
     15 C           7.5079    1.9919   -0.8633 C.ar    1  UNL1       -0.0188
     16 C           7.4257    1.2982   -2.0622 C.ar    1  UNL1        0.1298
     17 O           8.3292    1.6503   -3.0382 O.3     1  UNL1       -0.4560
     18 C           7.9145    1.6609   -4.3518 C.ar    1  UNL1        0.1285
     19 C           6.6359    2.0531   -4.7663 C.ar    1  UNL1       -0.0180
     20 C           6.2921    1.9880   -6.1177 C.ar    1  UNL1       -0.0399
     21 C           7.2387    1.5762   -7.0543 C.ar    1  UNL1        0.0412
     22 CL          6.8070    1.4729   -8.7163 Cl      1  UNL1       -0.0835
     23 C           8.5330    1.2476   -6.6539 C.ar    1  UNL1       -0.0399
     24 C           8.8719    1.2953   -5.3000 C.ar    1  UNL1       -0.0180
     25 C           6.4906    0.2720   -2.2031 C.ar    1  UNL1       -0.0006
     26 C           5.5645    0.0118   -1.1839 C.ar    1  UNL1        0.0527
     27 CL          4.4210   -1.2459   -1.5008 Cl      1  UNL1       -0.0830
     28 H           5.0152   -3.0050    2.9711 H       1  UNL1        0.0255
     29 H           5.6490   -2.1564    4.4033 H       1  UNL1        0.0255
     30 H           3.9502   -1.9746    3.9125 H       1  UNL1        0.0255
     31 H           6.3819   -1.0059    2.3009 H       1  UNL1        0.0617
     32 H           4.2732    0.4510    3.9941 H       1  UNL1        0.0587
     33 H           6.0277    0.7435    3.9376 H       1  UNL1        0.0587
     34 H           2.6878    0.3726   -0.0509 H       1  UNL1        0.0567
     35 H           2.4482    0.9416    1.5853 H       1  UNL1        0.0567
     36 H           3.2259    3.5217    2.0829 H       1  UNL1        0.1044
     37 H           2.6457    4.5883   -1.9056 H       1  UNL1        0.1065
     38 H           6.6742    2.3171    1.0695 H       1  UNL1        0.0624
     39 H           8.2644    2.7607   -0.7273 H       1  UNL1        0.0654
     40 H           5.8940    2.3939   -4.0478 H       1  UNL1        0.0655
     41 H           5.2852    2.2529   -6.4295 H       1  UNL1        0.0633
     42 H           9.2777    0.9478   -7.3859 H       1  UNL1        0.0633
     43 H           9.8788    1.0353   -4.9834 H       1  UNL1        0.0655
     44 H           6.4599   -0.3143   -3.1183 H       1  UNL1        0.0669
@<TRIPOS>BOND
     1     1    28    1
     2     1    29    1
     3     1    30    1
     4     2     1    1
     5     2    31    1
     6     3     2    1
     7     3    32    1
     8     3    33    1
     9     4     3    1
    10     5     4    1
    11     5     6    1
    12     6    34    1
    13     6    35    1
    14     7     6    1
    15     8     7   ar
    16     8    36    1
    17     9     8   ar
    18    10     9   ar
    19    10    37    1
    20    11    10   ar
    21    11     7   ar
    22    12     5    1
    23    12     2    1
    24    13     5    1
    25    14    13   ar
    26    14    38    1
    27    15    14   ar
    28    15    39    1
    29    16    15   ar
    30    17    16    1
    31    18    17    1
    32    19    18   ar
    33    19    40    1
    34    20    19   ar
    35    20    41    1
    36    21    20   ar
    37    22    21    1
    38    23    21   ar
    39    23    42    1
    40    24    23   ar
    41    24    18   ar
    42    24    43    1
    43    25    16   ar
    44    25    44    1
    45    26    25   ar
    46    26    13   ar
    47    27    26    1
