@<TRIPOS>MOLECULE
mol_114_akc_journalpone0259008
>112.sdf
 39 41 0 0 0
SMALL
GASTEIGER

@<TRIPOS>ATOM
      1 N           3.0902   -1.9008    0.8418 N.am    1  UNL1       -0.3120
      2 C           2.4007   -1.3241   -0.1788 C.2     1  UNL1        0.3165
      3 O           1.1860   -1.1915   -0.1583 O.2     1  UNL1       -0.2513
      4 N           3.1895   -0.9124   -1.2249 N.am    1  UNL1       -0.1910
      5 N           4.5446   -1.0490   -1.1797 N.2     1  UNL1       -0.1865
      6 C           5.1954   -0.6530   -2.2255 C.2     1  UNL1        0.0528
      7 C           6.6685   -0.7765   -2.2573 C.ar    1  UNL1       -0.0052
      8 C           7.3357   -1.3318   -1.1606 C.ar    1  UNL1       -0.0496
      9 C           8.7251   -1.4449   -1.1647 C.ar    1  UNL1       -0.0187
     10 C           9.4536   -1.0316   -2.2815 C.ar    1  UNL1        0.1307
     11 O          10.8282   -1.0780   -2.3525 O.3     1  UNL1       -0.4309
     12 C          11.5644   -2.0212   -1.7256 C.ar    1  UNL1        0.3465
     13 N          11.0768   -3.2600   -1.5071 N.ar    1  UNL1        0.0405
     14 O          12.0834   -3.9933   -0.8557 O.2     1  UNL1       -0.0573
     15 N          13.1450   -3.1835   -0.7428 N.ar    1  UNL1        0.2421
     16 O          14.2983   -3.5775   -0.0805 O.3     1  UNL1       -0.2395
     17 C          12.9160   -1.9382   -1.2907 C.ar    1  UNL1        0.3868
     18 C          13.8752   -0.8448   -1.3502 C.ar    1  UNL1        0.0617
     19 C          15.2507   -1.0981   -1.4766 C.ar    1  UNL1       -0.0478
     20 C          16.1692   -0.0467   -1.5317 C.ar    1  UNL1       -0.0610
     21 C          15.7255    1.2704   -1.4810 C.ar    1  UNL1       -0.0617
     22 C          14.3642    1.5393   -1.3728 C.ar    1  UNL1       -0.0610
     23 C          13.4425    0.4899   -1.3045 C.ar    1  UNL1       -0.0478
     24 C           8.7875   -0.4608   -3.3724 C.ar    1  UNL1       -0.0187
     25 C           7.3919   -0.3356   -3.3656 C.ar    1  UNL1       -0.0496
     26 H           2.5984   -2.0702    1.7046 H       1  UNL1        0.1465
     27 H           4.0804   -1.6989    0.8474 H       1  UNL1        0.1465
     28 H           2.7207   -0.4885   -2.0168 H       1  UNL1        0.1788
     29 H           4.6953   -0.2216   -3.1096 H       1  UNL1        0.0851
     30 H           6.7762   -1.6763   -0.2925 H       1  UNL1        0.0625
     31 H           9.2023   -1.8557   -0.2811 H       1  UNL1        0.0654
     32 H          14.0787   -4.4907    0.1789 H       1  UNL1        0.3885
     33 H          15.6504   -2.1057   -1.5565 H       1  UNL1        0.0626
     34 H          17.2342   -0.2530   -1.6248 H       1  UNL1        0.0618
     35 H          16.4415    2.0890   -1.5335 H       1  UNL1        0.0618
     36 H          14.0214    2.5726   -1.3430 H       1  UNL1        0.0618
     37 H          12.3898    0.7532   -1.2133 H       1  UNL1        0.0626
     38 H           9.3499   -0.1092   -4.2347 H       1  UNL1        0.0654
     39 H           6.8884    0.1067   -4.2223 H       1  UNL1        0.0625
@<TRIPOS>UNITY_ATOM_ATTR
15 1
charge 1
@<TRIPOS>BOND
     1     1    26    1
     2     1    27    1
     3     2     1   am
     4     3     2    2
     5     4     2   am
     6     4    28    1
     7     5     4    1
     8     6     5    2
     9     6    29    1
    10     7     6    1
    11     8     7   ar
    12     8    30    1
    13     9     8   ar
    14     9    31    1
    15    10     9   ar
    16    11    10    1
    17    12    11    1
    18    13    12   ar
    19    14    13   ar
    20    15    14   ar
    21    16    15    1
    22    16    32    1
    23    17    15   ar
    24    17    12   ar
    25    18    17    1
    26    19    18   ar
    27    19    33    1
    28    20    19   ar
    29    20    34    1
    30    21    20   ar
    31    21    35    1
    32    22    21   ar
    33    22    36    1
    34    23    22   ar
    35    23    18   ar
    36    23    37    1
    37    24    10   ar
    38    24    38    1
    39    25    24   ar
    40    25     7   ar
    41    25    39    1
