@<TRIPOS>MOLECULE
mol_115_akc_jintimp2021108130
>113.sdf
 36 37 0 0 0
SMALL
GASTEIGER

@<TRIPOS>ATOM
      1 C           2.9908    2.1171    3.1274 C.3     1  UNL1       -0.0437
      2 C           2.6503    1.1682    2.0063 C.2     1  UNL1       -0.0755
      3 C           1.7267    0.2128    2.2258 C.2     1  UNL1       -0.0994
      4 C           3.3787    1.2518    0.6476 C.3     1  UNL1       -0.0071
      5 C           4.9110    0.9903    0.8062 C.3     1  UNL1       -0.0169
      6 C           5.6559    2.2501    1.0814 C.ar    1  UNL1       -0.0030
      7 C           5.1069    3.4924    0.8583 C.ar    1  UNL1        0.1091
      8 C           3.7487    3.8230    0.3641 C.3     1  UNL1        0.0151
      9 C           3.0853    2.5394   -0.2478 C.3     1  UNL1       -0.0007
     10 C           1.5681    2.7910   -0.3759 C.3     1  UNL1       -0.0552
     11 C           3.6453    2.3476   -1.6736 C.2     1  UNL1       -0.0842
     12 C           3.3426    1.3547   -2.5253 C.2     1  UNL1       -0.1021
     13 O           5.9597    4.4781    1.2179 O.2     1  UNL1       -0.4672
     14 C           7.0806    3.8547    1.6752 C.ar    1  UNL1        0.0952
     15 C           6.9524    2.4787    1.6118 C.ar    1  UNL1       -0.0093
     16 C           7.9439    1.4586    2.0246 C.3     1  UNL1       -0.0365
     17 H           2.4837    3.0754    2.9905 H       1  UNL1        0.0274
     18 H           2.6772    1.7188    4.0993 H       1  UNL1        0.0274
     19 H           4.0648    2.2882    3.2148 H       1  UNL1        0.0274
     20 H           1.4510   -0.5071    1.4654 H       1  UNL1        0.0534
     21 H           1.2149    0.1283    3.1823 H       1  UNL1        0.0534
     22 H           3.0094    0.3870    0.0750 H       1  UNL1        0.0357
     23 H           5.0964    0.2541    1.5976 H       1  UNL1        0.0320
     24 H           5.3027    0.5564   -0.1229 H       1  UNL1        0.0320
     25 H           3.7998    4.6331   -0.3739 H       1  UNL1        0.0352
     26 H           3.1521    4.2068    1.1979 H       1  UNL1        0.0352
     27 H           1.3642    3.6429   -1.0363 H       1  UNL1        0.0238
     28 H           1.0486    1.9193   -0.7905 H       1  UNL1        0.0238
     29 H           1.1096    3.0168    0.5921 H       1  UNL1        0.0238
     30 H           4.3666    3.0887   -2.0210 H       1  UNL1        0.0572
     31 H           2.6370    0.5697   -2.2731 H       1  UNL1        0.0532
     32 H           3.8043    1.3126   -3.5072 H       1  UNL1        0.0532
     33 H           7.8675    4.5145    2.0136 H       1  UNL1        0.1032
     34 H           7.5063    0.7748    2.7592 H       1  UNL1        0.0279
     35 H           8.2682    0.8720    1.1594 H       1  UNL1        0.0279
     36 H           8.8278    1.9197    2.4759 H       1  UNL1        0.0279
@<TRIPOS>BOND
     1     1    17    1
     2     1    18    1
     3     1    19    1
     4     2     1    1
     5     3     2    2
     6     3    20    1
     7     3    21    1
     8     5     4    1
     9     5    23    1
    10     5    24    1
    11     6     5    1
    12     7     6   ar
    13     8     7    1
    14     8    25    1
    15     8    26    1
    16     9     8    1
    17     9     4    1
    18    10    27    1
    19    10    28    1
    20    10    29    1
    21    11    30    1
    22    12    11    2
    23    12    31    1
    24    12    32    1
    25    13     7   ar
    26    14    13   ar
    27    14    33    1
    28    15    14   ar
    29    15     6   ar
    30    16    15    1
    31    16    34    1
    32    16    35    1
    33    16    36    1
    34     4    22    1
    35     4     2    1
    36     9    11    1
    37     9    10    1
