@<TRIPOS>MOLECULE
mol_117_akc_jbiochi202106015
>115.sdf
 36 36 0 0 0
SMALL
GASTEIGER

@<TRIPOS>ATOM
      1 C           2.4239    1.3656   -0.7747 C.3     1  UNL1       -0.0626
      2 C           3.1301    1.7139    0.5354 C.3     1  UNL1       -0.0436
      3 C           2.1516    2.4376    1.4667 C.3     1  UNL1       -0.0626
      4 C           3.7331    0.4512    1.1821 C.3     1  UNL1       -0.0162
      5 C           4.5272    0.7802    2.4414 C.3     1  UNL1        0.0930
      6 O           5.0358   -0.3974    3.0782 O.3     1  UNL1       -0.4616
      7 C           6.3832   -0.5376    3.0202 C.2     1  UNL1        0.3319
      8 O           7.1262   -0.1208    2.1493 O.2     1  UNL1       -0.2456
      9 C           6.8062   -1.0853    4.3263 C.2     1  UNL1        0.0231
     10 C           8.0884   -0.9830    4.7073 C.2     1  UNL1       -0.0477
     11 C           8.5363   -1.2599    6.0782 C.ar    1  UNL1       -0.0211
     12 C           9.7729   -1.8886    6.2923 C.ar    1  UNL1       -0.0509
     13 C          10.2560   -2.0965    7.5905 C.ar    1  UNL1       -0.0160
     14 C           9.5031   -1.6597    8.6731 C.ar    1  UNL1        0.1582
     15 O           9.9252   -1.8201    9.9633 O.3     1  UNL1       -0.5033
     16 C           8.2844   -1.0213    8.4674 C.ar    1  UNL1        0.1588
     17 O           7.5580   -0.5738    9.5340 O.3     1  UNL1       -0.5033
     18 C           7.7978   -0.8143    7.1845 C.ar    1  UNL1       -0.0094
     19 H           2.0316    2.2694   -1.2533 H       1  UNL1        0.0232
     20 H           3.1162    0.8917   -1.4780 H       1  UNL1        0.0232
     21 H           1.5851    0.6823   -0.6056 H       1  UNL1        0.0232
     22 H           3.9476    2.4079    0.2992 H       1  UNL1        0.0297
     23 H           1.3586    1.7637    1.8082 H       1  UNL1        0.0232
     24 H           2.6598    2.8408    2.3473 H       1  UNL1        0.0232
     25 H           1.6816    3.2857    0.9576 H       1  UNL1        0.0232
     26 H           2.9444   -0.2733    1.4213 H       1  UNL1        0.0300
     27 H           4.3937   -0.0549    0.4667 H       1  UNL1        0.0300
     28 H           5.3220    1.5030    2.2234 H       1  UNL1        0.0697
     29 H           3.8760    1.2420    3.1881 H       1  UNL1        0.0697
     30 H           6.0240   -1.4351    4.9896 H       1  UNL1        0.0689
     31 H           8.8464   -0.6151    4.0185 H       1  UNL1        0.0626
     32 H          10.3708   -2.2204    5.4459 H       1  UNL1        0.0625
     33 H          11.2143   -2.5866    7.7282 H       1  UNL1        0.0655
     34 H          10.7866   -2.2716    9.9465 H       1  UNL1        0.2923
     35 H           8.0956   -0.8141   10.3143 H       1  UNL1        0.2923
     36 H           6.8590   -0.2819    7.0617 H       1  UNL1        0.0661
@<TRIPOS>BOND
     1     1    19    1
     2     1    20    1
     3     1    21    1
     4     2     1    1
     5     2    22    1
     6     3     2    1
     7     3    23    1
     8     3    24    1
     9     3    25    1
    10     4     2    1
    11     4    26    1
    12     4    27    1
    13     5     4    1
    14     5    28    1
    15     5    29    1
    16     6     5    1
    17     7     6    1
    18     8     7    2
    19     9     7    1
    20     9    30    1
    21    10     9    2
    22    10    31    1
    23    11    10    1
    24    12    11   ar
    25    12    32    1
    26    13    12   ar
    27    13    33    1
    28    14    13   ar
    29    15    14    1
    30    15    34    1
    31    16    14   ar
    32    17    16    1
    33    17    35    1
    34    18    16   ar
    35    18    11   ar
    36    18    36    1
