@<TRIPOS>MOLECULE
mol_118_akc_acsjmedchem1c00725
>116.sdf
 32 34 0 0 0
SMALL
GASTEIGER

@<TRIPOS>ATOM
      1 O           2.5121    1.2401   -0.6201 O.3     1  UNL1       -0.3809
      2 C           2.3122   -0.0198    0.0245 C.3     1  UNL1        0.1252
      3 C           2.8333   -0.0196    1.4222 C.ar    1  UNL1        0.1160
      4 C           2.9999    1.0328    2.2994 C.ar    1  UNL1        0.0573
      5 N           3.5508    0.4758    3.4278 N.ar    1  UNL1       -0.2197
      6 N           3.7370   -0.8503    3.2280 N.ar    1  UNL1       -0.0604
      7 N           3.3000   -1.1616    2.0157 N.ar    1  UNL1       -0.1312
      8 C           3.8881    1.1132    4.6498 C.ar    1  UNL1        0.0671
      9 C           3.6156    2.4741    4.8529 C.ar    1  UNL1       -0.0352
     10 C           3.9344    3.0803    6.0723 C.ar    1  UNL1       -0.0458
     11 C           4.5304    2.3306    7.0860 C.ar    1  UNL1        0.0180
     12 BR          4.9496    3.1532    8.7345 Br      1  UNL1       -0.0503
     13 C           4.8126    0.9809    6.8914 C.ar    1  UNL1       -0.0458
     14 C           4.4907    0.3690    5.6777 C.ar    1  UNL1       -0.0352
     15 C           0.8339   -0.3716    0.1057 C.ar    1  UNL1       -0.0131
     16 C           0.3747   -1.5502   -0.5099 C.ar    1  UNL1       -0.0547
     17 C          -0.9817   -1.8925   -0.4893 C.ar    1  UNL1       -0.0474
     18 C          -1.8956   -1.0579    0.1469 C.ar    1  UNL1        0.0179
     19 BR         -3.7302   -1.5124    0.1661 Br      1  UNL1       -0.0503
     20 C          -1.4668    0.1126    0.7665 C.ar    1  UNL1       -0.0474
     21 C          -0.1110    0.4542    0.7453 C.ar    1  UNL1       -0.0547
     22 H           1.7229    1.7803   -0.4641 H       1  UNL1        0.2108
     23 H           2.8582   -0.7667   -0.5627 H       1  UNL1        0.0711
     24 H           2.7887    2.0838    2.1948 H       1  UNL1        0.0851
     25 H           3.1492    3.0918    4.0926 H       1  UNL1        0.0639
     26 H           3.7131    4.1334    6.2229 H       1  UNL1        0.0629
     27 H           5.2799    0.3930    7.6783 H       1  UNL1        0.0629
     28 H           4.7200   -0.6864    5.5470 H       1  UNL1        0.0639
     29 H           1.0728   -2.2158   -1.0146 H       1  UNL1        0.0622
     30 H          -1.3105   -2.8087   -0.9727 H       1  UNL1        0.0629
     31 H          -2.1777    0.7643    1.2680 H       1  UNL1        0.0629
     32 H           0.1965    1.3720    1.2413 H       1  UNL1        0.0622
@<TRIPOS>BOND
     1     1    22    1
     2     2     1    1
     3     2    23    1
     4     3     2    1
     5     4     3   ar
     6     4    24    1
     7     5     4   ar
     8     6     5   ar
     9     7     6   ar
    10     7     3   ar
    11     8     5    1
    12     9     8   ar
    13     9    25    1
    14    10     9   ar
    15    10    26    1
    16    11    10   ar
    17    12    11    1
    18    13    11   ar
    19    13    27    1
    20    14    13   ar
    21    14     8   ar
    22    14    28    1
    23    15     2    1
    24    16    15   ar
    25    16    29    1
    26    17    16   ar
    27    17    30    1
    28    18    17   ar
    29    19    18    1
    30    20    18   ar
    31    20    31    1
    32    21    20   ar
    33    21    15   ar
    34    21    32    1
