@<TRIPOS>MOLECULE
mol_119_akc_acsmedchemlett1c00193
>117.sdf
 18 18 0 0 0
SMALL
GASTEIGER

@<TRIPOS>ATOM
      1 C           1.0060    0.5243   -0.1563 C.3     1  UNL1        0.1458
      2 N           2.4503    0.4231   -0.4157 N.3     1  UNL1       -0.2097
      3 O           2.8082   -0.2066   -1.4669 O.co2   1  UNL1       -0.6249
      4 C           3.3400    0.9489    0.3993 C.2     1  UNL1        0.2196
      5 C           4.7685    0.9387    0.2837 C.ar    1  UNL1        0.1944
      6 C           5.6353    0.4523   -0.6786 C.ar    1  UNL1       -0.0081
      7 C           6.9515    0.7347   -0.2355 C.ar    1  UNL1        0.0088
      8 C           6.7970    1.3753    0.9691 C.ar    1  UNL1        0.2804
      9 O           5.4840    1.5130    1.3006 O.2     1  UNL1       -0.4285
     10 N           7.7527    1.8965    1.8941 N.pl3   1  UNL1        0.0926
     11 O           8.9449    1.7488    1.5921 O.2     1  UNL1       -0.1231
     12 O           7.3275    2.4508    2.9161 O.2     1  UNL1       -0.1231
     13 H           0.5231    0.8858   -1.0681 H       1  UNL1        0.1001
     14 H           0.6390   -0.4736    0.0962 H       1  UNL1        0.1001
     15 H           0.8091    1.2185    0.6633 H       1  UNL1        0.1001
     16 H           2.9187    1.4594    1.2813 H       1  UNL1        0.1424
     17 H           5.3484   -0.0492   -1.5945 H       1  UNL1        0.0658
     18 H           7.8846    0.5000   -0.7289 H       1  UNL1        0.0673
@<TRIPOS>UNITY_ATOM_ATTR
2 1
charge 1
3 1
charge -1
@<TRIPOS>BOND
     1     1    13    1
     2     1    14    1
     3     1    15    1
     4     2     1    1
     5     3     2    1
     6     4     2    2
     7     4    16    1
     8     5     4    1
     9     6     5   ar
    10     6    17    1
    11     7     6   ar
    12     7    18    1
    13     8     7   ar
    14     9     8   ar
    15     9     5   ar
    16    10     8    1
    17    11    10    2
    18    12    10    2
