@<TRIPOS>MOLECULE
mol_120_akc_jbiopha2021111857
>118.sdf
 63 65 0 0 0
SMALL
GASTEIGER

@<TRIPOS>ATOM
      1 C           0.9056    0.0184   -0.2313 C.3     1  UNL1       -0.0653
      2 C           2.4247   -0.0056   -0.2480 C.3     1  UNL1       -0.0559
      3 C           2.9627   -1.2817    0.3935 C.3     1  UNL1       -0.0533
      4 C           4.4893   -1.3041    0.3758 C.3     1  UNL1       -0.0531
      5 C           5.0229   -2.5820    1.0168 C.3     1  UNL1       -0.0531
      6 C           6.5484   -2.6054    1.0000 C.3     1  UNL1       -0.0531
      7 C           7.0751   -3.8829    1.6430 C.3     1  UNL1       -0.0530
      8 C           8.6003   -3.9106    1.6330 C.3     1  UNL1       -0.0514
      9 C           9.1076   -5.1913    2.2783 C.3     1  UNL1       -0.0333
     10 C          10.6300   -5.2487    2.2815 C.3     1  UNL1        0.0432
     11 N          11.0951   -6.4523    2.9301 N.ar    1  UNL1       -0.2498
     12 C          11.8481   -6.5626    4.0587 C.ar    1  UNL1        0.0671
     13 C          11.9083   -7.9136    4.2598 C.ar    1  UNL1        0.1608
     14 N          12.6350   -8.5268    5.2102 N.pl3   1  UNL1       -0.3249
     15 C          13.0399   -9.9241    5.0667 C.3     1  UNL1        0.0260
     16 C          13.5758  -10.2310    3.6531 C.3     1  UNL1        0.0247
     17 N          14.0838  -11.6013    3.5301 N.pl3   1  UNL1       -0.3418
     18 C          14.4999  -11.9654    2.2171 C.ar    1  UNL1        0.0379
     19 C          15.0821  -11.0202    1.3598 C.ar    1  UNL1       -0.0221
     20 C          15.5651  -11.4236    0.1301 C.ar    1  UNL1        0.0300
     21 N          15.5530  -12.6940   -0.2896 N.ar    1  UNL1       -0.2548
     22 C          15.0348  -13.6220    0.5221 C.ar    1  UNL1        0.0741
     23 C          15.0617  -14.9326    0.0827 C.ar    1  UNL1       -0.0173
     24 C          14.5374  -15.9688    0.8529 C.ar    1  UNL1        0.0430
     25 CL         14.6194  -17.5891    0.2806 Cl      1  UNL1       -0.0835
     26 C          13.9541  -15.7017    2.0814 C.ar    1  UNL1       -0.0426
     27 C          13.9253  -14.3887    2.5480 C.ar    1  UNL1       -0.0494
     28 C          14.4769  -13.3211    1.7943 C.ar    1  UNL1        0.0213
     29 N          11.1997   -8.5615    3.2930 N.ar    1  UNL1       -0.1146
     30 N          10.7299   -7.6544    2.4529 N.ar    1  UNL1       -0.0639
     31 H           0.5362    0.9383   -0.6943 H       1  UNL1        0.0230
     32 H           0.4950   -0.8317   -0.7857 H       1  UNL1        0.0230
     33 H           0.5252   -0.0244    0.7944 H       1  UNL1        0.0230
     34 H           2.7761    0.0677   -1.2837 H       1  UNL1        0.0263
     35 H           2.8063    0.8708    0.2879 H       1  UNL1        0.0263
     36 H           2.6060   -1.3540    1.4282 H       1  UNL1        0.0265
     37 H           2.5760   -2.1567   -0.1432 H       1  UNL1        0.0265
     38 H           4.8485   -1.2331   -0.6581 H       1  UNL1        0.0265
     39 H           4.8784   -0.4316    0.9147 H       1  UNL1        0.0265
     40 H           4.6645   -2.6543    2.0510 H       1  UNL1        0.0265
     41 H           4.6349   -3.4555    0.4786 H       1  UNL1        0.0265
     42 H           6.9090   -2.5370   -0.0335 H       1  UNL1        0.0265
     43 H           6.9386   -1.7335    1.5387 H       1  UNL1        0.0265
     44 H           6.7119   -3.9546    2.6756 H       1  UNL1        0.0265
     45 H           6.6863   -4.7556    1.1037 H       1  UNL1        0.0265
     46 H           8.9671   -3.8457    0.6015 H       1  UNL1        0.0266
     47 H           8.9931   -3.0422    2.1754 H       1  UNL1        0.0266
     48 H           8.7334   -5.2661    3.3073 H       1  UNL1        0.0283
     49 H           8.7001   -6.0551    1.7360 H       1  UNL1        0.0283
     50 H          11.0370   -5.2444    1.2644 H       1  UNL1        0.0509
     51 H          11.0491   -4.3932    2.8228 H       1  UNL1        0.0509
     52 H          12.2948   -5.7195    4.5606 H       1  UNL1        0.0862
     53 H          12.5399   -8.2075    6.1692 H       1  UNL1        0.1476
     54 H          13.8467  -10.1093    5.7870 H       1  UNL1        0.0477
     55 H          12.2162  -10.5953    5.3337 H       1  UNL1        0.0477
     56 H          12.7860  -10.1189    2.9070 H       1  UNL1        0.0476
     57 H          14.3622   -9.4985    3.4417 H       1  UNL1        0.0476
     58 H          13.3861  -12.2577    3.8676 H       1  UNL1        0.1461
     59 H          15.1704   -9.9702    1.6144 H       1  UNL1        0.0651
     60 H          15.9935  -10.7014   -0.5588 H       1  UNL1        0.0830
     61 H          15.5118  -15.1507   -0.8815 H       1  UNL1        0.0653
     62 H          13.5290  -16.5016    2.6809 H       1  UNL1        0.0632
     63 H          13.4566  -14.2121    3.5137 H       1  UNL1        0.0625
@<TRIPOS>BOND
     1     1    31    1
     2     1    32    1
     3     1    33    1
     4     2     1    1
     5     2    34    1
     6     2    35    1
     7     3     2    1
     8     3    36    1
     9     3    37    1
    10     4     3    1
    11     4    38    1
    12     4    39    1
    13     5     4    1
    14     5    40    1
    15     5    41    1
    16     6     5    1
    17     6    42    1
    18     6    43    1
    19     7     6    1
    20     7    44    1
    21     7    45    1
    22     8     7    1
    23     8    46    1
    24     8    47    1
    25     9     8    1
    26     9    48    1
    27     9    49    1
    28    10     9    1
    29    10    50    1
    30    10    51    1
    31    11    10    1
    32    12    11   ar
    33    12    52    1
    34    13    12   ar
    35    14    13    1
    36    14    53    1
    37    15    14    1
    38    15    54    1
    39    15    55    1
    40    16    15    1
    41    16    56    1
    42    16    57    1
    43    17    16    1
    44    17    58    1
    45    18    17    1
    46    19    18   ar
    47    19    59    1
    48    20    19   ar
    49    20    60    1
    50    21    20   ar
    51    22    21   ar
    52    23    22   ar
    53    23    61    1
    54    24    23   ar
    55    25    24    1
    56    26    24   ar
    57    26    62    1
    58    27    26   ar
    59    27    63    1
    60    28    27   ar
    61    28    18   ar
    62    28    22   ar
    63    29    13   ar
    64    30    29   ar
    65    30    11   ar
