@<TRIPOS>MOLECULE
mol_121_akc_jbioorg2021105141
>119.sdf
 43 46 0 0 0
SMALL
GASTEIGER

@<TRIPOS>ATOM
      1 C           0.9771   -0.0697    0.6127 C.3     1  UNL1        0.0788
      2 O           2.1969   -0.6413    1.0891 O.3     1  UNL1       -0.4951
      3 C           2.7957   -1.5047    0.2123 C.ar    1  UNL1        0.1201
      4 C           2.1061   -2.3474   -0.6576 C.ar    1  UNL1       -0.0194
      5 C           2.8064   -3.0936   -1.6090 C.ar    1  UNL1       -0.0503
      6 C           4.1979   -2.9540   -1.7347 C.ar    1  UNL1       -0.0090
      7 C           4.8905   -2.2212   -0.7568 C.ar    1  UNL1       -0.0503
      8 C           4.1876   -1.5066    0.2149 C.ar    1  UNL1       -0.0194
      9 C           4.9323   -3.2949   -2.9971 C.ar    1  UNL1        0.0883
     10 C           5.2872   -2.2160   -3.7474 C.ar    1  UNL1        0.0568
     11 N           6.2940   -2.2118   -4.7113 N.pl3   1  UNL1       -0.3133
     12 C           7.1863   -1.1344   -4.9344 C.ar    1  UNL1        0.0315
     13 C           7.1612    0.0600   -4.2003 C.ar    1  UNL1       -0.0378
     14 C           8.0246    1.1117   -4.5082 C.ar    1  UNL1       -0.0247
     15 C           8.9245    0.9803   -5.5560 C.ar    1  UNL1        0.1235
     16 F           9.7522    1.9878   -5.8485 F       1  UNL1       -0.2055
     17 C           8.9721   -0.1905   -6.3047 C.ar    1  UNL1       -0.0247
     18 C           8.1021   -1.2391   -5.9979 C.ar    1  UNL1       -0.0378
     19 C           4.0163   -1.5881   -4.2225 C.ar    1  UNL1        0.0393
     20 C           3.0891   -2.4816   -4.7862 C.ar    1  UNL1        0.1409
     21 O           3.4185   -3.8597   -4.8398 O.2     1  UNL1       -0.4216
     22 C           4.3723   -4.3339   -3.9213 C.ar    1  UNL1        0.3469
     23 O           4.7134   -5.5090   -3.8655 O.2     1  UNL1       -0.2444
     24 C           1.7882   -2.1017   -5.0926 C.ar    1  UNL1       -0.0186
     25 C           1.3832   -0.8077   -4.7674 C.ar    1  UNL1       -0.0582
     26 C           2.2802    0.0869   -4.1696 C.ar    1  UNL1       -0.0609
     27 C           3.6002   -0.2959   -3.9062 C.ar    1  UNL1       -0.0493
     28 H           1.0492    0.2415   -0.4365 H       1  UNL1        0.0660
     29 H           0.1481   -0.7672    0.7562 H       1  UNL1        0.0660
     30 H           0.7707    0.8256    1.2075 H       1  UNL1        0.0660
     31 H           1.0223   -2.4034   -0.6505 H       1  UNL1        0.0654
     32 H           2.2287   -3.6804   -2.3194 H       1  UNL1        0.0625
     33 H           5.9731   -2.1281   -0.7999 H       1  UNL1        0.0625
     34 H           4.7285   -0.8861    0.9264 H       1  UNL1        0.0654
     35 H           6.8069   -3.0929   -4.7603 H       1  UNL1        0.1522
     36 H           6.4842    0.1807   -3.3601 H       1  UNL1        0.0637
     37 H           8.0004    2.0335   -3.9353 H       1  UNL1        0.0647
     38 H           9.6800   -0.2741   -7.1224 H       1  UNL1        0.0647
     39 H           8.1331   -2.1403   -6.6051 H       1  UNL1        0.0637
     40 H           1.0819   -2.8182   -5.4994 H       1  UNL1        0.0654
     41 H           0.3522   -0.5043   -4.9358 H       1  UNL1        0.0619
     42 H           1.9384    1.0743   -3.8692 H       1  UNL1        0.0618
     43 H           4.2541    0.3895   -3.3781 H       1  UNL1        0.0625
@<TRIPOS>BOND
     1     1    28    1
     2     1    29    1
     3     1    30    1
     4     2     1    1
     5     3     2    1
     6     4     3   ar
     7     4    31    1
     8     5     4   ar
     9     5    32    1
    10     6     5   ar
    11     7     6   ar
    12     7    33    1
    13     8     7   ar
    14     8     3   ar
    15     8    34    1
    16     9     6    1
    17    10     9   ar
    18    11    10    1
    19    11    35    1
    20    12    11    1
    21    13    12   ar
    22    13    36    1
    23    14    13   ar
    24    14    37    1
    25    15    14   ar
    26    16    15    1
    27    17    15   ar
    28    17    38    1
    29    18    17   ar
    30    18    12   ar
    31    18    39    1
    32    19    10   ar
    33    20    19   ar
    34    21    20   ar
    35    22    21   ar
    36    22     9   ar
    37    23    22    2
    38    24    20   ar
    39    24    40    1
    40    25    24   ar
    41    25    41    1
    42    26    25   ar
    43    26    42    1
    44    27    26   ar
    45    27    19   ar
    46    27    43    1
