@<TRIPOS>MOLECULE
mol_124_akc_acsjmedchem1c00813
>122.sdf
 37 39 0 0 0
SMALL
GASTEIGER

@<TRIPOS>ATOM
      1 C           1.0418   -0.0533    0.0631 C.3     1  UNL1        0.0004
      2 N           2.4560    0.0731   -0.2573 N.pl3   1  UNL1       -0.3360
      3 C           3.1937   -1.1650   -0.4912 C.3     1  UNL1        0.0004
      4 C           3.1737    1.2212    0.0600 C.ar    1  UNL1        0.0313
      5 C           4.3254    1.5566   -0.6616 C.ar    1  UNL1       -0.0400
      6 C           5.0193    2.7432   -0.4154 C.ar    1  UNL1       -0.0508
      7 C           4.5814    3.6233    0.5796 C.ar    1  UNL1        0.0012
      8 C           5.2438    4.8271    0.8452 C.ar    1  UNL1       -0.0416
      9 C           4.7966    5.7084    1.8465 C.ar    1  UNL1        0.0223
     10 C           3.6593    5.2810    2.5556 C.ar    1  UNL1        0.1246
     11 N           3.1001    6.0195    3.6010 N.pl3   1  UNL1       -0.3426
     12 N           3.0089    4.1226    2.3221 N.ar    1  UNL1       -0.2318
     13 C           3.4529    3.3063    1.3431 C.ar    1  UNL1        0.0749
     14 C           2.7736    2.1197    1.0643 C.ar    1  UNL1       -0.0146
     15 C           5.5200    6.9895    2.0878 C.ar    1  UNL1       -0.0118
     16 C           6.0916    7.7154    1.0227 C.ar    1  UNL1       -0.0355
     17 C           6.7889    8.9079    1.2445 C.ar    1  UNL1        0.0429
     18 CL          7.5100    9.7305   -0.0850 Cl      1  UNL1       -0.0835
     19 C           6.9087    9.4327    2.5233 C.ar    1  UNL1       -0.0250
     20 C           6.3444    8.7396    3.5864 C.ar    1  UNL1        0.0429
     21 CL          6.4583    9.3844    5.1781 Cl      1  UNL1       -0.0835
     22 C           5.6808    7.5267    3.3776 C.ar    1  UNL1       -0.0355
     23 H           0.5329   -0.5662   -0.7612 H       1  UNL1        0.0428
     24 H           0.8936   -0.6388    0.9760 H       1  UNL1        0.0428
     25 H           0.5408    0.9143    0.1730 H       1  UNL1        0.0428
     26 H           3.7351   -1.1288   -1.4417 H       1  UNL1        0.0428
     27 H           3.9034   -1.3626    0.3201 H       1  UNL1        0.0428
     28 H           2.5144   -2.0233   -0.5466 H       1  UNL1        0.0428
     29 H           4.6742    0.9176   -1.4668 H       1  UNL1        0.0636
     30 H           5.8896    2.9781   -1.0230 H       1  UNL1        0.0625
     31 H           6.1274    5.0706    0.2615 H       1  UNL1        0.0631
     32 H           2.2722    5.5106    3.9049 H       1  UNL1        0.1437
     33 H           2.8821    6.9664    3.3165 H       1  UNL1        0.1437
     34 H           1.9066    1.8949    1.6813 H       1  UNL1        0.0657
     35 H           5.9968    7.3583   -0.0007 H       1  UNL1        0.0638
     36 H           7.4366   10.3667    2.6913 H       1  UNL1        0.0647
     37 H           5.2901    6.9965    4.2454 H       1  UNL1        0.0638
@<TRIPOS>BOND
     1     1    23    1
     2     1    24    1
     3     1    25    1
     4     2     1    1
     5     3     2    1
     6     3    26    1
     7     3    27    1
     8     3    28    1
     9     4     2    1
    10     5     4   ar
    11     5    29    1
    12     6     5   ar
    13     6    30    1
    14     7     6   ar
    15     8     7   ar
    16     8    31    1
    17     9     8   ar
    18    10     9   ar
    19    11    10    1
    20    11    32    1
    21    11    33    1
    22    12    10   ar
    23    13    12   ar
    24    13     7   ar
    25    14    13   ar
    26    14     4   ar
    27    14    34    1
    28    15     9    1
    29    16    15   ar
    30    16    35    1
    31    17    16   ar
    32    18    17    1
    33    19    17   ar
    34    19    36    1
    35    20    19   ar
    36    21    20    1
    37    22    20   ar
    38    22    15   ar
    39    22    37    1
