@<TRIPOS>MOLECULE
mol_125_akc_fmb_2020_0320
>123.sdf
 58 61 0 0 0
SMALL
GASTEIGER

@<TRIPOS>ATOM
      1 C           0.9797   -0.7544    2.6439 C.3     1  UNL1       -0.0394
      2 C           2.4684   -0.5497    2.3258 C.3     1  UNL1        0.0872
      3 N           2.8760    0.8588    2.5737 N.ar    1  UNL1       -0.2345
      4 N           3.9399    1.1040    3.4196 N.ar    1  UNL1       -0.1586
      5 C           4.0916    2.3886    3.3935 C.ar    1  UNL1        0.1230
      6 N           3.2403    3.0633    2.5886 N.ar    1  UNL1       -0.2777
      7 C           2.3784    2.0861    2.0800 C.ar    1  UNL1        0.1829
      8 S           0.9686    2.2694    1.1945 S.2     1  UNL1       -0.0109
      9 C           3.2516    4.4604    2.3515 C.ar    1  UNL1        0.0501
     10 C           2.7342    4.9833    1.1616 C.ar    1  UNL1       -0.0343
     11 C           2.6186    6.3538    0.9436 C.ar    1  UNL1       -0.0180
     12 C           3.0746    7.2505    1.8970 C.ar    1  UNL1        0.1209
     13 O           2.9866    8.6095    1.7969 O.3     1  UNL1       -0.4858
     14 C           2.2343    9.1108    0.6821 C.3     1  UNL1        0.1582
     15 C           2.1979   10.6299    0.7127 C.3     1  UNL1        0.3406
     16 F           1.5498   11.0681   -0.4018 F       1  UNL1       -0.1957
     17 F           1.4490   11.0383    1.7738 F       1  UNL1       -0.1957
     18 C           3.5994   11.2116    0.7929 C.3     1  UNL1        0.3045
     19 F           4.3493   10.8006   -0.2655 F       1  UNL1       -0.2026
     20 F           3.5639   12.5694    0.7321 F       1  UNL1       -0.2026
     21 C           3.6854    6.7552    3.0505 C.ar    1  UNL1       -0.0180
     22 C           3.7797    5.3713    3.2774 C.ar    1  UNL1       -0.0343
     23 C           2.9309   -1.0829    0.9024 C.3     1  UNL1        0.1349
     24 O           2.3545   -0.2808   -0.1527 O.3     1  UNL1       -0.3799
     25 C           2.4160   -2.5301    0.6521 C.3     1  UNL1        0.0782
     26 N           2.7725   -3.0546   -0.6558 N.ar    1  UNL1       -0.2489
     27 C           2.0228   -3.0292   -1.7922 C.ar    1  UNL1        0.1144
     28 N           2.7034   -3.5620   -2.7805 N.ar    1  UNL1       -0.2228
     29 C           3.8769   -3.9215   -2.1813 C.ar    1  UNL1        0.1379
     30 N           3.9444   -3.6825   -0.8687 N.ar    1  UNL1       -0.1583
     31 C           4.4634   -1.0218    0.7958 C.ar    1  UNL1        0.0230
     32 C           5.1181   -0.2223   -0.1563 C.ar    1  UNL1       -0.0503
     33 C           6.5128   -0.2113   -0.2485 C.ar    1  UNL1       -0.0259
     34 C           7.2710   -1.0025    0.6176 C.ar    1  UNL1        0.1261
     35 F           8.6033   -0.9911    0.5227 F       1  UNL1       -0.2054
     36 C           6.6553   -1.7965    1.5688 C.ar    1  UNL1        0.0092
     37 C           5.2687   -1.8002    1.6490 C.ar    1  UNL1        0.1321
     38 F           4.6933   -2.5880    2.5714 F       1  UNL1       -0.2050
     39 H           0.7501   -1.8136    2.7890 H       1  UNL1        0.0251
     40 H           0.7101   -0.2321    3.5694 H       1  UNL1        0.0251
     41 H           0.3187   -0.3960    1.8519 H       1  UNL1        0.0251
     42 H           2.9913   -1.1314    3.0946 H       1  UNL1        0.0576
     43 H           4.8640    2.9288    3.9557 H       1  UNL1        0.1051
     44 H           2.4239    4.3417    0.3452 H       1  UNL1        0.0639
     45 H           2.1636    6.6671    0.0094 H       1  UNL1        0.0655
     46 H           2.6986    8.7925   -0.2600 H       1  UNL1        0.0759
     47 H           1.2050    8.7321    0.7221 H       1  UNL1        0.0759
     48 H           4.1141   10.9320    1.7161 H       1  UNL1        0.1082
     49 H           4.0702    7.4489    3.7951 H       1  UNL1        0.0655
     50 H           4.2253    5.0452    4.2133 H       1  UNL1        0.0639
     51 H           1.5870    0.2142    0.1853 H       1  UNL1        0.2108
     52 H           2.7741   -3.2457    1.3995 H       1  UNL1        0.0542
     53 H           1.3198   -2.5527    0.6770 H       1  UNL1        0.0542
     54 H           1.0271   -2.6123   -1.8462 H       1  UNL1        0.1044
     55 H           4.7016   -4.3741   -2.7166 H       1  UNL1        0.1065
     56 H           4.5455    0.3892   -0.8548 H       1  UNL1        0.0623
     57 H           7.0159    0.3939   -0.9918 H       1  UNL1        0.0646
     58 H           7.2463   -2.4158    2.2345 H       1  UNL1        0.0675
@<TRIPOS>BOND
     1     1    39    1
     2     1    40    1
     3     1    41    1
     4     3     2    1
     5     4     3   ar
     6     5     4   ar
     7     5    43    1
     8     6     5   ar
     9     7     6   ar
    10     7     3   ar
    11     8     7    2
    12     9     6    1
    13    10     9   ar
    14    10    44    1
    15    11    10   ar
    16    11    45    1
    17    12    11   ar
    18    13    12    1
    19    14    13    1
    20    14    46    1
    21    14    47    1
    22    15    14    1
    23    16    15    1
    24    17    15    1
    25    18    15    1
    26    18    48    1
    27    19    18    1
    28    20    18    1
    29    21    12   ar
    30    21    49    1
    31    22    21   ar
    32    22     9   ar
    33    22    50    1
    34    24    51    1
    35    25    23    1
    36    25    52    1
    37    25    53    1
    38    26    25    1
    39    27    26   ar
    40    27    54    1
    41    28    27   ar
    42    29    28   ar
    43    29    55    1
    44    30    29   ar
    45    30    26   ar
    46    31    23    1
    47    32    31   ar
    48    32    56    1
    49    33    32   ar
    50    33    57    1
    51    34    33   ar
    52    35    34    1
    53    36    34   ar
    54    36    58    1
    55    37    36   ar
    56    37    31   ar
    57    38    37    1
    58     2    42    1
    59     2     1    1
    60    23    24    1
    61    23     2    1
