@<TRIPOS>MOLECULE
mol_126_akc_jijpddr202102006
>124.sdf
 46 47 0 0 0
SMALL
GASTEIGER

@<TRIPOS>ATOM
      1 C           2.4679    0.4952   -3.0323 C.3     1  UNL1        0.0788
      2 O           3.7216   -0.0749   -3.3906 O.3     1  UNL1       -0.4951
      3 C           4.1189   -1.1945   -2.7128 C.ar    1  UNL1        0.1202
      4 C           3.4088   -1.8351   -1.6957 C.ar    1  UNL1       -0.0181
      5 C           3.9364   -2.9770   -1.0771 C.ar    1  UNL1       -0.0316
      6 C           5.1758   -3.4828   -1.4848 C.ar    1  UNL1        0.1087
      7 C           5.8955   -2.8461   -2.4980 C.ar    1  UNL1       -0.0316
      8 C           5.3612   -1.7052   -3.1067 C.ar    1  UNL1       -0.0181
      9 S           5.8400   -4.9273   -0.6701 S.O2    1  UNL1        0.0725
     10 O           7.1208   -5.2279   -1.2666 O.2     1  UNL1       -0.1500
     11 O           5.6795   -4.7297    0.7551 O.2     1  UNL1       -0.1500
     12 N           4.6983   -6.1138   -1.1260 N.pl3   1  UNL1       -0.2126
     13 C           5.1942   -7.4705   -1.1710 C.ar    1  UNL1        0.0931
     14 C           5.3558   -8.1615    0.0424 C.ar    1  UNL1        0.0078
     15 C           5.7297   -9.5168    0.0635 C.ar    1  UNL1        0.1432
     16 O           5.6309  -10.2753    1.2003 O.3     1  UNL1       -0.4932
     17 C           5.9359   -9.6287    2.4290 C.3     1  UNL1        0.0789
     18 C           6.0197  -10.1775   -1.1398 C.ar    1  UNL1        0.0792
     19 N           6.4876  -11.5105   -1.2613 N.am    1  UNL1       -0.2815
     20 C           7.2315  -12.2376   -0.3397 C.2     1  UNL1        0.2319
     21 O           7.6202  -11.8570    0.7580 O.2     1  UNL1       -0.2742
     22 C           7.5563  -13.6542   -0.7964 C.3     1  UNL1        0.0992
     23 CL          7.9582  -13.7024   -2.5303 Cl      1  UNL1       -0.1156
     24 C           5.8100   -9.4912   -2.3456 C.ar    1  UNL1        0.0067
     25 C           5.4042   -8.1474   -2.3779 C.ar    1  UNL1        0.1443
     26 O           5.1542   -7.7055   -3.6522 O.3     1  UNL1       -0.4932
     27 C           5.3739   -6.3319   -3.9308 C.3     1  UNL1        0.0789
     28 H           1.6485   -0.2098   -3.2059 H       1  UNL1        0.0660
     29 H           2.4755    0.8462   -1.9955 H       1  UNL1        0.0660
     30 H           2.2995    1.3639   -3.6763 H       1  UNL1        0.0660
     31 H           2.4453   -1.4679   -1.3563 H       1  UNL1        0.0655
     32 H           3.3783   -3.4548   -0.2761 H       1  UNL1        0.0638
     33 H           6.8664   -3.2172   -2.8172 H       1  UNL1        0.0638
     34 H           5.9201   -1.2024   -3.8934 H       1  UNL1        0.0655
     35 H           3.9405   -6.0548   -0.4419 H       1  UNL1        0.1738
     36 H           5.1198   -7.6526    0.9726 H       1  UNL1        0.0675
     37 H           6.7833   -8.9415    2.3379 H       1  UNL1        0.0660
     38 H           5.0502   -9.1106    2.8097 H       1  UNL1        0.0660
     39 H           6.2070  -10.4023    3.1543 H       1  UNL1        0.0660
     40 H           6.5176  -11.8853   -2.2051 H       1  UNL1        0.1549
     41 H           8.4287  -14.0201   -0.2475 H       1  UNL1        0.0525
     42 H           6.7032  -14.3116   -0.6114 H       1  UNL1        0.0525
     43 H           5.9677   -9.9967   -3.2965 H       1  UNL1        0.0674
     44 H           4.5582   -5.7139   -3.5493 H       1  UNL1        0.0660
     45 H           6.3512   -6.0006   -3.5728 H       1  UNL1        0.0660
     46 H           5.3725   -6.2125   -5.0184 H       1  UNL1        0.0660
@<TRIPOS>BOND
     1     1    28    1
     2     1    29    1
     3     1    30    1
     4     2     1    1
     5     3     2    1
     6     4     3   ar
     7     4    31    1
     8     5     4   ar
     9     5    32    1
    10     6     5   ar
    11     7     6   ar
    12     7    33    1
    13     8     7   ar
    14     8     3   ar
    15     8    34    1
    16     9     6    1
    17    10     9    2
    18    11     9    2
    19    12     9    1
    20    12    35    1
    21    13    12    1
    22    14    13   ar
    23    14    36    1
    24    15    14   ar
    25    16    15    1
    26    17    16    1
    27    17    37    1
    28    17    38    1
    29    17    39    1
    30    18    15   ar
    31    19    18    1
    32    19    40    1
    33    20    19   am
    34    21    20    2
    35    22    20    1
    36    22    41    1
    37    22    42    1
    38    23    22    1
    39    24    18   ar
    40    24    43    1
    41    25    24   ar
    42    25    13   ar
    43    26    25    1
    44    27    26    1
    45    27    44    1
    46    27    45    1
    47    27    46    1
