@<TRIPOS>MOLECULE
mol_127_akc_jijpddr202102006
>125.sdf
 50 52 0 0 0
SMALL
GASTEIGER

@<TRIPOS>ATOM
      1 C           2.1862   -1.0702   10.3891 C.3     1  UNL1        0.0788
      2 O           2.0891   -2.4153    9.9371 O.3     1  UNL1       -0.4951
      3 C           2.4414   -2.6789    8.6428 C.ar    1  UNL1        0.1202
      4 C           2.8851   -1.7519    7.6977 C.ar    1  UNL1       -0.0181
      5 C           3.2073   -2.1679    6.3941 C.ar    1  UNL1       -0.0316
      6 C           3.0911   -3.5186    6.0396 C.ar    1  UNL1        0.1087
      7 C           2.6243   -4.4455    6.9750 C.ar    1  UNL1       -0.0316
      8 C           2.3143   -4.0220    8.2731 C.ar    1  UNL1       -0.0181
      9 S           3.3983   -4.0470    4.3564 S.O2    1  UNL1        0.0725
     10 O           2.6125   -5.2374    4.1150 O.2     1  UNL1       -0.1500
     11 O           3.2669   -2.8761    3.5140 O.2     1  UNL1       -0.1500
     12 N           5.0404   -4.4640    4.3049 N.pl3   1  UNL1       -0.2126
     13 C           5.5364   -5.4120    5.2469 C.ar    1  UNL1        0.0937
     14 C           6.0429   -4.9125    6.4542 C.ar    1  UNL1       -0.0183
     15 C           6.4336   -5.7841    7.4698 C.ar    1  UNL1        0.0538
     16 C           6.3131   -7.1599    7.2843 C.ar    1  UNL1       -0.0407
     17 C           5.8304   -7.6611    6.0734 C.ar    1  UNL1       -0.0139
     18 C           5.4697   -6.7987    5.0275 C.ar    1  UNL1        0.1791
     19 O           5.0888   -7.2715    3.7835 O.3     1  UNL1       -0.3404
     20 S           5.7436   -8.6714    3.2293 S.O2    1  UNL1        0.1510
     21 O           7.1885   -8.5165    3.2202 O.2     1  UNL1       -0.1314
     22 O           5.1251   -9.7856    3.9255 O.2     1  UNL1       -0.1314
     23 C           5.2580   -8.8699    1.5333 C.ar    1  UNL1        0.1283
     24 C           6.0621   -9.6708    0.7090 C.ar    1  UNL1       -0.0299
     25 C           5.6837   -9.9179   -0.6131 C.ar    1  UNL1       -0.0180
     26 C           4.5072   -9.3613   -1.1146 C.ar    1  UNL1        0.1202
     27 O           4.0245   -9.5242   -2.3842 O.3     1  UNL1       -0.4951
     28 C           4.8189  -10.2875   -3.2858 C.3     1  UNL1        0.0788
     29 C           3.7131   -8.5621   -0.2790 C.ar    1  UNL1       -0.0180
     30 C           4.0817   -8.3082    1.0473 C.ar    1  UNL1       -0.0299
     31 C           6.9465   -5.2688    8.7029 C.1     1  UNL1        0.0992
     32 N           7.3669   -4.8418    9.6944 N.1     1  UNL1       -0.1909
     33 H           3.2114   -0.6954   10.3077 H       1  UNL1        0.0660
     34 H           1.4834   -0.4231    9.8543 H       1  UNL1        0.0660
     35 H           1.9118   -1.0540   11.4493 H       1  UNL1        0.0660
     36 H           2.9729   -0.6965    7.9399 H       1  UNL1        0.0655
     37 H           3.5225   -1.4244    5.6646 H       1  UNL1        0.0638
     38 H           2.4855   -5.4884    6.7076 H       1  UNL1        0.0638
     39 H           1.9500   -4.7436    9.0011 H       1  UNL1        0.0655
     40 H           5.6268   -3.6618    4.0765 H       1  UNL1        0.1738
     41 H           6.1151   -3.8388    6.6165 H       1  UNL1        0.0650
     42 H           6.6004   -7.8578    8.0701 H       1  UNL1        0.0631
     43 H           5.7569   -8.7417    5.9821 H       1  UNL1        0.0656
     44 H           6.9737  -10.1241    1.0958 H       1  UNL1        0.0639
     45 H           6.3209  -10.5561   -1.2174 H       1  UNL1        0.0655
     46 H           5.8210   -9.8596   -3.3971 H       1  UNL1        0.0660
     47 H           4.8700  -11.3357   -2.9726 H       1  UNL1        0.0660
     48 H           4.3365  -10.2553   -4.2676 H       1  UNL1        0.0660
     49 H           2.7877   -8.1420   -0.6686 H       1  UNL1        0.0655
     50 H           3.4362   -7.7047    1.6805 H       1  UNL1        0.0639
@<TRIPOS>BOND
     1     1    33    1
     2     1    34    1
     3     1    35    1
     4     2     1    1
     5     3     2    1
     6     4     3   ar
     7     4    36    1
     8     5     4   ar
     9     5    37    1
    10     6     5   ar
    11     7     6   ar
    12     7    38    1
    13     8     7   ar
    14     8     3   ar
    15     8    39    1
    16     9     6    1
    17    10     9    2
    18    11     9    2
    19    12     9    1
    20    12    40    1
    21    13    12    1
    22    14    13   ar
    23    14    41    1
    24    15    14   ar
    25    16    15   ar
    26    16    42    1
    27    17    16   ar
    28    17    43    1
    29    18    17   ar
    30    18    13   ar
    31    19    18    1
    32    20    19    1
    33    21    20    2
    34    22    20    2
    35    23    20    1
    36    24    23   ar
    37    24    44    1
    38    25    24   ar
    39    25    45    1
    40    26    25   ar
    41    27    26    1
    42    28    27    1
    43    28    46    1
    44    28    47    1
    45    28    48    1
    46    29    26   ar
    47    29    49    1
    48    30    29   ar
    49    30    23   ar
    50    30    50    1
    51    31    15    1
    52    32    31    3
