@<TRIPOS>MOLECULE
mol_128_akc_jparint2021102342
>126.sdf
 40 43 0 0 0
SMALL
GASTEIGER

@<TRIPOS>ATOM
      1 CL         -2.3526   -0.0460   -0.6946 Cl      1  UNL1       -0.0835
      2 C          -0.6569   -0.0059   -0.4296 C.ar    1  UNL1        0.0410
      3 C           0.0971   -1.1629   -0.5926 C.ar    1  UNL1       -0.0426
      4 C           1.4821   -1.1255   -0.3981 C.ar    1  UNL1       -0.0463
      5 C           2.1366    0.0823   -0.0889 C.ar    1  UNL1        0.0567
      6 C           1.3529    1.2309    0.1049 C.ar    1  UNL1       -0.0463
      7 C          -0.0371    1.1850   -0.0610 C.ar    1  UNL1       -0.0426
      8 C           3.5999    0.1379   -0.0042 C.ar    1  UNL1        0.2894
      9 N           4.5137   -0.4347   -0.7852 N.ar    1  UNL1       -0.0345
     10 N           5.8215   -0.4425   -0.3229 N.ar    1  UNL1        0.0330
     11 C           5.9257    0.3090    0.7545 C.ar    1  UNL1        0.2354
     12 N           7.0534    0.6424    1.4155 N.pl3   1  UNL1       -0.2890
     13 C           8.2530   -0.0971    1.4746 C.ar    1  UNL1        0.0329
     14 C           9.4502    0.5856    1.7418 C.ar    1  UNL1       -0.0405
     15 C          10.6691   -0.0948    1.7982 C.ar    1  UNL1       -0.0600
     16 C          10.7088   -1.4698    1.5886 C.ar    1  UNL1       -0.0616
     17 C           9.5334   -2.1601    1.3069 C.ar    1  UNL1       -0.0600
     18 C           8.3165   -1.4751    1.2336 C.ar    1  UNL1       -0.0405
     19 S           4.4050    0.9458    1.2823 S.2     1  UNL1        0.0236
     20 C           4.2350   -1.0700   -2.0800 C.ar    1  UNL1        0.2413
     21 C           3.2595   -0.5564   -2.9381 C.ar    1  UNL1        0.0126
     22 C           2.9350   -1.2573   -4.0986 C.ar    1  UNL1       -0.0555
     23 C           3.6029   -2.4445   -4.4016 C.ar    1  UNL1       -0.0613
     24 C           4.6197   -2.9167   -3.5683 C.ar    1  UNL1       -0.0555
     25 C           4.9523   -2.2209   -2.4037 C.ar    1  UNL1        0.0126
     26 H          -0.3868   -2.0964   -0.8762 H       1  UNL1        0.0632
     27 H           2.0287   -2.0595   -0.5185 H       1  UNL1        0.0626
     28 H           1.7976    2.1891    0.3742 H       1  UNL1        0.0626
     29 H          -0.6316    2.0850    0.0883 H       1  UNL1        0.0632
     30 H           7.0205    1.3787    2.1160 H       1  UNL1        0.1542
     31 H           9.4514    1.6619    1.9004 H       1  UNL1        0.0636
     32 H          11.5881    0.4485    2.0065 H       1  UNL1        0.0618
     33 H          11.6551   -2.0028    1.6450 H       1  UNL1        0.0618
     34 H           9.5635   -3.2357    1.1536 H       1  UNL1        0.0618
     35 H           7.4201   -2.0532    1.0352 H       1  UNL1        0.0636
     36 H           2.7420    0.3798   -2.7422 H       1  UNL1        0.0684
     37 H           2.1598   -0.8867   -4.7680 H       1  UNL1        0.0620
     38 H           3.3355   -3.0002   -5.3005 H       1  UNL1        0.0618
     39 H           5.1418   -3.8369   -3.8267 H       1  UNL1        0.0620
     40 H           5.7320   -2.6104   -1.7560 H       1  UNL1        0.0684
@<TRIPOS>UNITY_ATOM_ATTR
9 1
charge 1
@<TRIPOS>BOND
     1     2     1    1
     2     3     2   ar
     3     3    26    1
     4     4     3   ar
     5     4    27    1
     6     5     4   ar
     7     6     5   ar
     8     6    28    1
     9     7     6   ar
    10     7     2   ar
    11     7    29    1
    12     8     5    1
    13     9     8   ar
    14    10     9   ar
    15    11    10   ar
    16    12    11    1
    17    12    30    1
    18    13    12    1
    19    14    13   ar
    20    14    31    1
    21    15    14   ar
    22    15    32    1
    23    16    15   ar
    24    16    33    1
    25    17    16   ar
    26    17    34    1
    27    18    17   ar
    28    18    13   ar
    29    18    35    1
    30    19    11   ar
    31    19     8   ar
    32    20     9    1
    33    21    20   ar
    34    21    36    1
    35    22    21   ar
    36    22    37    1
    37    23    22   ar
    38    23    38    1
    39    24    23   ar
    40    24    39    1
    41    25    24   ar
    42    25    20   ar
    43    25    40    1
