@<TRIPOS>MOLECULE
mol_129_akc_acsinfecdis0c00855
>127.sdf
 70 72 0 0 0
SMALL
GASTEIGER

@<TRIPOS>ATOM
      1 C           1.2443    1.8742   -1.9191 C.3     1  UNL1       -0.0281
      2 C           2.2977    1.7071   -0.8293 C.3     1  UNL1        0.0948
      3 C           1.6386    1.7325    0.5506 C.3     1  UNL1       -0.0281
      4 O           2.8990    0.4107   -1.0021 O.3     1  UNL1       -0.4852
      5 C           4.2143    0.3538   -1.3965 C.ar    1  UNL1        0.1686
      6 C           4.9571   -0.7699   -0.9719 C.ar    1  UNL1        0.1607
      7 N           4.4286   -1.9014   -0.2961 N.pl3   1  UNL1       -0.2021
      8 C           3.2402   -2.5547   -0.4018 C.cat   1  UNL1        0.2566
      9 N           2.3901   -2.1404   -1.2139 N.2     1  UNL1       -0.4083
     10 C           2.8668   -3.7626    0.4126 C.ar    1  UNL1        0.1463
     11 C           3.7501   -4.4446    1.2327 C.ar    1  UNL1       -0.0286
     12 C           3.2334   -5.4932    1.9812 C.ar    1  UNL1       -0.0581
     13 C           1.8787   -5.8115    1.8824 C.ar    1  UNL1       -0.0435
     14 C           1.0872   -5.0869    1.0045 C.ar    1  UNL1        0.0285
     15 N           1.5486   -4.0669    0.2480 N.ar    1  UNL1       -0.2477
     16 C           6.3118   -0.8466   -1.3242 C.ar    1  UNL1       -0.0099
     17 C           6.9046    0.1246   -2.1261 C.ar    1  UNL1       -0.0159
     18 C           6.1480    1.1871   -2.6166 C.ar    1  UNL1        0.1242
     19 O           6.6101    2.1445   -3.4863 O.3     1  UNL1       -0.4918
     20 C           7.8923    1.8638   -4.0570 C.3     1  UNL1        0.0896
     21 C           8.2229    2.8527   -5.1696 C.3     1  UNL1       -0.0186
     22 C           9.6344    2.6327   -5.7276 C.3     1  UNL1       -0.0500
     23 C           9.8286    1.2525   -6.3675 C.3     1  UNL1       -0.0530
     24 C          11.2626    1.0631   -6.8610 C.3     1  UNL1       -0.0530
     25 C          11.4702   -0.3427   -7.4379 C.3     1  UNL1       -0.0514
     26 C          12.8925   -0.5752   -7.9490 C.3     1  UNL1       -0.0349
     27 C          13.9443   -0.5023   -6.8422 C.3     1  UNL1        0.0241
     28 N          15.2841   -0.7166   -7.3428 N.ar    1  UNL1       -0.3368
     29 C          16.1393    0.2477   -7.7894 C.ar    1  UNL1        0.0240
     30 C          17.2948   -0.4227   -8.1100 C.ar    1  UNL1        0.0454
     31 N          17.1578   -1.7664   -7.8647 N.ar    1  UNL1       -0.2441
     32 C          15.9374   -1.9119   -7.4025 C.ar    1  UNL1        0.0959
     33 C           4.8095    1.3097   -2.2319 C.ar    1  UNL1        0.0258
     34 H           0.4876    2.6166   -1.6489 H       1  UNL1        0.0265
     35 H           1.7151    2.1937   -2.8539 H       1  UNL1        0.0265
     36 H           0.7437    0.9214   -2.1301 H       1  UNL1        0.0265
     37 H           3.0232    2.5280   -0.8539 H       1  UNL1        0.0727
     38 H           0.8048    1.0236    0.6064 H       1  UNL1        0.0265
     39 H           2.3549    1.4461    1.3280 H       1  UNL1        0.0265
     40 H           1.2570    2.7318    0.7808 H       1  UNL1        0.0265
     41 H           5.1402   -2.3183    0.2986 H       1  UNL1        0.2984
     42 H           1.8388   -2.9142   -1.5591 H       1  UNL1        0.2551
     43 H           4.8009   -4.1944    1.3053 H       1  UNL1        0.0641
     44 H           3.8768   -6.0587    2.6543 H       1  UNL1        0.0619
     45 H           1.4550   -6.6123    2.4782 H       1  UNL1        0.0633
     46 H           0.0293   -5.3138    0.9000 H       1  UNL1        0.0830
     47 H           6.9248   -1.6908   -1.0122 H       1  UNL1        0.0660
     48 H           7.9551    0.0002   -2.3714 H       1  UNL1        0.0655
     49 H           8.6593    1.9371   -3.2764 H       1  UNL1        0.0696
     50 H           7.8776    0.8538   -4.4808 H       1  UNL1        0.0696
     51 H           7.4792    2.7727   -5.9714 H       1  UNL1        0.0298
     52 H           8.1400    3.8753   -4.7820 H       1  UNL1        0.0298
     53 H           9.8458    3.4096   -6.4718 H       1  UNL1        0.0266
     54 H          10.3636    2.7655   -4.9180 H       1  UNL1        0.0266
     55 H           9.6148    0.4625   -5.6413 H       1  UNL1        0.0265
     56 H           9.1257    1.1295   -7.2005 H       1  UNL1        0.0265
     57 H          11.5002    1.8145   -7.6204 H       1  UNL1        0.0265
     58 H          11.9407    1.2237   -6.0158 H       1  UNL1        0.0265
     59 H          11.2278   -1.0969   -6.6792 H       1  UNL1        0.0266
     60 H          10.7714   -0.4954   -8.2693 H       1  UNL1        0.0266
     61 H          12.9351   -1.5654   -8.4226 H       1  UNL1        0.0282
     62 H          13.1235    0.1516   -8.7373 H       1  UNL1        0.0282
     63 H          13.9485    0.4762   -6.3536 H       1  UNL1        0.0492
     64 H          13.7511   -1.2576   -6.0708 H       1  UNL1        0.0492
     65 H          15.8710    1.2966   -7.8452 H       1  UNL1        0.0825
     66 H          18.2178   -0.0134   -8.4991 H       1  UNL1        0.0845
     67 H          15.4882   -2.8490   -7.0999 H       1  UNL1        0.1029
     68 H           4.2454    2.1487   -2.6299 H       1  UNL1        0.0692
     69 H           2.7580   -1.4694   -1.8615 H       1  UNL1        0.2551
     70 H           1.7146   -1.6380   -0.6483 H       1  UNL1        0.2551
@<TRIPOS>UNITY_ATOM_ATTR
8 1
charge 1
@<TRIPOS>BOND
     1     1    34    1
     2     1    35    1
     3     1    36    1
     4     2     1    1
     5     2    37    1
     6     3     2    1
     7     3    38    1
     8     3    39    1
     9     3    40    1
    10     4     2    1
    11     5     4    1
    12     6     5   ar
    13     7     6    1
    14     7    41    1
    15     8     7    1
    16     9     8    2
    17     9    42    1
    18     9    69    1
    19    10     8    1
    20    11    10   ar
    21    11    43    1
    22    12    11   ar
    23    12    44    1
    24    13    12   ar
    25    13    45    1
    26    14    13   ar
    27    14    46    1
    28    15    14   ar
    29    15    10   ar
    30    16     6   ar
    31    16    47    1
    32    17    16   ar
    33    17    48    1
    34    18    17   ar
    35    19    18    1
    36    20    19    1
    37    20    49    1
    38    20    50    1
    39    21    20    1
    40    21    51    1
    41    21    52    1
    42    22    21    1
    43    22    53    1
    44    22    54    1
    45    23    22    1
    46    23    55    1
    47    23    56    1
    48    24    23    1
    49    24    57    1
    50    24    58    1
    51    25    24    1
    52    25    59    1
    53    25    60    1
    54    26    25    1
    55    26    61    1
    56    26    62    1
    57    27    26    1
    58    27    63    1
    59    27    64    1
    60    28    27    1
    61    29    28   ar
    62    29    65    1
    63    30    29   ar
    64    30    66    1
    65    31    30   ar
    66    32    31   ar
    67    32    28   ar
    68    32    67    1
    69    33    18   ar
    70    33     5   ar
    71    33    68    1
    72     9    70    1
