@<TRIPOS>MOLECULE
mol_12_akc_aac375991
>12.sdf
 78 81 0 0 0
SMALL
GASTEIGER

@<TRIPOS>ATOM
      1 C          19.9640   -2.2058    4.6138 C.3     1  UNL1       -0.0653
      2 C          18.6634   -1.7122    4.0012 C.3     1  UNL1       -0.0559
      3 C          17.6334   -1.3915    5.0809 C.3     1  UNL1       -0.0533
      4 C          16.3169   -0.8995    4.4782 C.3     1  UNL1       -0.0530
      5 C          15.3062   -0.5988    5.5840 C.3     1  UNL1       -0.0516
      6 C          13.9718   -0.1015    5.0212 C.3     1  UNL1       -0.0372
      7 C          12.9308    0.1035    6.1279 C.3     1  UNL1        0.0119
      8 N          13.3585    1.1513    7.0607 N.pl3   1  UNL1       -0.3329
      9 C          13.4527    0.7679    8.4722 C.3     1  UNL1        0.0007
     10 C          13.1010    2.5022    6.8028 C.ar    1  UNL1        0.0295
     11 C          12.4094    2.9389    5.6630 C.ar    1  UNL1       -0.0389
     12 C          12.0645    4.2830    5.4863 C.ar    1  UNL1       -0.0388
     13 C          12.4633    5.2433    6.4142 C.ar    1  UNL1        0.0314
     14 N          12.2127    6.6041    6.1902 N.pl3   1  UNL1       -0.3135
     15 C          11.1407    7.4611    6.6227 C.ar    1  UNL1        0.0469
     16 C          10.7094    7.6218    7.9786 C.ar    1  UNL1        0.0040
     17 C          11.0884    6.8772    9.1184 C.ar    1  UNL1       -0.0505
     18 C          10.7091    7.2608   10.4284 C.ar    1  UNL1       -0.0400
     19 C           9.8249    8.3236   10.6378 C.ar    1  UNL1        0.0298
     20 C           9.3063    8.9343    9.5029 C.ar    1  UNL1       -0.0329
     21 C           9.8497    8.7148    8.2425 C.ar    1  UNL1       -0.0138
     22 C           9.6206    9.7115    7.2960 C.ar    1  UNL1       -0.0461
     23 C          10.0973    9.6073    6.0021 C.ar    1  UNL1       -0.0138
     24 C          10.6855    8.3854    5.6227 C.ar    1  UNL1        0.0040
     25 C          10.8222    8.1617    4.2473 C.ar    1  UNL1       -0.0505
     26 C          10.6903    9.1778    3.3223 C.ar    1  UNL1       -0.0400
     27 C          10.3836   10.4759    3.7413 C.ar    1  UNL1        0.0298
     28 C          10.0202   10.6642    5.0750 C.ar    1  UNL1       -0.0329
     29 N          10.3653   11.5571    2.8306 N.pl3   1  UNL1       -0.3360
     30 C          11.6074   11.6282    2.0431 C.3     1  UNL1        0.0004
     31 C           9.1525   11.4686    2.0138 C.3     1  UNL1        0.0004
     32 N           9.5863    8.8388   11.9380 N.pl3   1  UNL1       -0.3360
     33 C          10.8475    9.3818   12.4776 C.3     1  UNL1        0.0004
     34 C           8.4818    9.8061   12.0468 C.3     1  UNL1        0.0004
     35 C          13.2603    4.8486    7.4758 C.ar    1  UNL1       -0.0388
     36 C          13.5503    3.5031    7.6741 C.ar    1  UNL1       -0.0389
     37 H          20.6918   -2.4337    3.8305 H       1  UNL1        0.0230
     38 H          20.3993   -1.4464    5.2731 H       1  UNL1        0.0230
     39 H          19.7998   -3.1146    5.2021 H       1  UNL1        0.0230
     40 H          18.8635   -0.8188    3.3986 H       1  UNL1        0.0263
     41 H          18.2691   -2.4799    3.3254 H       1  UNL1        0.0263
     42 H          17.4461   -2.2871    5.6863 H       1  UNL1        0.0265
     43 H          18.0358   -0.6260    5.7559 H       1  UNL1        0.0265
     44 H          16.4959    0.0032    3.8818 H       1  UNL1        0.0265
     45 H          15.9109   -1.6617    3.8023 H       1  UNL1        0.0265
     46 H          15.1362   -1.5038    6.1785 H       1  UNL1        0.0266
     47 H          15.7287    0.1563    6.2577 H       1  UNL1        0.0266
     48 H          14.1347    0.8276    4.4634 H       1  UNL1        0.0280
     49 H          13.5815   -0.8373    4.3076 H       1  UNL1        0.0280
     50 H          11.9444    0.3181    5.7009 H       1  UNL1        0.0463
     51 H          12.7972   -0.8504    6.6536 H       1  UNL1        0.0463
     52 H          14.3628    1.1688    8.9310 H       1  UNL1        0.0428
     53 H          12.5770    1.1199    9.0297 H       1  UNL1        0.0428
     54 H          13.5082   -0.3180    8.5948 H       1  UNL1        0.0428
     55 H          12.1059    2.2483    4.8828 H       1  UNL1        0.0637
     56 H          11.5074    4.5667    4.5956 H       1  UNL1        0.0637
     57 H          12.4061    6.7696    5.2071 H       1  UNL1        0.1522
     58 H          11.7494    6.0302    9.0418 H       1  UNL1        0.0625
     59 H          11.1239    6.7221   11.2762 H       1  UNL1        0.0636
     60 H           8.5381    9.6971    9.5974 H       1  UNL1        0.0642
     61 H           9.1031   10.6290    7.5941 H       1  UNL1        0.0630
     62 H          11.0189    7.1609    3.8673 H       1  UNL1        0.0625
     63 H          10.8214    8.9503    2.2753 H       1  UNL1        0.0636
     64 H           9.7206   11.6587    5.4063 H       1  UNL1        0.0642
     65 H          11.7126   10.7866    1.3499 H       1  UNL1        0.0428
     66 H          11.6130   12.5455    1.4436 H       1  UNL1        0.0428
     67 H          12.4883   11.6601    2.6940 H       1  UNL1        0.0428
     68 H           9.0601   10.4964    1.5146 H       1  UNL1        0.0428
     69 H           8.2633   11.6299    2.6337 H       1  UNL1        0.0428
     70 H           9.1621   12.2396    1.2365 H       1  UNL1        0.0428
     71 H          11.3593   10.0149   11.7423 H       1  UNL1        0.0428
     72 H          10.6538   10.0048   13.3588 H       1  UNL1        0.0428
     73 H          11.5233    8.5787   12.7925 H       1  UNL1        0.0428
     74 H           7.5586    9.4219   11.5974 H       1  UNL1        0.0428
     75 H           8.2605   10.0065   13.1012 H       1  UNL1        0.0428
     76 H           8.7426   10.7629   11.5782 H       1  UNL1        0.0428
     77 H          13.6825    5.5969    8.1433 H       1  UNL1        0.0637
     78 H          14.1802    3.2633    8.5289 H       1  UNL1        0.0637
@<TRIPOS>BOND
     1     1    37    1
     2     1    38    1
     3     1    39    1
     4     2     1    1
     5     2    40    1
     6     2    41    1
     7     3     2    1
     8     3    42    1
     9     3    43    1
    10     4     3    1
    11     4    44    1
    12     4    45    1
    13     5     4    1
    14     5    46    1
    15     5    47    1
    16     6     5    1
    17     6    48    1
    18     6    49    1
    19     7     6    1
    20     7    50    1
    21     7    51    1
    22     8     7    1
    23     9     8    1
    24     9    52    1
    25     9    53    1
    26     9    54    1
    27    10     8    1
    28    11    10   ar
    29    11    55    1
    30    12    11   ar
    31    12    56    1
    32    13    12   ar
    33    14    13    1
    34    14    57    1
    35    15    14    1
    36    16    15   ar
    37    17    16   ar
    38    17    58    1
    39    18    17   ar
    40    18    59    1
    41    19    18   ar
    42    20    19   ar
    43    20    60    1
    44    21    20   ar
    45    21    16   ar
    46    22    21   ar
    47    22    61    1
    48    23    22   ar
    49    24    23   ar
    50    24    15   ar
    51    25    24   ar
    52    25    62    1
    53    26    25   ar
    54    26    63    1
    55    27    26   ar
    56    28    27   ar
    57    28    23   ar
    58    28    64    1
    59    29    27    1
    60    30    29    1
    61    30    65    1
    62    30    66    1
    63    30    67    1
    64    31    29    1
    65    31    68    1
    66    31    69    1
    67    31    70    1
    68    32    19    1
    69    33    32    1
    70    33    71    1
    71    33    72    1
    72    33    73    1
    73    34    32    1
    74    34    74    1
    75    34    75    1
    76    34    76    1
    77    35    13   ar
    78    35    77    1
    79    36    35   ar
    80    36    10   ar
    81    36    78    1
