@<TRIPOS>MOLECULE
mol_130_akc_aac01513_20
>128.sdf
 55 58 0 0 0
SMALL
GASTEIGER

@<TRIPOS>ATOM
      1 C          -1.6015    1.1794   -2.0487 C.3     1  UNL1       -0.0471
      2 C          -0.3506    0.6044   -1.3974 C.3     1  UNL1        0.0205
      3 N           0.8633    1.0909   -2.0742 N.ar    1  UNL1       -0.3468
      4 C           1.5230    0.3018   -2.9903 C.ar    1  UNL1        0.0071
      5 C           2.5262    0.6923   -3.7811 C.ar    1  UNL1       -0.0195
      6 C           2.8991    2.1390   -3.8119 C.ar    1  UNL1        0.0750
      7 N           3.6295    2.7370   -4.7217 N.2     1  UNL1       -0.2472
      8 C           4.1523    2.0239   -5.8076 C.ar    1  UNL1        0.0646
      9 C           3.3624    1.1958   -6.6009 C.ar    1  UNL1       -0.0360
     10 C           3.9449    0.2724   -7.4642 C.ar    1  UNL1       -0.0566
     11 C           5.3304    0.2556   -7.6542 C.ar    1  UNL1       -0.0469
     12 C           6.0217   -0.8327   -8.4424 C.3     1  UNL1       -0.0237
     13 C           5.1096   -1.6504   -9.3637 C.3     1  UNL1       -0.0237
     14 C           5.8795   -2.7325  -10.0699 C.ar    1  UNL1       -0.0468
     15 C           5.9593   -4.0102   -9.5109 C.ar    1  UNL1       -0.0551
     16 C           6.7039   -5.0029  -10.1506 C.ar    1  UNL1       -0.0194
     17 C           7.3694   -4.7306  -11.3504 C.ar    1  UNL1        0.1300
     18 O           8.0504   -5.7957  -11.8536 O.3     1  UNL1       -0.4057
     19 C           8.3552   -5.8515  -13.2390 C.3     1  UNL1        0.5752
     20 F           7.6143   -5.0182  -14.0000 F       1  UNL1       -0.1328
     21 F           9.6618   -5.5781  -13.4267 F       1  UNL1       -0.1328
     22 F           8.1203   -7.1114  -13.6691 F       1  UNL1       -0.1328
     23 C           7.3210   -3.4451  -11.8884 C.ar    1  UNL1       -0.0194
     24 C           6.5588   -2.4519  -11.2583 C.ar    1  UNL1       -0.0551
     25 C           6.1037    1.2321   -7.0126 C.ar    1  UNL1       -0.0566
     26 C           5.5182    2.1056   -6.0878 C.ar    1  UNL1       -0.0360
     27 C           2.3613    2.9422   -2.6682 C.ar    1  UNL1        0.0240
     28 C           1.3564    2.3939   -1.8263 C.ar    1  UNL1        0.0524
     29 C           0.9232    3.1828   -0.7489 C.ar    1  UNL1       -0.0192
     30 C           1.4529    4.4576   -0.5246 C.ar    1  UNL1        0.0430
     31 CL          0.9075    5.3748    0.8265 Cl      1  UNL1       -0.0835
     32 C           2.4211    4.9861   -1.3702 C.ar    1  UNL1       -0.0426
     33 C           2.8749    4.2294   -2.4454 C.ar    1  UNL1       -0.0492
     34 H          -2.4978    0.7937   -1.5531 H       1  UNL1        0.0247
     35 H          -1.6246    2.2717   -1.9880 H       1  UNL1        0.0247
     36 H          -1.6535    0.9038   -3.1075 H       1  UNL1        0.0247
     37 H          -0.3320    0.8108   -0.3229 H       1  UNL1        0.0489
     38 H          -0.4046   -0.4904   -1.4693 H       1  UNL1        0.0489
     39 H           1.1738   -0.7258   -3.0430 H       1  UNL1        0.0810
     40 H           3.0048   -0.0145   -4.4408 H       1  UNL1        0.0653
     41 H           2.2829    1.1818   -6.4666 H       1  UNL1        0.0639
     42 H           3.2900   -0.4541   -7.9310 H       1  UNL1        0.0621
     43 H           6.8292   -0.3836   -9.0346 H       1  UNL1        0.0316
     44 H           6.4977   -1.5081   -7.7172 H       1  UNL1        0.0316
     45 H           4.3009   -2.1280   -8.7967 H       1  UNL1        0.0316
     46 H           4.6228   -0.9984  -10.1000 H       1  UNL1        0.0316
     47 H           5.4523   -4.2459   -8.5785 H       1  UNL1        0.0621
     48 H           6.7594   -5.9936   -9.7108 H       1  UNL1        0.0654
     49 H           7.8583   -3.1706  -12.7868 H       1  UNL1        0.0654
     50 H           6.5120   -1.4595  -11.6951 H       1  UNL1        0.0621
     51 H           7.1767    1.2885   -7.1847 H       1  UNL1        0.0621
     52 H           6.1352    2.8190   -5.5512 H       1  UNL1        0.0639
     53 H           0.1811    2.8172   -0.0481 H       1  UNL1        0.0653
     54 H           2.8300    5.9780   -1.1950 H       1  UNL1        0.0632
     55 H           3.6395    4.6377   -3.1030 H       1  UNL1        0.0625
@<TRIPOS>BOND
     1     1    34    1
     2     1    35    1
     3     1    36    1
     4     2     1    1
     5     2    37    1
     6     2    38    1
     7     3     2    1
     8     4     3   ar
     9     4    39    1
    10     5     4   ar
    11     5    40    1
    12     6     5   ar
    13     7     6    2
    14     8     7    1
    15     9     8   ar
    16     9    41    1
    17    10     9   ar
    18    10    42    1
    19    11    10   ar
    20    12    11    1
    21    12    43    1
    22    12    44    1
    23    13    12    1
    24    13    45    1
    25    13    46    1
    26    14    13    1
    27    15    14   ar
    28    15    47    1
    29    16    15   ar
    30    16    48    1
    31    17    16   ar
    32    18    17    1
    33    19    18    1
    34    20    19    1
    35    21    19    1
    36    22    19    1
    37    23    17   ar
    38    23    49    1
    39    24    23   ar
    40    24    14   ar
    41    24    50    1
    42    25    11   ar
    43    25    51    1
    44    26    25   ar
    45    26     8   ar
    46    26    52    1
    47    27     6   ar
    48    28    27   ar
    49    28     3   ar
    50    29    28   ar
    51    29    53    1
    52    30    29   ar
    53    31    30    1
    54    32    30   ar
    55    32    54    1
    56    33    32   ar
    57    33    27   ar
    58    33    55    1
