@<TRIPOS>MOLECULE
mol_131_akc_s00436_021_07169_w
>129.sdf
 42 43 0 0 0
SMALL
GASTEIGER

@<TRIPOS>ATOM
      1 C           0.9815    0.2990    0.0276 C.3     1  UNL1        0.0790
      2 O           2.3405   -0.1295   -0.0036 O.3     1  UNL1       -0.4913
      3 C           3.0116    0.0043   -1.1927 C.ar    1  UNL1        0.1657
      4 C           2.6342    0.9533   -2.1505 C.ar    1  UNL1       -0.0089
      5 C           3.3406    1.1397   -3.3482 C.ar    1  UNL1       -0.0177
      6 C           2.9267    2.1361   -4.3609 C.2     1  UNL1       -0.0494
      7 C           1.8281    2.8988   -4.2407 C.2     1  UNL1        0.0013
      8 C           1.4515    3.9480   -5.2205 C.2     1  UNL1        0.2459
      9 O           1.8098    3.8636   -6.3941 O.2     1  UNL1       -0.2702
     10 N           0.6482    4.9785   -4.7224 N.am    1  UNL1       -0.2348
     11 C           0.0183    5.8431   -5.7112 C.3     1  UNL1        0.0263
     12 C          -1.3301    6.3776   -5.2363 C.3     1  UNL1       -0.0179
     13 C          -1.2063    6.9322   -3.8538 C.2     1  UNL1       -0.0776
     14 C          -0.2380    6.5257   -3.0278 C.2     1  UNL1       -0.0031
     15 C           0.7094    5.4360   -3.3960 C.2     1  UNL1        0.2456
     16 O           1.4360    5.0005   -2.5080 O.2     1  UNL1       -0.2702
     17 C           4.4935    0.3776   -3.5539 C.ar    1  UNL1       -0.0089
     18 C           4.9201   -0.5498   -2.5901 C.ar    1  UNL1        0.1657
     19 O           6.0468   -1.3237   -2.7524 O.3     1  UNL1       -0.4913
     20 C           7.1208   -0.7056   -3.4529 C.3     1  UNL1        0.0790
     21 C           4.1597   -0.7700   -1.4204 C.ar    1  UNL1        0.2035
     22 O           4.6714   -1.7061   -0.5507 O.3     1  UNL1       -0.4885
     23 C           3.7293   -2.4588    0.2028 C.3     1  UNL1        0.0791
     24 H           0.8975    1.3877   -0.0561 H       1  UNL1        0.0660
     25 H           0.3926   -0.2045   -0.7473 H       1  UNL1        0.0660
     26 H           0.5646    0.0222    1.0009 H       1  UNL1        0.0660
     27 H           1.7867    1.5897   -1.9392 H       1  UNL1        0.0661
     28 H           3.5717    2.2563   -5.2272 H       1  UNL1        0.0625
     29 H           1.1457    2.8053   -3.4077 H       1  UNL1        0.0670
     30 H           0.7085    6.6768   -5.8975 H       1  UNL1        0.0473
     31 H          -0.1163    5.3114   -6.6596 H       1  UNL1        0.0473
     32 H          -1.6771    7.1556   -5.9232 H       1  UNL1        0.0323
     33 H          -2.0805    5.5782   -5.2302 H       1  UNL1        0.0323
     34 H          -1.9262    7.6810   -3.5283 H       1  UNL1        0.0574
     35 H          -0.1396    6.9130   -2.0182 H       1  UNL1        0.0666
     36 H           5.0570    0.5093   -4.4728 H       1  UNL1        0.0661
     37 H           6.9435   -0.7315   -4.5325 H       1  UNL1        0.0660
     38 H           7.2964    0.3199   -3.1089 H       1  UNL1        0.0660
     39 H           8.0281   -1.2839   -3.2526 H       1  UNL1        0.0660
     40 H           3.4289   -1.9157    1.1039 H       1  UNL1        0.0660
     41 H           2.8601   -2.7559   -0.3951 H       1  UNL1        0.0660
     42 H           4.2266   -3.3740    0.5384 H       1  UNL1        0.0660
@<TRIPOS>BOND
     1     1    24    1
     2     1    25    1
     3     1    26    1
     4     2     1    1
     5     3     2    1
     6     4     3   ar
     7     4    27    1
     8     5     4   ar
     9     6     5    1
    10     6    28    1
    11     7     6    2
    12     7    29    1
    13     8     7    1
    14     9     8    2
    15    10     8   am
    16    11    10    1
    17    11    30    1
    18    11    31    1
    19    12    11    1
    20    12    32    1
    21    12    33    1
    22    13    12    1
    23    13    34    1
    24    14    13    2
    25    14    35    1
    26    15    14    1
    27    15    10   am
    28    16    15    2
    29    17     5   ar
    30    17    36    1
    31    18    17   ar
    32    19    18    1
    33    20    19    1
    34    20    37    1
    35    20    38    1
    36    20    39    1
    37    21    18   ar
    38    21     3   ar
    39    22    21    1
    40    23    22    1
    41    23    40    1
    42    23    41    1
    43    23    42    1
