@<TRIPOS>MOLECULE
mol_132_akc_s00436_021_07169_w
>130.sdf
 68 70 0 0 0
SMALL
GASTEIGER

@<TRIPOS>ATOM
      1 C           3.7151    8.6980   -6.8343 C.3     1  UNL1        0.0790
      2 O           3.8358    9.8930   -6.0720 O.3     1  UNL1       -0.4913
      3 C           3.1844    9.9356   -4.8644 C.ar    1  UNL1        0.1657
      4 C           2.8577    8.7696   -4.1435 C.ar    1  UNL1       -0.0089
      5 C           2.2677    8.8357   -2.8771 C.ar    1  UNL1       -0.0177
      6 C           1.8849    7.6035   -2.1605 C.2     1  UNL1       -0.0494
      7 C           1.9144    7.5110   -0.8211 C.2     1  UNL1        0.0014
      8 C           1.2729    6.3628   -0.1245 C.2     1  UNL1        0.2471
      9 O           1.7528    5.2574   -0.3818 O.2     1  UNL1       -0.2702
     10 N           0.1920    6.6266    0.7578 N.am    1  UNL1       -0.2194
     11 C          -0.4426    5.4676    1.5195 C.3     1  UNL1        0.0354
     12 C           0.2592    4.0840    1.3994 C.3     1  UNL1       -0.0338
     13 C          -0.4149    2.9493    2.1717 C.3     1  UNL1       -0.0514
     14 C          -1.8796    2.8178    1.7848 C.3     1  UNL1       -0.0529
     15 C          -2.5913    4.1419    2.0070 C.3     1  UNL1       -0.0514
     16 C          -1.9479    5.2641    1.1836 C.3     1  UNL1       -0.0338
     17 C          -0.2845    7.9383    0.9003 C.2     1  UNL1        0.3092
     18 O           0.1341    8.9115    0.2623 O.2     1  UNL1       -0.2522
     19 N          -1.3161    8.1845    1.7703 N.am    1  UNL1       -0.2961
     20 C          -2.0569    9.4488    1.6850 C.3     1  UNL1        0.0246
     21 C          -2.7531    9.7840    3.0038 C.3     1  UNL1       -0.0345
     22 C          -3.5476   11.0853    2.8957 C.3     1  UNL1       -0.0514
     23 C          -4.5609   11.0304    1.7562 C.3     1  UNL1       -0.0529
     24 C          -3.8879   10.6963    0.4288 C.3     1  UNL1       -0.0514
     25 C          -3.0650    9.4119    0.5198 C.3     1  UNL1       -0.0345
     26 C           1.9758   10.0962   -2.3461 C.ar    1  UNL1       -0.0089
     27 C           2.3315   11.2673   -3.0199 C.ar    1  UNL1        0.1657
     28 O           2.0817   12.5172   -2.4992 O.3     1  UNL1       -0.4913
     29 C           2.1712   12.6037   -1.0788 C.3     1  UNL1        0.0790
     30 C           2.9182   11.1994   -4.2978 C.ar    1  UNL1        0.2035
     31 O           3.2450   12.4184   -4.8438 O.3     1  UNL1       -0.4885
     32 C           3.1975   12.5445   -6.2570 C.3     1  UNL1        0.0791
     33 H           4.2142    7.8555   -6.3466 H       1  UNL1        0.0660
     34 H           2.6642    8.4722   -7.0438 H       1  UNL1        0.0660
     35 H           4.2222    8.8603   -7.7902 H       1  UNL1        0.0660
     36 H           3.0843    7.7859   -4.5420 H       1  UNL1        0.0661
     37 H           1.5064    6.7845   -2.7658 H       1  UNL1        0.0625
     38 H           2.3086    8.2975   -0.1884 H       1  UNL1        0.0670
     39 H          -0.3712    5.7596    2.5764 H       1  UNL1        0.0506
     40 H           0.2594    3.7672    0.3488 H       1  UNL1        0.0283
     41 H           1.2988    4.1568    1.7389 H       1  UNL1        0.0283
     42 H           0.1018    2.0053    1.9582 H       1  UNL1        0.0266
     43 H          -0.3265    3.1266    3.2490 H       1  UNL1        0.0266
     44 H          -1.9656    2.5271    0.7298 H       1  UNL1        0.0265
     45 H          -2.3556    2.0256    2.3740 H       1  UNL1        0.0265
     46 H          -3.6477    4.0416    1.7347 H       1  UNL1        0.0266
     47 H          -2.5621    4.3967    3.0745 H       1  UNL1        0.0266
     48 H          -2.5445    6.1588    1.3649 H       1  UNL1        0.0283
     49 H          -2.0564    5.0485    0.1147 H       1  UNL1        0.0283
     50 H          -1.6000    7.5097    2.4618 H       1  UNL1        0.1505
     51 H          -1.3353   10.2519    1.4789 H       1  UNL1        0.0499
     52 H          -3.4243    8.9659    3.2927 H       1  UNL1        0.0283
     53 H          -2.0071    9.8776    3.8018 H       1  UNL1        0.0283
     54 H          -4.0649   11.2823    3.8407 H       1  UNL1        0.0266
     55 H          -2.8587   11.9230    2.7275 H       1  UNL1        0.0266
     56 H          -5.3226   10.2735    1.9803 H       1  UNL1        0.0265
     57 H          -5.0804   11.9922    1.6749 H       1  UNL1        0.0265
     58 H          -4.6485   10.5942   -0.3540 H       1  UNL1        0.0266
     59 H          -3.2367   11.5277    0.1309 H       1  UNL1        0.0266
     60 H          -2.5434    9.2565   -0.4326 H       1  UNL1        0.0283
     61 H          -3.7412    8.5565    0.6432 H       1  UNL1        0.0283
     62 H           1.4433   10.1628   -1.4032 H       1  UNL1        0.0661
     63 H           1.2592   12.2230   -0.6069 H       1  UNL1        0.0660
     64 H           3.0568   12.0836   -0.6953 H       1  UNL1        0.0660
     65 H           2.2651   13.6603   -0.8115 H       1  UNL1        0.0660
     66 H           4.1235   12.1809   -6.7107 H       1  UNL1        0.0660
     67 H           2.3166   12.0586   -6.6891 H       1  UNL1        0.0660
     68 H           3.1314   13.6127   -6.4901 H       1  UNL1        0.0660
@<TRIPOS>BOND
     1     1    33    1
     2     1    34    1
     3     1    35    1
     4     2     1    1
     5     3     2    1
     6     4     3   ar
     7     4    36    1
     8     5     4   ar
     9     6     5    1
    10     6    37    1
    11     7     6    2
    12     7    38    1
    13     8     7    1
    14     9     8    2
    15    10     8   am
    16    11    10    1
    17    11    39    1
    18    12    11    1
    19    12    40    1
    20    12    41    1
    21    13    12    1
    22    13    42    1
    23    13    43    1
    24    14    13    1
    25    14    44    1
    26    14    45    1
    27    15    14    1
    28    15    46    1
    29    15    47    1
    30    16    15    1
    31    16    11    1
    32    16    48    1
    33    16    49    1
    34    17    10   am
    35    18    17    2
    36    19    17   am
    37    19    50    1
    38    20    19    1
    39    20    51    1
    40    21    20    1
    41    21    52    1
    42    21    53    1
    43    22    21    1
    44    22    54    1
    45    22    55    1
    46    23    22    1
    47    23    56    1
    48    23    57    1
    49    24    23    1
    50    24    58    1
    51    24    59    1
    52    25    24    1
    53    25    20    1
    54    25    60    1
    55    25    61    1
    56    26     5   ar
    57    26    62    1
    58    27    26   ar
    59    28    27    1
    60    29    28    1
    61    29    63    1
    62    29    64    1
    63    29    65    1
    64    30    27   ar
    65    30     3   ar
    66    31    30    1
    67    32    31    1
    68    32    66    1
    69    32    67    1
    70    32    68    1
