@<TRIPOS>MOLECULE
mol_133_akc_acsjmedchem1c00047
>131.sdf
 53 57 0 0 0
SMALL
GASTEIGER

@<TRIPOS>ATOM
      1 F           2.0762   -0.1594    0.0175 F       1  UNL1       -0.2048
      2 C           0.7437   -0.0162    0.0437 C.ar    1  UNL1        0.1327
      3 C           0.1484    1.2429    0.0843 C.ar    1  UNL1        0.0374
      4 C          -1.2466    1.3471    0.1351 C.ar    1  UNL1       -0.0285
      5 C          -2.0491    0.2040    0.1079 C.ar    1  UNL1        0.0356
      6 N          -3.4587    0.2481    0.0965 N.am    1  UNL1       -0.2693
      7 C          -4.2448    1.3521   -0.1340 C.2     1  UNL1        0.3064
      8 O          -3.8215    2.4742   -0.3992 O.2     1  UNL1       -0.2523
      9 N          -5.6044    1.1224   -0.0808 N.am    1  UNL1       -0.2854
     10 C          -6.3340   -0.0926    0.2246 C.3     1  UNL1        0.0162
     11 C          -7.6924    0.1394   -0.4170 C.3     1  UNL1       -0.0357
     12 C          -7.9159    1.6360   -0.2420 C.3     1  UNL1       -0.0357
     13 C          -6.5150    2.2352   -0.2958 C.3     1  UNL1        0.0162
     14 C          -1.4358   -1.0544    0.0794 C.ar    1  UNL1       -0.0377
     15 C          -0.0421   -1.1658    0.0438 C.ar    1  UNL1       -0.0240
     16 C           0.9340    2.5009    0.0664 C.ar    1  UNL1        0.0790
     17 N           0.5377    3.5083    0.7900 N.ar    1  UNL1       -0.2117
     18 C           1.2563    4.6670    0.7013 C.ar    1  UNL1        0.2367
     19 N           1.0118    5.8340    1.2616 N.ar    1  UNL1       -0.2168
     20 C           2.0167    6.6681    0.8430 C.ar    1  UNL1        0.0700
     21 C           2.9345    6.0091    0.0491 C.ar    1  UNL1        0.1269
     22 N           2.3925    4.7392   -0.1002 N.ar    1  UNL1       -0.2719
     23 C           2.7830    3.6762   -0.9066 C.ar    1  UNL1        0.0164
     24 C           2.1072    2.5241   -0.8683 C.ar    1  UNL1       -0.0189
     25 N           4.0715    6.4108   -0.5945 N.pl3   1  UNL1       -0.3106
     26 C           4.3297    7.8376   -0.8523 C.3     1  UNL1        0.0370
     27 C           5.1821    7.9426   -2.1339 C.3     1  UNL1        0.0634
     28 O           6.3962    7.1688   -2.0491 O.3     1  UNL1       -0.3767
     29 C           6.1055    5.7890   -1.7615 C.3     1  UNL1        0.0634
     30 C           5.3320    5.6603   -0.4406 C.3     1  UNL1        0.0370
     31 H          -1.6824    2.3413    0.1880 H       1  UNL1        0.0643
     32 H          -3.9317   -0.6391    0.1271 H       1  UNL1        0.1564
     33 H          -6.4119   -0.1671    1.3143 H       1  UNL1        0.0465
     34 H          -5.8461   -0.9878   -0.1659 H       1  UNL1        0.0465
     35 H          -7.6427   -0.1021   -1.4850 H       1  UNL1        0.0281
     36 H          -8.4826   -0.4650    0.0354 H       1  UNL1        0.0281
     37 H          -8.5670    2.0525   -1.0153 H       1  UNL1        0.0281
     38 H          -8.3746    1.8401    0.7304 H       1  UNL1        0.0281
     39 H          -6.3001    2.6964   -1.2661 H       1  UNL1        0.0465
     40 H          -6.3679    2.9837    0.4880 H       1  UNL1        0.0465
     41 H          -2.0305   -1.9639    0.0661 H       1  UNL1        0.0637
     42 H           0.4346   -2.1396    0.0138 H       1  UNL1        0.0647
     43 H           2.0378    7.7030    1.1569 H       1  UNL1        0.0865
     44 H           3.6231    3.8283   -1.5670 H       1  UNL1        0.0815
     45 H           2.3604    1.6755   -1.4883 H       1  UNL1        0.0654
     46 H           4.8748    8.2691   -0.0037 H       1  UNL1        0.0487
     47 H           3.4011    8.4023   -0.9909 H       1  UNL1        0.0487
     48 H           4.6099    7.5987   -3.0042 H       1  UNL1        0.0575
     49 H           5.4670    8.9842   -2.3095 H       1  UNL1        0.0575
     50 H           7.0537    5.2480   -1.6992 H       1  UNL1        0.0575
     51 H           5.5291    5.3647   -2.5946 H       1  UNL1        0.0575
     52 H           5.9156    6.1015    0.3773 H       1  UNL1        0.0487
     53 H           5.1808    4.6066   -0.1926 H       1  UNL1        0.0487
@<TRIPOS>BOND
     1     2     1    1
     2     3     2   ar
     3     4     3   ar
     4     4    31    1
     5     5     4   ar
     6     6     5    1
     7     6    32    1
     8     7     6   am
     9     8     7    2
    10     9     7   am
    11    10     9    1
    12    10    33    1
    13    10    34    1
    14    11    10    1
    15    11    35    1
    16    11    36    1
    17    12    11    1
    18    12    37    1
    19    12    38    1
    20    13    12    1
    21    13     9    1
    22    13    39    1
    23    13    40    1
    24    14     5   ar
    25    14    41    1
    26    15    14   ar
    27    15     2   ar
    28    15    42    1
    29    16     3    1
    30    17    16   ar
    31    18    17   ar
    32    19    18   ar
    33    20    19   ar
    34    20    43    1
    35    21    20   ar
    36    22    21   ar
    37    22    18   ar
    38    23    22   ar
    39    23    44    1
    40    24    23   ar
    41    24    16   ar
    42    24    45    1
    43    25    21    1
    44    26    25    1
    45    26    46    1
    46    26    47    1
    47    27    26    1
    48    27    48    1
    49    27    49    1
    50    28    27    1
    51    29    28    1
    52    29    50    1
    53    29    51    1
    54    30    29    1
    55    30    25    1
    56    30    52    1
    57    30    53    1
