@<TRIPOS>MOLECULE
mol_135_akc_jbioorg2021104816
>132_2.sdf
 56 60 0 0 0
SMALL
GASTEIGER

@<TRIPOS>ATOM
      1 O           0.8703    2.1179   -0.6225 O.3     1  UNL1       -0.3869
      2 C           2.2987    2.1238   -0.7675 C.3     1  UNL1        0.1052
      3 C           2.6611    1.4328   -2.0875 C.3     1  UNL1        0.1169
      4 O           2.0603    2.0623   -3.2265 O.3     1  UNL1       -0.4884
      5 C           2.3658    1.4818   -4.4494 C.ar    1  UNL1        0.1380
      6 C           3.1732    0.4259   -4.6364 C.ar    1  UNL1        0.0652
      7 C           3.4959   -0.1204   -5.9591 C.ar    1  UNL1        0.3408
      8 O           4.2055   -1.1154   -6.0522 O.2     1  UNL1       -0.2451
      9 O           2.9934    0.5433   -7.0578 O.2     1  UNL1       -0.4219
     10 C           2.1130    1.6291   -6.8965 C.ar    1  UNL1        0.1426
     11 C           1.6072    2.1881   -8.0713 C.ar    1  UNL1       -0.0185
     12 C           0.6976    3.2379   -7.9834 C.ar    1  UNL1       -0.0582
     13 C           0.3035    3.7114   -6.7318 C.ar    1  UNL1       -0.0609
     14 C           0.8293    3.1485   -5.5612 C.ar    1  UNL1       -0.0476
     15 C           1.7566    2.1028   -5.6321 C.ar    1  UNL1        0.0592
     16 C           2.9669    1.3725    0.4159 C.3     1  UNL1        0.0494
     17 N           4.4142    1.3748    0.4014 N.am    1  UNL1       -0.2629
     18 C           5.1608    2.5434    0.4676 C.2     1  UNL1        0.2714
     19 O           4.8058    3.7011    0.5015 O.2     1  UNL1       -0.2679
     20 C           6.6186    2.1044    0.4893 C.2     1  UNL1        0.1527
     21 N           7.6840    2.8327    0.5428 N.2     1  UNL1       -0.1743
     22 N           7.5370    4.1915    0.5781 N.am    1  UNL1       -0.2023
     23 C           8.6797    4.9753    0.6159 C.2     1  UNL1        0.2634
     24 O           9.8306    4.5309    0.6092 O.2     1  UNL1       -0.2684
     25 C           8.4953    6.4494    0.6424 C.ar    1  UNL1        0.0412
     26 C           7.3721    7.0641    1.1931 C.ar    1  UNL1       -0.0314
     27 C           7.3378    8.4497    1.2049 C.ar    1  UNL1        0.0283
     28 N           8.3204    9.2348    0.7119 N.ar    1  UNL1       -0.2632
     29 C           9.3996    8.6131    0.1936 C.ar    1  UNL1        0.0283
     30 C           9.5339    7.2395    0.1402 C.ar    1  UNL1       -0.0314
     31 C           6.6054    0.6511    0.4513 C.ar    1  UNL1        0.0284
     32 C           7.6759   -0.2239    0.4557 C.ar    1  UNL1       -0.0506
     33 C           7.3803   -1.5838    0.4480 C.ar    1  UNL1       -0.0610
     34 C           6.0412   -2.0196    0.4372 C.ar    1  UNL1       -0.0600
     35 C           4.9697   -1.1049    0.4198 C.ar    1  UNL1       -0.0396
     36 C           5.2670    0.2465    0.4229 C.ar    1  UNL1        0.0461
     37 H           0.6268    1.8723    0.2847 H       1  UNL1        0.2100
     38 H           2.6117    3.1733   -0.8022 H       1  UNL1        0.0643
     39 H           3.7499    1.4646   -2.2065 H       1  UNL1        0.0723
     40 H           2.3091    0.3950   -2.0382 H       1  UNL1        0.0723
     41 H           3.6571   -0.1037   -3.8319 H       1  UNL1        0.0726
     42 H           1.9150    1.8031   -9.0379 H       1  UNL1        0.0654
     43 H           0.2931    3.6815   -8.8892 H       1  UNL1        0.0619
     44 H          -0.4173    4.5230   -6.6636 H       1  UNL1        0.0618
     45 H           0.5071    3.5361   -4.5981 H       1  UNL1        0.0626
     46 H           2.6529    1.8570    1.3492 H       1  UNL1        0.0495
     47 H           2.5810    0.3476    0.4629 H       1  UNL1        0.0495
     48 H           6.6011    4.5889    0.4970 H       1  UNL1        0.1776
     49 H           6.5576    6.5056    1.6374 H       1  UNL1        0.0640
     50 H           6.4977    8.9875    1.6367 H       1  UNL1        0.0830
     51 H          10.1811    9.2674   -0.1831 H       1  UNL1        0.0830
     52 H          10.4309    6.7915   -0.2764 H       1  UNL1        0.0640
     53 H           8.6994    0.1396    0.4650 H       1  UNL1        0.0625
     54 H           8.1895   -2.3127    0.4537 H       1  UNL1        0.0618
     55 H           5.8423   -3.0913    0.4406 H       1  UNL1        0.0618
     56 H           3.9550   -1.4851    0.4120 H       1  UNL1        0.0636
@<TRIPOS>BOND
     1     1    37    1
     2     3     2    1
     3     3    39    1
     4     3    40    1
     5     4     3    1
     6     5     4    1
     7     6     5   ar
     8     6    41    1
     9     7     6   ar
    10     8     7    2
    11     9     7   ar
    12    10     9   ar
    13    11    10   ar
    14    11    42    1
    15    12    11   ar
    16    12    43    1
    17    13    12   ar
    18    13    44    1
    19    14    13   ar
    20    14    45    1
    21    15    14   ar
    22    15     5   ar
    23    15    10   ar
    24    16     2    1
    25    16    46    1
    26    16    47    1
    27    17    16    1
    28    18    17   am
    29    19    18    2
    30    20    18    1
    31    21    20    2
    32    22    21    1
    33    22    48    1
    34    23    22   am
    35    24    23    2
    36    25    23    1
    37    26    25   ar
    38    26    49    1
    39    27    26   ar
    40    27    50    1
    41    28    27   ar
    42    29    28   ar
    43    29    51    1
    44    30    29   ar
    45    30    25   ar
    46    30    52    1
    47    31    20    1
    48    32    31   ar
    49    32    53    1
    50    33    32   ar
    51    33    54    1
    52    34    33   ar
    53    34    55    1
    54    35    34   ar
    55    35    56    1
    56    36    35   ar
    57    36    17    1
    58    36    31   ar
    59     2    38    1
    60     2     1    1
