@<TRIPOS>MOLECULE
mol_136_akc_jhet4217
>133.sdf
 34 36 0 0 0
SMALL
GASTEIGER

@<TRIPOS>ATOM
      1 O           3.3098    1.0437    0.2702 O.3     1  UNL1       -0.4771
      2 C           2.4954   -0.0228    0.1071 C.2     1  UNL1        0.3375
      3 O           1.2889    0.0925   -0.0114 O.2     1  UNL1       -0.2451
      4 C           3.2171   -1.3271    0.0912 C.ar    1  UNL1        0.0700
      5 C           4.2999   -1.4806    0.9635 C.ar    1  UNL1       -0.0217
      6 C           4.9884   -2.6810    0.9589 C.ar    1  UNL1        0.0654
      7 C           6.1499   -2.8543    1.8446 C.2     1  UNL1       -0.0357
      8 C           6.9095   -3.9609    1.8949 C.2     1  UNL1       -0.0512
      9 C           8.0157   -4.0868    2.8546 C.ar    1  UNL1       -0.0066
     10 C           9.3436   -3.7346    2.5640 C.ar    1  UNL1        0.0481
     11 CL          9.7978   -3.0764    1.0306 Cl      1  UNL1       -0.0829
     12 C          10.3457   -3.9019    3.5260 C.ar    1  UNL1       -0.0428
     13 C          10.0321   -4.4069    4.7886 C.ar    1  UNL1       -0.0603
     14 C           8.7155   -4.7448    5.0919 C.ar    1  UNL1       -0.0611
     15 C           7.7143   -4.5875    4.1307 C.ar    1  UNL1       -0.0532
     16 N           4.6300   -3.7124    0.1645 N.ar    1  UNL1       -0.2472
     17 C           3.5663   -3.5834   -0.6471 C.ar    1  UNL1        0.0724
     18 C           3.2121   -4.6728   -1.4325 C.ar    1  UNL1       -0.0357
     19 C           2.1369   -4.6334   -2.3220 C.ar    1  UNL1       -0.0597
     20 C           1.3893   -3.4735   -2.4383 C.ar    1  UNL1       -0.0611
     21 C           1.7212   -2.3628   -1.6612 C.ar    1  UNL1       -0.0518
     22 C           2.8104   -2.3950   -0.7438 C.ar    1  UNL1        0.0144
     23 H           4.5893   -0.6963    1.6523 H       1  UNL1        0.0647
     24 H           6.3862   -2.0167    2.4949 H       1  UNL1        0.0639
     25 H           6.7186   -4.8216    1.2590 H       1  UNL1        0.0625
     26 H          11.3765   -3.6385    3.2986 H       1  UNL1        0.0632
     27 H          10.8138   -4.5411    5.5326 H       1  UNL1        0.0618
     28 H           8.4651   -5.1358    6.0754 H       1  UNL1        0.0618
     29 H           6.6911   -4.8623    4.3830 H       1  UNL1        0.0624
     30 H           3.7965   -5.5871   -1.3505 H       1  UNL1        0.0639
     31 H           1.8915   -5.5082   -2.9201 H       1  UNL1        0.0618
     32 H           0.5497   -3.4262   -3.1274 H       1  UNL1        0.0618
     33 H           1.1127   -1.4682   -1.7781 H       1  UNL1        0.0624
     34 H           4.2673    0.8701    0.2054 H       1  UNL1        0.2954
@<TRIPOS>BOND
     1     2     1    1
     2     3     2    2
     3     4     2    1
     4     5     4   ar
     5     5    23    1
     6     6     5   ar
     7     7     6    1
     8     7    24    1
     9     8     7    2
    10     8    25    1
    11     9     8    1
    12    10     9   ar
    13    11    10    1
    14    12    10   ar
    15    12    26    1
    16    13    12   ar
    17    13    27    1
    18    14    13   ar
    19    14    28    1
    20    15    14   ar
    21    15     9   ar
    22    15    29    1
    23    16     6   ar
    24    17    16   ar
    25    18    17   ar
    26    18    30    1
    27    19    18   ar
    28    19    31    1
    29    20    19   ar
    30    20    32    1
    31    21    20   ar
    32    21    33    1
    33    22    21   ar
    34    22     4   ar
    35    22    17   ar
    36     1    34    1
