@<TRIPOS>MOLECULE
mol_137_akc_jhet4217
>134.sdf
 34 36 0 0 0
SMALL
GASTEIGER

@<TRIPOS>ATOM
      1 O           3.2492   -0.7207   -0.7167 O.3     1  UNL1       -0.4771
      2 C           2.4380   -0.0488    0.1315 C.2     1  UNL1        0.3375
      3 O           1.2456   -0.2811    0.2179 O.2     1  UNL1       -0.2451
      4 C           3.1425    0.9943    0.9230 C.ar    1  UNL1        0.0700
      5 C           4.1156    1.7575    0.2729 C.ar    1  UNL1       -0.0217
      6 C           4.7763    2.7336    0.9918 C.ar    1  UNL1        0.0654
      7 C           5.8342    3.5165    0.3401 C.2     1  UNL1       -0.0357
      8 C           6.5239    4.5039    0.9339 C.2     1  UNL1       -0.0526
      9 C           7.5841    5.2756    0.2598 C.ar    1  UNL1       -0.0249
     10 C           7.5622    5.5298   -1.1183 C.ar    1  UNL1       -0.0532
     11 C           8.5783    6.2817   -1.7201 C.ar    1  UNL1       -0.0428
     12 C           9.6069    6.8008   -0.9418 C.ar    1  UNL1        0.0410
     13 CL         10.8542    7.7266   -1.6832 Cl      1  UNL1       -0.0835
     14 C           9.6338    6.5755    0.4323 C.ar    1  UNL1       -0.0428
     15 C           8.6195    5.8186    1.0312 C.ar    1  UNL1       -0.0532
     16 N           4.4953    2.9962    2.2824 N.ar    1  UNL1       -0.2472
     17 C           3.5356    2.2916    2.9041 C.ar    1  UNL1        0.0724
     18 C           3.2550    2.6093    4.2262 C.ar    1  UNL1       -0.0357
     19 C           2.2849    1.9280    4.9627 C.ar    1  UNL1       -0.0597
     20 C           1.5759    0.8960    4.3674 C.ar    1  UNL1       -0.0611
     21 C           1.8379    0.5584    3.0402 C.ar    1  UNL1       -0.0518
     22 C           2.8142    1.2532    2.2779 C.ar    1  UNL1        0.0144
     23 H           4.3358    1.6114   -0.7790 H       1  UNL1        0.0647
     24 H           6.0503    3.2403   -0.6867 H       1  UNL1        0.0639
     25 H           6.3306    4.7600    1.9727 H       1  UNL1        0.0624
     26 H           6.7571    5.1632   -1.7493 H       1  UNL1        0.0624
     27 H           8.5487    6.4630   -2.7910 H       1  UNL1        0.0632
     28 H          10.4330    6.9851    1.0425 H       1  UNL1        0.0632
     29 H           8.6552    5.6524    2.1068 H       1  UNL1        0.0624
     30 H           3.8086    3.4176    4.7007 H       1  UNL1        0.0639
     31 H           2.0897    2.2057    5.9951 H       1  UNL1        0.0618
     32 H           0.8170    0.3564    4.9289 H       1  UNL1        0.0618
     33 H           1.2596   -0.2539    2.6030 H       1  UNL1        0.0624
     34 H           4.2061   -0.5716   -0.6073 H       1  UNL1        0.2954
@<TRIPOS>BOND
     1     2     1    1
     2     3     2    2
     3     4     2    1
     4     5     4   ar
     5     5    23    1
     6     6     5   ar
     7     7     6    1
     8     7    24    1
     9     8     7    2
    10     8    25    1
    11     9     8    1
    12    10     9   ar
    13    10    26    1
    14    11    10   ar
    15    11    27    1
    16    12    11   ar
    17    13    12    1
    18    14    12   ar
    19    14    28    1
    20    15    14   ar
    21    15     9   ar
    22    15    29    1
    23    16     6   ar
    24    17    16   ar
    25    18    17   ar
    26    18    30    1
    27    19    18   ar
    28    19    31    1
    29    20    19   ar
    30    20    32    1
    31    21    20   ar
    32    21    33    1
    33    22    21   ar
    34    22     4   ar
    35    22    17   ar
    36     1    34    1
