@<TRIPOS>MOLECULE
mol_138_akc_jejmech2020113101
>135.sdf
 31 33 0 0 0
SMALL
GASTEIGER

@<TRIPOS>ATOM
      1 O           1.1174   -0.2998   -0.6798 O.3     1  UNL1       -0.3924
      2 C           2.2839   -0.2402    0.1365 C.3     1  UNL1        0.0729
      3 C           3.2002   -1.4251   -0.1774 C.3     1  UNL1        0.1109
      4 O           4.3577   -1.3924    0.6728 O.3     1  UNL1       -0.3595
      5 C           4.1791   -2.3605    1.7454 C.3     1  UNL1        0.1330
      6 C           2.8233   -3.0554    1.5197 C.3     1  UNL1        0.1153
      7 O           2.8368   -4.4624    1.7801 O.3     1  UNL1       -0.3862
      8 C           2.5258   -2.7720    0.0570 C.3     1  UNL1        0.1120
      9 O           3.1313   -3.8089   -0.7388 O.3     1  UNL1       -0.3865
     10 C           4.2548   -1.6854    3.0879 C.ar    1  UNL1        0.1201
     11 N           3.3455   -0.7521    3.4604 N.ar    1  UNL1       -0.1732
     12 N           3.7365   -0.3836    4.7020 N.ar    1  UNL1       -0.2701
     13 C           4.8500   -1.0325    5.1209 C.ar    1  UNL1        0.1487
     14 C           5.2045   -1.8711    4.1088 C.ar    1  UNL1        0.1210
     15 N           6.3225   -2.7074    4.1745 N.ar    1  UNL1       -0.2337
     16 C           6.9742   -2.5904    5.2923 C.ar    1  UNL1        0.0968
     17 N           6.6590   -1.7592    6.3486 N.ar    1  UNL1       -0.3117
     18 C           5.5666   -0.9198    6.3385 C.ar    1  UNL1        0.2768
     19 O           5.2740   -0.1837    7.2674 O.2     1  UNL1       -0.2655
     20 H           0.3477   -0.2552   -0.0849 H       1  UNL1        0.2095
     21 H           2.8054    0.7014   -0.0681 H       1  UNL1        0.0584
     22 H           1.9869   -0.2147    1.1887 H       1  UNL1        0.0584
     23 H           3.5443   -1.3446   -1.2148 H       1  UNL1        0.0646
     24 H           5.0001   -3.0822    1.6537 H       1  UNL1        0.0690
     25 H           2.0385   -2.6184    2.1457 H       1  UNL1        0.0650
     26 H           2.9362   -4.8850    0.9005 H       1  UNL1        0.2100
     27 H           1.4540   -2.7909   -0.1604 H       1  UNL1        0.0647
     28 H           3.0527   -3.5274   -1.6699 H       1  UNL1        0.2100
     29 H           3.1969    0.3156    5.2004 H       1  UNL1        0.1892
     30 H           7.8805   -3.1910    5.4739 H       1  UNL1        0.1028
     31 H           7.2289   -1.7404    7.1807 H       1  UNL1        0.1698
@<TRIPOS>BOND
     1     1    20    1
     2     2     1    1
     3     2    21    1
     4     2    22    1
     5     3     2    1
     6     3    23    1
     7     4     3    1
     8     5     4    1
     9     5    24    1
    10     6     5    1
    11     6    25    1
    12     7     6    1
    13     7    26    1
    14     8     6    1
    15     8     3    1
    16     8    27    1
    17     9     8    1
    18     9    28    1
    19    10     5    1
    20    11    10   ar
    21    12    11   ar
    22    12    29    1
    23    13    12   ar
    24    14    13   ar
    25    14    10   ar
    26    15    14   ar
    27    16    15   ar
    28    16    30    1
    29    17    16   ar
    30    17    31    1
    31    18    17   ar
    32    18    13   ar
    33    19    18    2
