@<TRIPOS>MOLECULE
mol_139_akc_jjddst2020101988
>136.sdf
 50 51 0 0 0
SMALL
GASTEIGER

@<TRIPOS>ATOM
      1 C           5.0094   -2.9552   -0.0873 C.3     1  UNL1       -0.0408
      2 N           4.4222   -1.5346   -0.0856 N.4     1  UNL1        0.2460
      3 C           5.0163   -0.7626   -1.2617 C.3     1  UNL1       -0.0408
      4 C           2.8790   -1.5727   -0.1380 C.3     1  UNL1        0.0208
      5 I           2.0541   -2.5555   -1.8221 I       1  UNL1       -0.0277
      6 C           4.8781   -0.8953    1.2479 C.3     1  UNL1       -0.0299
      7 C           4.4209    0.5544    1.4542 C.3     1  UNL1       -0.0122
      8 C           4.9688    1.1533    2.7620 C.3     1  UNL1       -0.0448
      9 C           6.4983    1.2099    2.7596 C.3     1  UNL1       -0.0337
     10 C           7.1086    1.7519    4.0170 C.2     1  UNL1       -0.0757
     11 C           8.4436    1.8141    4.2246 C.2     1  UNL1       -0.0147
     12 C           9.3899    1.3883    3.1697 C.ar    1  UNL1       -0.0176
     13 C           9.8103    2.2949    2.1883 C.ar    1  UNL1       -0.0540
     14 C          10.7279    1.9001    1.2131 C.ar    1  UNL1       -0.0612
     15 C          11.2297    0.5990    1.2129 C.ar    1  UNL1       -0.0617
     16 C          10.8138   -0.3100    2.1849 C.ar    1  UNL1       -0.0612
     17 C           9.8960    0.0821    3.1605 C.ar    1  UNL1       -0.0540
     18 C           8.9201    2.2862    5.5374 C.ar    1  UNL1       -0.0176
     19 C           9.1311    1.3704    6.5758 C.ar    1  UNL1       -0.0540
     20 C           9.6821    1.7972    7.7846 C.ar    1  UNL1       -0.0612
     21 C          10.0164    3.1388    7.9600 C.ar    1  UNL1       -0.0617
     22 C           9.7881    4.0584    6.9368 C.ar    1  UNL1       -0.0612
     23 C           9.2383    3.6344    5.7263 C.ar    1  UNL1       -0.0540
     24 H           4.8138   -3.4342   -1.0481 H       1  UNL1        0.0778
     25 H           6.0923   -2.8791    0.0584 H       1  UNL1        0.0778
     26 H           4.5548   -3.5176    0.7336 H       1  UNL1        0.0778
     27 H           4.8817   -1.3418   -2.1783 H       1  UNL1        0.0778
     28 H           4.5089    0.2013   -1.3468 H       1  UNL1        0.0778
     29 H           6.0859   -0.6211   -1.0763 H       1  UNL1        0.0778
     30 H           2.5478   -2.0518    0.7901 H       1  UNL1        0.0930
     31 H           2.5355   -0.5345   -0.1331 H       1  UNL1        0.0930
     32 H           4.4984   -1.5319    2.0562 H       1  UNL1        0.0815
     33 H           5.9692   -0.9653    1.2392 H       1  UNL1        0.0815
     34 H           4.7420    1.1889    0.6217 H       1  UNL1        0.0317
     35 H           3.3283    0.6082    1.4997 H       1  UNL1        0.0317
     36 H           4.5647    2.1668    2.8806 H       1  UNL1        0.0270
     37 H           4.6077    0.5655    3.6148 H       1  UNL1        0.0270
     38 H           6.8867    0.1947    2.6362 H       1  UNL1        0.0308
     39 H           6.8221    1.8088    1.9006 H       1  UNL1        0.0308
     40 H           6.4335    2.0730    4.8091 H       1  UNL1        0.0578
     41 H           9.4427    3.3183    2.1933 H       1  UNL1        0.0624
     42 H          11.0697    2.6146    0.4682 H       1  UNL1        0.0618
     43 H          11.9639    0.3009    0.4681 H       1  UNL1        0.0618
     44 H          11.2249   -1.3163    2.1985 H       1  UNL1        0.0618
     45 H           9.5959   -0.6268    3.9277 H       1  UNL1        0.0624
     46 H           8.8941    0.3187    6.4413 H       1  UNL1        0.0624
     47 H           9.8669    1.0814    8.5808 H       1  UNL1        0.0618
     48 H          10.4660    3.4677    8.8940 H       1  UNL1        0.0618
     49 H          10.0548    5.1025    7.0750 H       1  UNL1        0.0618
     50 H           9.0839    4.3550    4.9276 H       1  UNL1        0.0624
@<TRIPOS>UNITY_ATOM_ATTR
2 1
charge 1
@<TRIPOS>BOND
     1     1    24    1
     2     1    25    1
     3     1    26    1
     4     2     1    1
     5     3     2    1
     6     3    27    1
     7     3    28    1
     8     3    29    1
     9     4     2    1
    10     4    30    1
    11     4    31    1
    12     5     4    1
    13     6     2    1
    14     6    32    1
    15     6    33    1
    16     7     6    1
    17     7    34    1
    18     7    35    1
    19     8     7    1
    20     8    36    1
    21     8    37    1
    22     9     8    1
    23     9    38    1
    24     9    39    1
    25    10     9    1
    26    10    40    1
    27    11    10    2
    28    12    11    1
    29    13    12   ar
    30    13    41    1
    31    14    13   ar
    32    14    42    1
    33    15    14   ar
    34    15    43    1
    35    16    15   ar
    36    16    44    1
    37    17    16   ar
    38    17    12   ar
    39    17    45    1
    40    18    11    1
    41    19    18   ar
    42    19    46    1
    43    20    19   ar
    44    20    47    1
    45    21    20   ar
    46    21    48    1
    47    22    21   ar
    48    22    49    1
    49    23    22   ar
    50    23    18   ar
    51    23    50    1
