@<TRIPOS>MOLECULE
mol_140_akc_fchem2020624678
>137.sdf
 30 31 0 0 0
SMALL
GASTEIGER

@<TRIPOS>ATOM
      1 BR         -1.3045    0.2114    1.8588 Br      1  UNL1       -0.0503
      2 C           0.4985    0.1168    1.3007 C.ar    1  UNL1        0.0179
      3 C           0.9811   -1.0517    0.7128 C.ar    1  UNL1       -0.0471
      4 C           2.3192   -1.1313    0.3087 C.ar    1  UNL1       -0.0499
      5 C           3.1787   -0.0422    0.5021 C.ar    1  UNL1        0.0217
      6 C           2.6715    1.1364    1.0727 C.ar    1  UNL1       -0.0499
      7 C           1.3360    1.2150    1.4769 C.ar    1  UNL1       -0.0471
      8 C           4.6247   -0.0619    0.1391 C.2     1  UNL1        0.1861
      9 O           5.2085    0.9921   -0.0951 O.2     1  UNL1       -0.2873
     10 C           5.3438   -1.3656    0.1298 C.2     1  UNL1       -0.0138
     11 C           6.6849   -1.3717    0.1214 C.2     1  UNL1       -0.0510
     12 C           7.4440   -2.6208    0.1133 C.ar    1  UNL1       -0.0248
     13 C           7.8334   -3.1866   -1.1054 C.ar    1  UNL1       -0.0524
     14 C           8.5519   -4.3846   -1.1333 C.ar    1  UNL1       -0.0309
     15 C           8.8815   -5.0187    0.0714 C.ar    1  UNL1        0.1262
     16 C           8.4968   -4.4600    1.2985 C.ar    1  UNL1       -0.0309
     17 C           7.7769   -3.2610    1.3154 C.ar    1  UNL1       -0.0524
     18 N           9.6352   -6.2787    0.0481 N.pl3   1  UNL1        0.0564
     19 O           9.9480   -6.7428   -1.0586 O.2     1  UNL1       -0.1261
     20 O           9.9084   -6.8076    1.1346 O.2     1  UNL1       -0.1261
     21 H           0.3236   -1.9048    0.5625 H       1  UNL1        0.0629
     22 H           2.6542   -2.0469   -0.1683 H       1  UNL1        0.0625
     23 H           3.3216    1.9989    1.2153 H       1  UNL1        0.0625
     24 H           0.9654    2.1323    1.9274 H       1  UNL1        0.0629
     25 H           4.7836   -2.2898    0.1567 H       1  UNL1        0.0656
     26 H           7.2652   -0.4512    0.1171 H       1  UNL1        0.0625
     27 H           7.5807   -2.6939   -2.0433 H       1  UNL1        0.0624
     28 H           8.8450   -4.8046   -2.0940 H       1  UNL1        0.0640
     29 H           8.7487   -4.9402    2.2417 H       1  UNL1        0.0640
     30 H           7.4827   -2.8278    2.2693 H       1  UNL1        0.0624
@<TRIPOS>BOND
     1     2     1    1
     2     3     2   ar
     3     3    21    1
     4     4     3   ar
     5     4    22    1
     6     5     4   ar
     7     6     5   ar
     8     6    23    1
     9     7     6   ar
    10     7     2   ar
    11     7    24    1
    12     8     5    1
    13     9     8    2
    14    10     8    1
    15    10    25    1
    16    11    10    2
    17    11    26    1
    18    12    11    1
    19    13    12   ar
    20    13    27    1
    21    14    13   ar
    22    14    28    1
    23    15    14   ar
    24    16    15   ar
    25    16    29    1
    26    17    16   ar
    27    17    12   ar
    28    17    30    1
    29    18    15    1
    30    19    18    2
    31    20    18    2
