@<TRIPOS>MOLECULE
mol_142_akc_1040663820212014532
>139.sdf
 47 50 0 0 0
SMALL
GASTEIGER

@<TRIPOS>ATOM
      1 O           6.6753    3.2481    0.0848 O.3     1  UNL1       -0.3940
      2 C           5.4370    3.6025   -0.5225 C.3     1  UNL1        0.0573
      3 C           4.2477    2.9134    0.1659 C.3     1  UNL1        0.0614
      4 C           4.2563    3.0963    1.7009 C.3     1  UNL1        0.0377
      5 N           4.1482    4.4778    2.1408 N.ar    1  UNL1       -0.3358
      6 C           2.9940    5.1474    2.4460 C.ar    1  UNL1        0.0240
      7 C           3.3882    6.4394    2.7015 C.ar    1  UNL1        0.0454
      8 N           4.7512    6.5521    2.6301 N.ar    1  UNL1       -0.2441
      9 C           5.1845    5.3494    2.3218 C.ar    1  UNL1        0.0959
     10 C           2.9184    3.3847   -0.4866 C.3     1  UNL1       -0.0121
     11 C           2.1855    2.1237   -0.8086 C.ar    1  UNL1       -0.0374
     12 C           2.9744    0.9852   -0.6783 C.ar    1  UNL1        0.0033
     13 C           2.4668   -0.2725   -0.9644 C.ar    1  UNL1       -0.0525
     14 C           1.1435   -0.3781   -1.3958 C.ar    1  UNL1       -0.0611
     15 C           0.3432    0.7665   -1.5248 C.ar    1  UNL1       -0.0615
     16 C           0.8665    2.0269   -1.2322 C.ar    1  UNL1       -0.0579
     17 C           4.2824    1.4091   -0.1573 C.2     1  UNL1        0.0977
     18 N           5.3597    0.7093    0.0523 N.2     1  UNL1       -0.0880
     19 O           5.2406   -0.5894   -0.4525 O.2     1  UNL1       -0.3887
     20 C           6.0770   -1.4951    0.2689 C.3     1  UNL1        0.1456
     21 C           6.3529   -2.6812   -0.6164 C.ar    1  UNL1        0.0275
     22 C           7.0446   -2.5177   -1.8284 C.ar    1  UNL1       -0.0498
     23 C           7.3033   -3.6176   -2.6489 C.ar    1  UNL1       -0.0259
     24 C           6.8712   -4.8817   -2.2604 C.ar    1  UNL1        0.1261
     25 F           7.1215   -5.9347   -3.0490 F       1  UNL1       -0.2054
     26 C           6.1843   -5.0673   -1.0693 C.ar    1  UNL1        0.0092
     27 C           5.9303   -3.9663   -0.2579 C.ar    1  UNL1        0.1326
     28 F           5.2647   -4.1548    0.8903 F       1  UNL1       -0.2050
     29 H           6.7735    2.2797   -0.0305 H       1  UNL1        0.2094
     30 H           5.3441    4.6923   -0.4672 H       1  UNL1        0.0567
     31 H           5.4969    3.3388   -1.5850 H       1  UNL1        0.0567
     32 H           3.4239    2.5493    2.1619 H       1  UNL1        0.0502
     33 H           5.1710    2.6888    2.1494 H       1  UNL1        0.0502
     34 H           2.0186    4.6823    2.4263 H       1  UNL1        0.0825
     35 H           2.7649    7.2921    2.9370 H       1  UNL1        0.0845
     36 H           6.2228    5.0681    2.1911 H       1  UNL1        0.1029
     37 H           2.3084    4.0092    0.1667 H       1  UNL1        0.0324
     38 H           3.0970    3.9386   -1.4155 H       1  UNL1        0.0324
     39 H           3.0564   -1.1753   -0.8556 H       1  UNL1        0.0624
     40 H           0.7279   -1.3562   -1.6279 H       1  UNL1        0.0618
     41 H          -0.6861    0.6676   -1.8529 H       1  UNL1        0.0618
     42 H           0.2447    2.9124   -1.3346 H       1  UNL1        0.0620
     43 H           7.0235   -1.0215    0.5536 H       1  UNL1        0.0776
     44 H           5.5464   -1.7895    1.1808 H       1  UNL1        0.0776
     45 H           7.3784   -1.5277   -2.1371 H       1  UNL1        0.0623
     46 H           7.8363   -3.4966   -3.5864 H       1  UNL1        0.0646
     47 H           5.8515   -6.0565   -0.7771 H       1  UNL1        0.0675
@<TRIPOS>BOND
     1     1    29    1
     2     2     1    1
     3     2    30    1
     4     2    31    1
     5     3     2    1
     6     4     3    1
     7     4    32    1
     8     4    33    1
     9     5     4    1
    10     6     5   ar
    11     6    34    1
    12     7     6   ar
    13     7    35    1
    14     8     7   ar
    15     9     8   ar
    16     9     5   ar
    17     9    36    1
    18    10     3    1
    19    10    37    1
    20    10    38    1
    21    11    10    1
    22    12    11   ar
    23    13    12   ar
    24    13    39    1
    25    14    13   ar
    26    14    40    1
    27    15    14   ar
    28    15    41    1
    29    16    15   ar
    30    16    11   ar
    31    16    42    1
    32    17    12    1
    33    17     3    1
    34    18    17    2
    35    19    18    1
    36    20    19    1
    37    20    43    1
    38    20    44    1
    39    21    20    1
    40    22    21   ar
    41    22    45    1
    42    23    22   ar
    43    23    46    1
    44    24    23   ar
    45    25    24    1
    46    26    24   ar
    47    26    47    1
    48    27    26   ar
    49    27    21   ar
    50    28    27    1
