@<TRIPOS>MOLECULE
mol_143_akc_0739110220211973564
>140.sdf
 46 51 0 0 0
SMALL
GASTEIGER

@<TRIPOS>ATOM
      1 C           1.0404   -0.3481   -0.8246 C.3     1  UNL1        0.0820
      2 O           2.4684   -0.3117   -0.8157 O.3     1  UNL1       -0.4645
      3 C           2.9933    0.9307   -0.9674 C.2     1  UNL1        0.3390
      4 O           2.3532    1.9605   -1.1081 O.2     1  UNL1       -0.2450
      5 C           4.4829    0.8796   -0.9528 C.ar    1  UNL1        0.0603
      6 C           5.1898   -0.3228   -0.8040 C.ar    1  UNL1       -0.0380
      7 C           6.6042   -0.3914   -0.8127 C.ar    1  UNL1        0.0090
      8 C           7.2524    0.8568   -0.9682 C.ar    1  UNL1        0.0554
      9 N           8.5962    1.1578   -1.0179 N.ar    1  UNL1       -0.3536
     10 C           8.8233    2.5029   -1.1223 C.ar    1  UNL1        0.0475
     11 C           7.5754    3.1156   -1.1783 C.ar    1  UNL1        0.0074
     12 C           7.5285    4.5218   -1.2733 C.ar    1  UNL1       -0.0520
     13 C           8.7265    5.2499   -1.2979 C.ar    1  UNL1       -0.0611
     14 C           9.9573    4.6006   -1.2374 C.ar    1  UNL1       -0.0598
     15 C          10.0290    3.2091   -1.1506 C.ar    1  UNL1       -0.0378
     16 C           6.5863    2.0785   -1.0955 C.ar    1  UNL1        0.0088
     17 C           5.1782    2.0862   -1.0962 C.ar    1  UNL1       -0.0380
     18 C           7.3212   -1.6778   -0.6961 C.ar    1  UNL1        0.0140
     19 C           6.8087   -2.9015   -1.2234 C.ar    1  UNL1       -0.0440
     20 C           7.4430   -4.1797   -1.1352 C.ar    1  UNL1       -0.0151
     21 C           6.8502   -5.3280   -1.6821 C.ar    1  UNL1       -0.0539
     22 C           7.4767   -6.5787   -1.5997 C.ar    1  UNL1       -0.0612
     23 C           8.7141   -6.7133   -0.9697 C.ar    1  UNL1       -0.0611
     24 C           9.3311   -5.5985   -0.4140 C.ar    1  UNL1       -0.0519
     25 C           8.6977   -4.3430   -0.4946 C.ar    1  UNL1        0.0114
     26 C           9.2562   -3.1537    0.0482 C.ar    1  UNL1        0.1208
     27 N          10.4199   -2.9828    0.7055 N.ar    1  UNL1       -0.1542
     28 N          10.4019   -1.6825    0.9837 N.ar    1  UNL1       -0.1956
     29 N           9.3835   -0.9414    0.5472 N.ar    1  UNL1       -0.1542
     30 C           8.5793   -1.8463   -0.0506 C.ar    1  UNL1        0.1209
     31 H           0.6269    0.3207   -0.0630 H       1  UNL1        0.0661
     32 H           0.6618   -0.0873   -1.8179 H       1  UNL1        0.0661
     33 H           0.7271   -1.3697   -0.5913 H       1  UNL1        0.0661
     34 H           4.6254   -1.2435   -0.6661 H       1  UNL1        0.0632
     35 H           9.3210    0.4693   -0.8689 H       1  UNL1        0.1659
     36 H           6.5751    5.0405   -1.3105 H       1  UNL1        0.0624
     37 H           8.6925    6.3347   -1.3577 H       1  UNL1        0.0618
     38 H          10.8755    5.1827   -1.2528 H       1  UNL1        0.0618
     39 H          10.9862    2.7002   -1.0993 H       1  UNL1        0.0638
     40 H           4.6415    3.0262   -1.1985 H       1  UNL1        0.0632
     41 H           5.8555   -2.8630   -1.7561 H       1  UNL1        0.0630
     42 H           5.8853   -5.2645   -2.1816 H       1  UNL1        0.0624
     43 H           6.9942   -7.4526   -2.0308 H       1  UNL1        0.0618
     44 H           9.1951   -7.6860   -0.9128 H       1  UNL1        0.0618
     45 H          10.2964   -5.6949    0.0784 H       1  UNL1        0.0624
     46 H          11.1639   -1.2562    1.5067 H       1  UNL1        0.2125
@<TRIPOS>BOND
     1     1    31    1
     2     1    32    1
     3     1    33    1
     4     2     1    1
     5     3     2    1
     6     4     3    2
     7     5     3    1
     8     6     5   ar
     9     6    34    1
    10     7     6   ar
    11     8     7   ar
    12     9     8   ar
    13     9    35    1
    14    10     9   ar
    15    11    10   ar
    16    12    11   ar
    17    12    36    1
    18    13    12   ar
    19    13    37    1
    20    14    13   ar
    21    14    38    1
    22    15    14   ar
    23    15    10   ar
    24    15    39    1
    25    16    11   ar
    26    16     8   ar
    27    17    16   ar
    28    17     5   ar
    29    17    40    1
    30    18     7    1
    31    19    18   ar
    32    19    41    1
    33    20    19   ar
    34    21    20   ar
    35    21    42    1
    36    22    21   ar
    37    22    43    1
    38    23    22   ar
    39    23    44    1
    40    24    23   ar
    41    24    45    1
    42    25    24   ar
    43    25    20   ar
    44    26    25   ar
    45    27    26   ar
    46    28    27   ar
    47    28    46    1
    48    29    28   ar
    49    30    29   ar
    50    30    18   ar
    51    30    26   ar
