@<TRIPOS>MOLECULE
mol_144_akc_biom11010056
>141.sdf
 91 96 0 0 0
SMALL
GASTEIGER

@<TRIPOS>ATOM
      1 C           4.7444    0.1427   -1.0483 C.3     1  UNL1       -0.0356
      2 C           5.4840    1.1850   -0.2451 C.2     1  UNL1        0.0022
      3 C           6.5019    0.9127    0.5843 C.2     1  UNL1        0.1671
      4 O           7.1623   -0.3060    0.5776 O.2     1  UNL1       -0.5030
      5 C           6.9369    1.9546    1.5775 C.2     1  UNL1        0.2206
      6 O           7.9366    1.8401    2.2640 O.2     1  UNL1       -0.2840
      7 C           6.0558    3.1552    1.7511 C.2     1  UNL1       -0.0067
      8 C           5.0938    3.4574    0.8521 C.2     1  UNL1       -0.0262
      9 C           5.0330    2.5705   -0.3179 C.2     1  UNL1       -0.0144
     10 C           4.6261    3.0727   -1.4915 C.2     1  UNL1       -0.0539
     11 C           3.9805    4.3429   -1.6075 C.2     1  UNL1       -0.0606
     12 C           3.5029    4.9664   -0.5141 C.2     1  UNL1       -0.0529
     13 C           4.1790    4.7205    0.8860 C.3     1  UNL1        0.0154
     14 C           5.0651    5.9511    1.2255 C.3     1  UNL1       -0.0517
     15 C           3.1510    4.5642    2.0542 C.3     1  UNL1       -0.0393
     16 C           1.8225    5.3006    1.8664 C.3     1  UNL1       -0.0455
     17 C           1.1854    5.0542    0.4699 C.3     1  UNL1       -0.0196
     18 C           1.1196    3.5015    0.2417 C.3     1  UNL1       -0.0585
     19 C          -0.3063    5.6127    0.4873 C.3     1  UNL1       -0.0285
     20 C          -1.3204    4.6817    1.2501 C.3     1  UNL1       -0.0355
     21 C          -2.5286    4.0314    0.5083 C.3     1  UNL1        0.0445
     22 C          -3.7987    4.4804    1.2705 C.3     1  UNL1       -0.0512
     23 C          -2.6270    4.4510   -0.9650 C.3     1  UNL1       -0.0388
     24 C          -2.3214    5.9219   -1.1541 C.3     1  UNL1       -0.0464
     25 C          -0.8496    6.2919   -0.8170 C.3     1  UNL1       -0.0286
     26 C          -0.9231    7.8303   -0.5526 C.3     1  UNL1       -0.0593
     27 C           0.0014    6.0479   -2.0960 C.3     1  UNL1       -0.0465
     28 C           1.4140    5.4849   -1.9734 C.3     1  UNL1       -0.0429
     29 C           2.1379    5.7086   -0.6166 C.3     1  UNL1       -0.0043
     30 C           2.4765    7.2115   -0.5468 C.3     1  UNL1       -0.0553
     31 C          -2.3654    2.4873    0.5069 C.2     1  UNL1        0.2191
     32 O          -1.3997    1.9245   -0.0056 O.2     1  UNL1       -0.2752
     33 N          -3.3187    1.7136    1.1412 N.am    1  UNL1       -0.3098
     34 C          -3.2322    0.2547    1.0132 C.3     1  UNL1        0.0517
     35 C          -2.0341   -0.3424    1.7834 C.3     1  UNL1       -0.0160
     36 N          -2.0239    0.2154    3.1875 N.4     1  UNL1        0.2363
     37 C          -3.1329   -0.2492    4.0855 C.3     1  UNL1       -0.0317
     38 C          -2.6794    0.2801    5.4252 C.3     1  UNL1       -0.0077
     39 C          -1.1805    0.0190    5.4269 C.3     1  UNL1       -0.0077
     40 C          -0.7494   -0.0037    3.9620 C.3     1  UNL1       -0.0317
     41 H           3.6585    0.2635   -0.9280 H       1  UNL1        0.0279
     42 H           4.9842    0.2087   -2.1117 H       1  UNL1        0.0279
     43 H           4.9704   -0.8744   -0.7123 H       1  UNL1        0.0279
     44 H           7.1912   -0.6045   -0.3476 H       1  UNL1        0.2923
     45 H           6.2802    3.7608    2.6163 H       1  UNL1        0.0660
     46 H           4.6304    2.4753   -2.3977 H       1  UNL1        0.0624
     47 H           3.6006    4.5284   -2.6085 H       1  UNL1        0.0618
     48 H           4.4950    6.8805    1.2735 H       1  UNL1        0.0241
     49 H           5.8668    6.0825    0.4910 H       1  UNL1        0.0241
     50 H           5.5406    5.8518    2.2105 H       1  UNL1        0.0241
     51 H           2.9316    3.5063    2.2374 H       1  UNL1        0.0277
     52 H           3.5876    4.9215    2.9988 H       1  UNL1        0.0277
     53 H           1.1370    4.9820    2.6621 H       1  UNL1        0.0271
     54 H           1.9669    6.3744    2.0383 H       1  UNL1        0.0271
     55 H           0.8140    2.9627    1.1445 H       1  UNL1        0.0235
     56 H           2.0713    3.0410   -0.0226 H       1  UNL1        0.0235
     57 H           0.4361    3.2580   -0.5720 H       1  UNL1        0.0235
     58 H          -0.2205    6.4516    1.1954 H       1  UNL1        0.0312
     59 H          -0.7989    3.9071    1.8197 H       1  UNL1        0.0278
     60 H          -1.7161    5.3070    2.0636 H       1  UNL1        0.0278
     61 H          -3.7985    4.0888    2.2956 H       1  UNL1        0.0240
     62 H          -3.8562    5.5720    1.3473 H       1  UNL1        0.0240
     63 H          -4.7171    4.1406    0.7812 H       1  UNL1        0.0240
     64 H          -3.6403    4.2481   -1.3387 H       1  UNL1        0.0275
     65 H          -1.9610    3.8558   -1.6010 H       1  UNL1        0.0275
     66 H          -2.5474    6.2013   -2.1929 H       1  UNL1        0.0271
     67 H          -3.0242    6.5061   -0.5488 H       1  UNL1        0.0271
     68 H          -1.1699    8.3875   -1.4627 H       1  UNL1        0.0235
     69 H          -1.6929    8.0622    0.1937 H       1  UNL1        0.0235
     70 H           0.0030    8.2360   -0.1459 H       1  UNL1        0.0235
     71 H           0.0726    6.9835   -2.6673 H       1  UNL1        0.0271
     72 H          -0.5295    5.3701   -2.7784 H       1  UNL1        0.0271
     73 H           2.0031    5.9120   -2.7975 H       1  UNL1        0.0274
     74 H           1.3528    4.4115   -2.2006 H       1  UNL1        0.0274
     75 H           2.6472    7.5848    0.4627 H       1  UNL1        0.0238
     76 H           3.3843    7.4246   -1.1303 H       1  UNL1        0.0238
     77 H           1.7205    7.8429   -1.0091 H       1  UNL1        0.0238
     78 H          -4.2536    2.1030    1.1917 H       1  UNL1        0.1489
     79 H          -4.1704   -0.1529    1.4031 H       1  UNL1        0.0515
     80 H          -3.1689   -0.0080   -0.0484 H       1  UNL1        0.0515
     81 H          -1.0797   -0.0553    1.3319 H       1  UNL1        0.0830
     82 H          -2.0840   -1.4339    1.8430 H       1  UNL1        0.0830
     83 H          -2.1290    1.2335    3.0589 H       1  UNL1        0.2034
     84 H          -3.1590   -1.3437    4.0531 H       1  UNL1        0.0814
     85 H          -4.0790    0.1799    3.7474 H       1  UNL1        0.0814
     86 H          -3.1941   -0.1997    6.2618 H       1  UNL1        0.0319
     87 H          -2.8710    1.3587    5.4842 H       1  UNL1        0.0319
     88 H          -0.6431    0.7828    5.9980 H       1  UNL1        0.0319
     89 H          -0.9629   -0.9486    5.8937 H       1  UNL1        0.0319
     90 H          -0.0533    0.7985    3.7018 H       1  UNL1        0.0814
     91 H          -0.3382   -0.9795    3.6832 H       1  UNL1        0.0814
@<TRIPOS>UNITY_ATOM_ATTR
36 1
charge 1
@<TRIPOS>BOND
     1     1    41    1
     2     1    42    1
     3     1    43    1
     4     2     1    1
     5     3     2    2
     6     4     3    1
     7     4    44    1
     8     5     3    1
     9     6     5    2
    10     7     5    1
    11     7    45    1
    12     8     7    2
    13     9     8    1
    14     9     2    1
    15    10     9    2
    16    10    46    1
    17    11    10    1
    18    11    47    1
    19    12    11    2
    20    13    12    1
    21    13     8    1
    22    13    14    1
    23    14    48    1
    24    14    49    1
    25    14    50    1
    26    15    13    1
    27    15    51    1
    28    15    52    1
    29    16    15    1
    30    16    53    1
    31    16    54    1
    32    17    16    1
    33    17    18    1
    34    18    55    1
    35    18    56    1
    36    18    57    1
    37    19    17    1
    38    19    58    1
    39    20    19    1
    40    20    59    1
    41    20    60    1
    42    21    20    1
    43    22    61    1
    44    22    62    1
    45    22    63    1
    46    23    21    1
    47    23    64    1
    48    23    65    1
    49    24    23    1
    50    24    66    1
    51    24    67    1
    52    25    24    1
    53    25    19    1
    54    25    26    1
    55    26    68    1
    56    26    69    1
    57    26    70    1
    58    27    25    1
    59    27    71    1
    60    27    72    1
    61    28    27    1
    62    28    73    1
    63    28    74    1
    64    29    28    1
    65    29    12    1
    66    29    17    1
    67    29    30    1
    68    30    75    1
    69    30    76    1
    70    30    77    1
    71    32    31    2
    72    33    31   am
    73    33    78    1
    74    34    33    1
    75    34    79    1
    76    34    80    1
    77    35    34    1
    78    35    81    1
    79    35    82    1
    80    36    35    1
    81    36    83    1
    82    37    36    1
    83    37    84    1
    84    37    85    1
    85    38    37    1
    86    38    86    1
    87    38    87    1
    88    39    38    1
    89    39    88    1
    90    39    89    1
    91    40    39    1
    92    40    36    1
    93    40    90    1
    94    40    91    1
    95    21    31    1
    96    21    22    1
