@<TRIPOS>MOLECULE
mol_145_akc_cbdv202000839
>142.sdf
 45 48 0 0 0
SMALL
GASTEIGER

@<TRIPOS>ATOM
      1 C           9.0358    6.7543   -3.4431 C.3     1  UNL1        0.0790
      2 O           8.6166    7.3329   -2.2131 O.3     1  UNL1       -0.4914
      3 C           7.6771    6.6353   -1.4857 C.ar    1  UNL1        0.1632
      4 C           6.8992    7.3915   -0.5708 C.ar    1  UNL1        0.1798
      5 O           7.1252    8.7436   -0.6441 O.3     1  UNL1       -0.4901
      6 C           6.8430    9.5698    0.4711 C.3     1  UNL1        0.0790
      7 C           5.9474    6.7194    0.2103 C.ar    1  UNL1        0.0864
      8 CL          4.8617    7.4561    1.3373 Cl      1  UNL1       -0.0796
      9 C           5.7563    5.3404    0.0468 C.ar    1  UNL1       -0.0355
     10 C           6.4850    4.6020   -0.8964 C.ar    1  UNL1       -0.0295
     11 C           7.4901    5.2518   -1.6213 C.ar    1  UNL1       -0.0121
     12 C           6.0420    3.1684   -1.2144 C.3     1  UNL1        0.0562
     13 C           5.5750    3.0570   -2.6631 C.2     1  UNL1        0.0981
     14 C           4.8317    4.2890   -3.1533 C.1     1  UNL1        0.1008
     15 N           4.2151    5.3110   -3.5599 N.1     1  UNL1       -0.1910
     16 C           5.8764    2.0012   -3.4352 C.2     1  UNL1        0.1987
     17 N           5.4251    1.7900   -4.7087 N.pl3   1  UNL1       -0.3284
     18 O           6.7248    0.9980   -2.9576 O.2     1  UNL1       -0.4370
     19 C           7.3533    1.1315   -1.7203 C.2     1  UNL1        0.1848
     20 C           7.0552    2.1224   -0.8681 C.2     1  UNL1        0.0585
     21 C           7.6440    2.1693    0.4875 C.2     1  UNL1        0.1944
     22 O           7.1519    2.8348    1.3838 O.2     1  UNL1       -0.2868
     23 C           8.8475    1.3677    0.7263 C.ar    1  UNL1        0.0330
     24 C           9.1798    0.3345   -0.1439 C.ar    1  UNL1        0.0362
     25 C          10.2950   -0.4645    0.1360 C.ar    1  UNL1       -0.0501
     26 C          11.0819   -0.1942    1.2609 C.ar    1  UNL1       -0.0610
     27 C          10.7628    0.8665    2.1081 C.ar    1  UNL1       -0.0610
     28 C           9.6376    1.6452    1.8479 C.ar    1  UNL1       -0.0502
     29 C           8.3725    0.1005   -1.3619 C.2     1  UNL1        0.2291
     30 O           8.5743   -0.8792   -2.0703 O.2     1  UNL1       -0.2833
     31 H           9.6857    5.8913   -3.2659 H       1  UNL1        0.0660
     32 H           8.1805    6.4806   -4.0708 H       1  UNL1        0.0660
     33 H           9.6230    7.5015   -3.9850 H       1  UNL1        0.0660
     34 H           5.7738    9.7838    0.5446 H       1  UNL1        0.0660
     35 H           7.2499    9.1536    1.3976 H       1  UNL1        0.0660
     36 H           7.3324   10.5335    0.2985 H       1  UNL1        0.0660
     37 H           4.9883    4.8411    0.6380 H       1  UNL1        0.0636
     38 H           8.0771    4.6818   -2.3343 H       1  UNL1        0.0658
     39 H           5.1529    2.9503   -0.6025 H       1  UNL1        0.0457
     40 H           5.9752    1.1258   -5.2474 H       1  UNL1        0.1451
     41 H           5.0757    2.5884   -5.2308 H       1  UNL1        0.1451
     42 H          10.5579   -1.2921   -0.5195 H       1  UNL1        0.0625
     43 H          11.9519   -0.8125    1.4754 H       1  UNL1        0.0618
     44 H          11.3832    1.0854    2.9740 H       1  UNL1        0.0618
     45 H           9.3808    2.4684    2.5137 H       1  UNL1        0.0625
@<TRIPOS>BOND
     1     1    31    1
     2     1    32    1
     3     1    33    1
     4     2     1    1
     5     3     2    1
     6     4     3   ar
     7     5     4    1
     8     6     5    1
     9     6    34    1
    10     6    35    1
    11     6    36    1
    12     7     4   ar
    13     8     7    1
    14     9     7   ar
    15     9    37    1
    16    10     9   ar
    17    11    10   ar
    18    11     3   ar
    19    11    38    1
    20    13    12    1
    21    14    13    1
    22    15    14    3
    23    16    13    2
    24    17    16    1
    25    17    40    1
    26    17    41    1
    27    18    16    1
    28    19    18    1
    29    20    19    2
    30    20    12    1
    31    21    20    1
    32    22    21    2
    33    23    21    1
    34    24    23   ar
    35    25    24   ar
    36    25    42    1
    37    26    25   ar
    38    26    43    1
    39    27    26   ar
    40    27    44    1
    41    28    27   ar
    42    28    23   ar
    43    28    45    1
    44    29    24    1
    45    29    19    1
    46    30    29    2
    47    12    39    1
    48    12    10    1
