@<TRIPOS>MOLECULE
mol_146_akc_cbdv202000839
>142_2.sdf
 45 48 0 0 0
SMALL
GASTEIGER

@<TRIPOS>ATOM
      1 C           3.2261   -0.6366    0.9690 C.3     1  UNL1        0.0790
      2 O           2.5100    0.2625    0.1289 O.3     1  UNL1       -0.4914
      3 C           3.2234    0.8371   -0.9016 C.ar    1  UNL1        0.1632
      4 C           2.7757    2.1010   -1.3620 C.ar    1  UNL1        0.1798
      5 O           1.6819    2.5592   -0.6743 O.3     1  UNL1       -0.4901
      6 C           1.0411    3.7706   -1.0238 C.3     1  UNL1        0.0790
      7 C           3.4916    2.7142   -2.4031 C.ar    1  UNL1        0.0864
      8 CL          3.1586    4.2714   -3.0810 Cl      1  UNL1       -0.0796
      9 C           4.6052    2.0700   -2.9714 C.ar    1  UNL1       -0.0355
     10 C           5.0322    0.8116   -2.5320 C.ar    1  UNL1       -0.0295
     11 C           4.3196    0.1975   -1.4956 C.ar    1  UNL1       -0.0121
     12 C           6.2787    0.1673   -3.1417 C.3     1  UNL1        0.0562
     13 C           5.9656   -1.1819   -3.7580 C.2     1  UNL1        0.0981
     14 C           5.1901   -1.1977   -4.9553 C.1     1  UNL1        0.1008
     15 N           4.5545   -1.2121   -5.9247 N.1     1  UNL1       -0.1910
     16 C           6.4374   -2.3248   -3.2160 C.2     1  UNL1        0.1987
     17 N           6.2209   -3.5923   -3.6957 N.pl3   1  UNL1       -0.3284
     18 O           7.2204   -2.3031   -2.0635 O.2     1  UNL1       -0.4370
     19 C           7.7712   -1.1068   -1.6214 C.2     1  UNL1        0.1848
     20 C           7.3838    0.0752   -2.1167 C.2     1  UNL1        0.0585
     21 C           8.0374    1.3365   -1.7036 C.2     1  UNL1        0.1944
     22 O           7.7457    2.4023   -2.2310 O.2     1  UNL1       -0.2868
     23 C           9.0747    1.2724   -0.6610 C.ar    1  UNL1        0.0330
     24 C           9.4454    0.0500   -0.1064 C.ar    1  UNL1        0.0362
     25 C          10.4432    0.0071    0.8766 C.ar    1  UNL1       -0.0501
     26 C          11.0658    1.1860    1.2934 C.ar    1  UNL1       -0.0610
     27 C          10.6934    2.4081    0.7361 C.ar    1  UNL1       -0.0610
     28 C           9.6975    2.4543   -0.2392 C.ar    1  UNL1       -0.0502
     29 C           8.8022   -1.2016   -0.5529 C.2     1  UNL1        0.2291
     30 O           9.1036   -2.2760   -0.0467 O.2     1  UNL1       -0.2833
     31 H           3.3611   -1.6047    0.4755 H       1  UNL1        0.0660
     32 H           4.1890   -0.2180    1.2819 H       1  UNL1        0.0660
     33 H           2.6278   -0.8067    1.8689 H       1  UNL1        0.0660
     34 H           1.6837    4.6296   -0.8095 H       1  UNL1        0.0660
     35 H           0.6857    3.7558   -2.0579 H       1  UNL1        0.0660
     36 H           0.1561    3.8722   -0.3875 H       1  UNL1        0.0660
     37 H           5.1637    2.5774   -3.7587 H       1  UNL1        0.0636
     38 H           4.6251   -0.7867   -1.1545 H       1  UNL1        0.0658
     39 H           6.6489    0.8024   -3.9608 H       1  UNL1        0.0457
     40 H           6.3181   -4.3113   -2.9831 H       1  UNL1        0.1451
     41 H           5.4084   -3.7187   -4.2957 H       1  UNL1        0.1451
     42 H          10.7432   -0.9424    1.3172 H       1  UNL1        0.0625
     43 H          11.8447    1.1499    2.0524 H       1  UNL1        0.0618
     44 H          11.1803    3.3266    1.0584 H       1  UNL1        0.0618
     45 H           9.4121    3.4133   -0.6704 H       1  UNL1        0.0625
@<TRIPOS>BOND
     1     1    31    1
     2     1    32    1
     3     1    33    1
     4     2     1    1
     5     3     2    1
     6     4     3   ar
     7     5     4    1
     8     6     5    1
     9     6    34    1
    10     6    35    1
    11     6    36    1
    12     7     4   ar
    13     8     7    1
    14     9     7   ar
    15     9    37    1
    16    10     9   ar
    17    11    10   ar
    18    11     3   ar
    19    11    38    1
    20    12    10    1
    21    12    39    1
    22    13    12    1
    23    14    13    1
    24    15    14    3
    25    16    13    2
    26    17    16    1
    27    17    40    1
    28    17    41    1
    29    18    16    1
    30    19    18    1
    31    20    19    2
    32    20    12    1
    33    21    20    1
    34    22    21    2
    35    23    21    1
    36    24    23   ar
    37    25    24   ar
    38    25    42    1
    39    26    25   ar
    40    26    43    1
    41    27    26   ar
    42    27    44    1
    43    28    27   ar
    44    28    23   ar
    45    28    45    1
    46    29    24    1
    47    29    19    1
    48    30    29    2
