@<TRIPOS>MOLECULE
mol_147_akc_jbiopha2020111049
>143.sdf
 34 36 0 0 0
SMALL
GASTEIGER

@<TRIPOS>ATOM
      1 O          -2.7076    3.2827   -0.8546 O.3     1  UNL1        0.0000
      2 B          -1.5236    2.5320   -0.4418 B       1  UNL1        0.0000
      3 O          -0.1995    3.1427   -0.2234 O.3     1  UNL1        0.0000
      4 C           0.6233    2.0607    0.2044 C.3     1  UNL1        0.0000
      5 C          -0.2089    0.8140    0.2398 C.ar    1  UNL1        0.0000
      6 C           0.2036   -0.4601    0.6115 C.ar    1  UNL1        0.0000
      7 C          -0.7271   -1.5069    0.5856 C.ar    1  UNL1        0.0000
      8 C          -2.0785   -1.2780    0.1864 C.ar    1  UNL1        0.0000
      9 N          -3.0823   -2.3087    0.1711 N.am    1  UNL1        0.0000
     10 C          -2.8445   -3.6600    0.2231 C.2     1  UNL1        0.0000
     11 O          -1.7044   -4.0745    0.1371 O.2     1  UNL1        0.0000
     12 C          -3.9591   -4.6656    0.3071 C.ar    1  UNL1        0.0000
     13 C          -3.8204   -5.9710    0.9061 C.ar    1  UNL1        0.0000
     14 C          -4.9249   -6.8469    0.8782 C.ar    1  UNL1        0.0000
     15 C          -6.1362   -6.4760    0.3079 C.ar    1  UNL1        0.0000
     16 C          -6.2808   -5.2171   -0.2545 C.ar    1  UNL1        0.0000
     17 C          -5.2123   -4.3240   -0.2576 C.ar    1  UNL1        0.0000
     18 C          -2.6032   -6.5355    1.6438 C.3     1  UNL1        0.0000
     19 F          -1.5574   -5.6652    1.8437 F       1  UNL1        0.0000
     20 F          -3.0020   -6.9385    2.9073 F       1  UNL1        0.0000
     21 F          -2.1280   -7.6397    0.9614 F       1  UNL1        0.0000
     22 C          -2.4557    0.0396   -0.1661 C.ar    1  UNL1        0.0000
     23 C          -1.4907    1.0471   -0.1327 C.ar    1  UNL1        0.0000
     24 H          -2.3594    4.1450   -1.1971 H       1  UNL1        0.0000
     25 H           1.4641    1.9196   -0.5084 H       1  UNL1        0.0000
     26 H           1.0151    2.2682    1.2226 H       1  UNL1        0.0000
     27 H           1.2238   -0.6417    0.9245 H       1  UNL1        0.0000
     28 H          -0.3606   -2.4628    0.9113 H       1  UNL1        0.0000
     29 H          -4.0576   -1.9784    0.1570 H       1  UNL1        0.0000
     30 H          -4.8521   -7.8331    1.3232 H       1  UNL1        0.0000
     31 H          -6.9677   -7.1688    0.3082 H       1  UNL1        0.0000
     32 H          -7.2257   -4.9333   -0.6997 H       1  UNL1        0.0000
     33 H          -5.3814   -3.3713   -0.7371 H       1  UNL1        0.0000
     34 H          -3.4713    0.2711   -0.4644 H       1  UNL1        0.0000
@<TRIPOS>BOND
     1     1    24    1
     2     2     1    1
     3     3     2    1
     4     4     3    1
     5     4    25    1
     6     4    26    1
     7     5     4    1
     8     6     5   ar
     9     6    27    1
    10     7     6   ar
    11     7    28    1
    12     8     7   ar
    13     9     8    1
    14     9    29    1
    15    10     9   am
    16    11    10    2
    17    12    10    1
    18    13    12   ar
    19    14    13   ar
    20    14    30    1
    21    15    14   ar
    22    15    31    1
    23    16    15   ar
    24    16    32    1
    25    17    16   ar
    26    17    12   ar
    27    17    33    1
    28    18    13    1
    29    19    18    1
    30    20    18    1
    31    21    18    1
    32    22     8   ar
    33    22    34    1
    34    23    22   ar
    35    23     2    1
    36    23     5   ar
