@<TRIPOS>MOLECULE
mol_148_akc_jbiopha2020111049
>144.sdf
 50 54 0 0 0
SMALL
GASTEIGER

@<TRIPOS>ATOM
      1 F           2.1101   -0.1644   -0.0409 F       1  UNL1       -0.2047
      2 C           0.7753   -0.0172   -0.0025 C.ar    1  UNL1        0.1341
      3 C           0.2012    1.2575    0.0180 C.ar    1  UNL1        0.0542
      4 C          -1.2003    1.3537    0.0416 C.ar    1  UNL1       -0.0270
      5 C          -2.0084    0.2110    0.0497 C.ar    1  UNL1        0.0356
      6 N          -3.4183    0.2484    0.0595 N.am    1  UNL1       -0.2693
      7 C          -4.2216    1.3406   -0.1684 C.2     1  UNL1        0.3064
      8 O          -3.8151    2.4639   -0.4670 O.2     1  UNL1       -0.2523
      9 N          -5.5753    1.1022   -0.0602 N.am    1  UNL1       -0.2854
     10 C          -6.2802   -0.1179    0.2841 C.3     1  UNL1        0.0162
     11 C          -7.6699    0.1008   -0.2884 C.3     1  UNL1       -0.0357
     12 C          -7.8968    1.5969   -0.1150 C.3     1  UNL1       -0.0357
     13 C          -6.5052    2.2080   -0.2207 C.3     1  UNL1        0.0162
     14 C          -1.4002   -1.0506    0.0580 C.ar    1  UNL1       -0.0377
     15 C          -0.0101   -1.1654    0.0218 C.ar    1  UNL1       -0.0240
     16 C           1.0079    2.4804    0.0232 C.ar    1  UNL1        0.1439
     17 N           0.5489    3.7196    0.0665 N.ar    1  UNL1       -0.2082
     18 C           1.6474    4.5298    0.0536 C.ar    1  UNL1        0.1783
     19 C           2.8151    3.7871    0.0108 C.ar    1  UNL1        0.0861
     20 N           2.3862    2.4905   -0.0097 N.ar    1  UNL1       -0.3365
     21 C           4.0737    4.3807    0.0001 C.ar    1  UNL1       -0.0255
     22 C           4.1048    5.7845    0.0217 C.ar    1  UNL1        0.0023
     23 C           2.8650    6.4448    0.0573 C.ar    1  UNL1        0.0378
     24 N           1.6323    5.8777    0.0810 N.ar    1  UNL1       -0.2338
     25 C           5.3868    6.5223    0.0128 C.ar    1  UNL1       -0.0164
     26 C           6.4948    6.0506   -0.7174 C.ar    1  UNL1       -0.0540
     27 C           7.7186    6.7257   -0.7052 C.ar    1  UNL1       -0.0612
     28 C           7.8583    7.8997    0.0274 C.ar    1  UNL1       -0.0617
     29 C           6.7770    8.3960    0.7467 C.ar    1  UNL1       -0.0612
     30 C           5.5569    7.7120    0.7433 C.ar    1  UNL1       -0.0540
     31 H          -1.6391    2.3492    0.0673 H       1  UNL1        0.0644
     32 H          -3.8844   -0.6387    0.1266 H       1  UNL1        0.1564
     33 H          -6.3023   -0.1913    1.3768 H       1  UNL1        0.0465
     34 H          -5.8043   -1.0097   -0.1294 H       1  UNL1        0.0465
     35 H          -7.6742   -0.1499   -1.3562 H       1  UNL1        0.0281
     36 H          -8.4319   -0.5060    0.2080 H       1  UNL1        0.0281
     37 H          -8.5794    2.0027   -0.8679 H       1  UNL1        0.0281
     38 H          -8.3259    1.8029    0.8720 H       1  UNL1        0.0281
     39 H          -6.3350    2.6919   -1.1879 H       1  UNL1        0.0465
     40 H          -6.3314    2.9421    0.5741 H       1  UNL1        0.0465
     41 H          -1.9985   -1.9579    0.0731 H       1  UNL1        0.0637
     42 H           0.4649   -2.1414    0.0095 H       1  UNL1        0.0647
     43 H           2.9671    1.6650   -0.0453 H       1  UNL1        0.1674
     44 H           4.9760    3.7797   -0.0112 H       1  UNL1        0.0646
     45 H           2.8221    7.5325    0.0580 H       1  UNL1        0.0836
     46 H           6.4170    5.1466   -1.3170 H       1  UNL1        0.0624
     47 H           8.5597    6.3329   -1.2702 H       1  UNL1        0.0618
     48 H           8.8092    8.4263    0.0375 H       1  UNL1        0.0618
     49 H           6.8804    9.3140    1.3206 H       1  UNL1        0.0618
     50 H           4.7426    8.1187    1.3402 H       1  UNL1        0.0624
@<TRIPOS>BOND
     1     2     1    1
     2     3     2   ar
     3     4     3   ar
     4     4    31    1
     5     5     4   ar
     6     6     5    1
     7     6    32    1
     8     7     6   am
     9     8     7    2
    10     9     7   am
    11    10     9    1
    12    10    33    1
    13    10    34    1
    14    11    10    1
    15    11    35    1
    16    11    36    1
    17    12    11    1
    18    12    37    1
    19    12    38    1
    20    13    12    1
    21    13     9    1
    22    13    39    1
    23    13    40    1
    24    14     5   ar
    25    14    41    1
    26    15    14   ar
    27    15     2   ar
    28    15    42    1
    29    16     3    1
    30    17    16   ar
    31    18    17   ar
    32    19    18   ar
    33    20    19   ar
    34    20    16   ar
    35    20    43    1
    36    21    19   ar
    37    21    44    1
    38    22    21   ar
    39    23    22   ar
    40    23    45    1
    41    24    23   ar
    42    24    18   ar
    43    25    22    1
    44    26    25   ar
    45    26    46    1
    46    27    26   ar
    47    27    47    1
    48    28    27   ar
    49    28    48    1
    50    29    28   ar
    51    29    49    1
    52    30    29   ar
    53    30    25   ar
    54    30    50    1
