@<TRIPOS>MOLECULE
mol_14_akc_jbmcl2021128289
>14.sdf
 53 57 0 0 0
SMALL
GASTEIGER

@<TRIPOS>ATOM
      1 C           4.0861   -0.2662    0.2059 C.3     1  UNL1        0.0004
      2 N           3.6782    1.1355    0.1863 N.pl3   1  UNL1       -0.3360
      3 C           4.7651    2.0903   -0.0570 C.3     1  UNL1        0.0004
      4 C           2.7876    1.5663    1.1855 C.ar    1  UNL1        0.0298
      5 C           2.6181    0.9041    2.4146 C.ar    1  UNL1       -0.0320
      6 C           1.7109    1.3843    3.3631 C.ar    1  UNL1       -0.0037
      7 C           1.5353    0.7353    4.6774 C.2     1  UNL1        0.0531
      8 N           2.2711   -0.2416    5.1183 N.2     1  UNL1       -0.1832
      9 N           2.0179   -0.6085    6.4361 N.am    1  UNL1       -0.1694
     10 C           1.7343    0.3499    7.4553 C.2     1  UNL1        0.2773
     11 O           1.6325    1.5652    7.3747 O.2     1  UNL1       -0.2674
     12 C           1.4961   -0.4020    8.6866 C.2     1  UNL1        0.1140
     13 C           1.8176   -1.6705    8.3909 C.2     1  UNL1       -0.0274
     14 C           2.5446   -1.8304    7.0559 C.3     1  UNL1        0.1333
     15 C           4.0772   -1.7982    7.3226 C.ar    1  UNL1        0.0074
     16 C           5.0099   -0.9629    6.7065 C.ar    1  UNL1       -0.0541
     17 C           6.3623   -1.0556    7.0559 C.ar    1  UNL1       -0.0613
     18 C           6.7797   -1.9267    8.0671 C.ar    1  UNL1       -0.0600
     19 C           5.8760   -2.8206    8.6316 C.ar    1  UNL1       -0.0402
     20 C           4.5659   -2.8314    8.1618 C.ar    1  UNL1        0.0373
     21 N           3.7347   -3.9675    8.3229 N.pl3   1  UNL1       -0.3139
     22 C           2.8706   -4.2983    7.2354 C.ar    1  UNL1        0.0373
     23 C           2.2552   -3.2255    6.5033 C.ar    1  UNL1        0.0074
     24 C           1.5500   -3.5159    5.3370 C.ar    1  UNL1       -0.0541
     25 C           1.4911   -4.8437    4.8878 C.ar    1  UNL1       -0.0613
     26 C           2.0992   -5.8781    5.6041 C.ar    1  UNL1       -0.0600
     27 C           2.7835   -5.6110    6.7919 C.ar    1  UNL1       -0.0402
     28 C           1.8448   -0.0177   10.1153 C.1     1  UNL1        0.1042
     29 N           2.1341    0.3011   11.3005 N.1     1  UNL1       -0.1907
     30 C           0.9549    2.5338    3.1045 C.ar    1  UNL1       -0.0530
     31 C           1.1054    3.1977    1.8926 C.ar    1  UNL1       -0.0594
     32 C           2.0180    2.7187    0.9447 C.ar    1  UNL1       -0.0406
     33 H           4.5578   -0.5258   -0.7482 H       1  UNL1        0.0428
     34 H           4.8065   -0.4667    1.0059 H       1  UNL1        0.0428
     35 H           3.2200   -0.9284    0.3181 H       1  UNL1        0.0428
     36 H           4.3902    3.0342   -0.4680 H       1  UNL1        0.0428
     37 H           5.3219    2.3004    0.8640 H       1  UNL1        0.0428
     38 H           5.4721    1.6880   -0.7911 H       1  UNL1        0.0428
     39 H           3.2041    0.0221    2.6564 H       1  UNL1        0.0642
     40 H           0.7041    1.1480    5.2773 H       1  UNL1        0.0851
     41 H           1.9084   -2.4287    9.1618 H       1  UNL1        0.0615
     42 H           4.7142   -0.2800    5.9143 H       1  UNL1        0.0622
     43 H           7.0979   -0.4502    6.5318 H       1  UNL1        0.0618
     44 H           7.8254   -1.9551    8.3630 H       1  UNL1        0.0618
     45 H           6.2186   -3.5511    9.3581 H       1  UNL1        0.0636
     46 H           4.1552   -4.7484    8.8091 H       1  UNL1        0.1522
     47 H           1.1012   -2.7253    4.7469 H       1  UNL1        0.0622
     48 H           0.9879   -5.0671    3.9523 H       1  UNL1        0.0618
     49 H           2.0854   -6.8943    5.2121 H       1  UNL1        0.0618
     50 H           3.2978   -6.4151    7.3086 H       1  UNL1        0.0636
     51 H           0.2561    2.9223    3.8435 H       1  UNL1        0.0624
     52 H           0.5210    4.0893    1.6798 H       1  UNL1        0.0618
     53 H           2.1005    3.2377   -0.0041 H       1  UNL1        0.0636
@<TRIPOS>BOND
     1     1    33    1
     2     1    34    1
     3     1    35    1
     4     2     1    1
     5     3     2    1
     6     3    36    1
     7     3    37    1
     8     3    38    1
     9     4     2    1
    10     5     4   ar
    11     5    39    1
    12     6     5   ar
    13     7     6    1
    14     7    40    1
    15     8     7    2
    16     9     8    1
    17    10     9   am
    18    11    10    2
    19    12    10    1
    20    13    12    2
    21    13    41    1
    22    14    13    1
    23    14     9    1
    24    15    14    1
    25    16    15   ar
    26    16    42    1
    27    17    16   ar
    28    17    43    1
    29    18    17   ar
    30    18    44    1
    31    19    18   ar
    32    19    45    1
    33    20    19   ar
    34    20    15   ar
    35    21    20    1
    36    21    46    1
    37    22    21    1
    38    23    22   ar
    39    23    14    1
    40    24    23   ar
    41    24    47    1
    42    25    24   ar
    43    25    48    1
    44    26    25   ar
    45    26    49    1
    46    27    26   ar
    47    27    22   ar
    48    27    50    1
    49    28    12    1
    50    29    28    3
    51    30     6   ar
    52    30    51    1
    53    31    30   ar
    54    31    52    1
    55    32    31   ar
    56    32     4   ar
    57    32    53    1
