@<TRIPOS>MOLECULE
mol_150_akc_jbiopha2020111049
>146.sdf
 39 41 0 0 0
SMALL
GASTEIGER

@<TRIPOS>ATOM
      1 C           3.8090    0.8587    0.0890 C.3     1  UNL1       -0.0423
      2 C           2.6093   -0.0941   -0.0421 C.3     1  UNL1        0.0483
      3 N           2.9659   -1.2958   -0.7930 N.pl3   1  UNL1       -0.2958
      4 C           3.5843   -1.2357   -2.1025 C.3     1  UNL1        0.0040
      5 C           2.6590   -2.5437   -0.2911 C.ar    1  UNL1        0.2200
      6 N           3.1386   -3.6287   -0.9163 N.ar    1  UNL1       -0.2219
      7 C           2.7522   -4.8300   -0.4602 C.ar    1  UNL1        0.0452
      8 C           1.8981   -4.9889    0.6165 C.ar    1  UNL1        0.0770
      9 C           1.4067   -6.1842    1.1336 C.ar    1  UNL1        0.1320
     10 N           1.7332   -7.4293    0.5858 N.pl3   1  UNL1       -0.3424
     11 N           0.5476   -6.2118    2.1548 N.ar    1  UNL1       -0.1994
     12 C           0.2152   -5.0356    2.6811 C.ar    1  UNL1        0.2162
     13 N          -0.6829   -5.0388    3.7290 N.pl3   1  UNL1       -0.3274
     14 N           0.6392   -3.8547    2.2480 N.ar    1  UNL1       -0.1947
     15 C           1.4758   -3.8281    1.2191 C.ar    1  UNL1        0.1715
     16 N           1.8618   -2.6358    0.7817 N.ar    1  UNL1       -0.1944
     17 C           1.3737    0.5835   -0.6263 C.ar    1  UNL1       -0.0245
     18 C           0.1003    0.2287   -0.1453 C.ar    1  UNL1       -0.0384
     19 C          -1.0395    0.9057   -0.5840 C.ar    1  UNL1        0.0427
     20 CL         -2.5799    0.4947    0.0649 Cl      1  UNL1       -0.0835
     21 C          -0.9412    1.9290   -1.5217 C.ar    1  UNL1       -0.0250
     22 C           0.3081    2.2563   -2.0361 C.ar    1  UNL1        0.0427
     23 CL          0.4514    3.5160   -3.2005 Cl      1  UNL1       -0.0835
     24 C           1.4554    1.5906   -1.6018 C.ar    1  UNL1       -0.0384
     25 H           3.5111    1.7899    0.5863 H       1  UNL1        0.0251
     26 H           4.6019    0.3984    0.6877 H       1  UNL1        0.0251
     27 H           4.2483    1.1281   -0.8769 H       1  UNL1        0.0251
     28 H           2.3667   -0.3388    1.0016 H       1  UNL1        0.0548
     29 H           4.6674   -1.3773   -2.0230 H       1  UNL1        0.0429
     30 H           3.1810   -1.9919   -2.7868 H       1  UNL1        0.0429
     31 H           3.4098   -0.2728   -2.5910 H       1  UNL1        0.0429
     32 H           3.1445   -5.6794   -1.0098 H       1  UNL1        0.0839
     33 H           1.2642   -8.1395    1.1464 H       1  UNL1        0.1437
     34 H           2.7343   -7.5921    0.5601 H       1  UNL1        0.1437
     35 H          -1.1603   -4.1470    3.7711 H       1  UNL1        0.1452
     36 H          -1.2587   -5.8666    3.6954 H       1  UNL1        0.1452
     37 H           0.0026   -0.5652    0.5948 H       1  UNL1        0.0635
     38 H          -1.8268    2.4676   -1.8448 H       1  UNL1        0.0647
     39 H           2.4168    1.8796   -2.0178 H       1  UNL1        0.0635
@<TRIPOS>BOND
     1     1    25    1
     2     1    26    1
     3     1    27    1
     4     3     2    1
     5     4     3    1
     6     4    29    1
     7     4    30    1
     8     4    31    1
     9     5     3    1
    10     6     5   ar
    11     7     6   ar
    12     7    32    1
    13     8     7   ar
    14     9     8   ar
    15    10     9    1
    16    10    33    1
    17    10    34    1
    18    11     9   ar
    19    12    11   ar
    20    13    12    1
    21    13    35    1
    22    13    36    1
    23    14    12   ar
    24    15    14   ar
    25    15     8   ar
    26    16    15   ar
    27    16     5   ar
    28    17     2    1
    29    18    17   ar
    30    18    37    1
    31    19    18   ar
    32    20    19    1
    33    21    19   ar
    34    21    38    1
    35    22    21   ar
    36    23    22    1
    37    24    22   ar
    38    24    17   ar
    39    24    39    1
    40     2    28    1
    41     2     1    1
