@<TRIPOS>MOLECULE
mol_151_akc_jbiopha2020111049
>147.sdf
 48 51 0 0 0
SMALL
GASTEIGER

@<TRIPOS>ATOM
      1 C          -2.4163   -0.0682   -0.0918 C.3     1  UNL1       -0.0431
      2 N          -0.9442   -0.0340    0.2205 N.4     1  UNL1        0.2331
      3 C          -0.2992    1.2416   -0.2598 C.3     1  UNL1       -0.0315
      4 C           1.1436    1.2899    0.2159 C.3     1  UNL1       -0.0042
      5 C           1.9462    0.0489   -0.2098 C.3     1  UNL1        0.0089
      6 C           1.2108   -1.2405    0.1890 C.3     1  UNL1       -0.0042
      7 C          -0.2284   -1.2541   -0.3016 C.3     1  UNL1       -0.0315
      8 C           3.3179    0.0805    0.4094 C.ar    1  UNL1        0.0205
      9 C           3.6917    0.1502    1.7326 C.ar    1  UNL1       -0.0326
     10 C           5.1118    0.1682    1.8080 C.ar    1  UNL1        0.0077
     11 C           5.5936    0.0880    0.5006 C.ar    1  UNL1        0.0545
     12 N           4.4803    0.0371   -0.3263 N.ar    1  UNL1       -0.3572
     13 C           6.9593    0.0516   -0.0480 C.ar    1  UNL1       -0.0009
     14 C           7.9665   -0.6992    0.5818 C.ar    1  UNL1       -0.0499
     15 C           9.2938   -0.6216    0.1539 C.ar    1  UNL1       -0.0258
     16 C           9.6132    0.1700   -0.9392 C.ar    1  UNL1        0.1234
     17 F          10.8878    0.2623   -1.3395 F       1  UNL1       -0.2055
     18 C           8.6288    0.8760   -1.6184 C.ar    1  UNL1       -0.0258
     19 C           7.3036    0.8222   -1.1713 C.ar    1  UNL1       -0.0499
     20 C           5.9121    0.2372    3.0289 C.ar    1  UNL1       -0.0130
     21 C           5.5151   -0.4920    4.1546 C.ar    1  UNL1       -0.0358
     22 C           6.3038   -0.4409    5.2916 C.ar    1  UNL1        0.0281
     23 N           7.4447    0.2700    5.3796 N.ar    1  UNL1       -0.2632
     24 C           7.8027    0.9817    4.2907 C.ar    1  UNL1        0.0281
     25 C           7.0662    1.0165    3.1178 C.ar    1  UNL1       -0.0358
     26 H          -2.8304   -0.9896    0.3260 H       1  UNL1        0.0777
     27 H          -2.8828    0.7974    0.3859 H       1  UNL1        0.0777
     28 H          -2.5445   -0.0356   -1.1767 H       1  UNL1        0.0777
     29 H          -0.8719   -0.0494    1.2480 H       1  UNL1        0.2030
     30 H          -0.3730    1.2639   -1.3524 H       1  UNL1        0.0814
     31 H          -0.8692    2.0762    0.1620 H       1  UNL1        0.0814
     32 H           1.6237    2.1956   -0.1754 H       1  UNL1        0.0323
     33 H           1.1461    1.3901    1.3095 H       1  UNL1        0.0323
     34 H           2.0436    0.0634   -1.3039 H       1  UNL1        0.0367
     35 H           1.7395   -2.1130   -0.2151 H       1  UNL1        0.0323
     36 H           1.2126   -1.3589    1.2809 H       1  UNL1        0.0323
     37 H          -0.7561   -2.1344    0.0809 H       1  UNL1        0.0814
     38 H          -0.2912   -1.2372   -1.3952 H       1  UNL1        0.0814
     39 H           3.0146    0.2002    2.5791 H       1  UNL1        0.0642
     40 H           4.5397   -0.0405   -1.3329 H       1  UNL1        0.1656
     41 H           7.7353   -1.3228    1.4431 H       1  UNL1        0.0625
     42 H          10.0778   -1.1590    0.6791 H       1  UNL1        0.0646
     43 H           8.9040    1.4837   -2.4747 H       1  UNL1        0.0646
     44 H           6.5598    1.4217   -1.6883 H       1  UNL1        0.0625
     45 H           4.6208   -1.1027    4.1529 H       1  UNL1        0.0639
     46 H           6.0334   -0.9941    6.1868 H       1  UNL1        0.0830
     47 H           8.7322    1.5358    4.3845 H       1  UNL1        0.0830
     48 H           7.4131    1.6268    2.2907 H       1  UNL1        0.0639
@<TRIPOS>UNITY_ATOM_ATTR
2 1
charge 1
@<TRIPOS>BOND
     1     1    26    1
     2     1    27    1
     3     1    28    1
     4     2     1    1
     5     2    29    1
     6     3     2    1
     7     3    30    1
     8     3    31    1
     9     4     3    1
    10     4    32    1
    11     4    33    1
    12     5     4    1
    13     5    34    1
    14     6     5    1
    15     6    35    1
    16     6    36    1
    17     7     6    1
    18     7     2    1
    19     7    37    1
    20     7    38    1
    21     8     5    1
    22     9     8   ar
    23     9    39    1
    24    10     9   ar
    25    11    10   ar
    26    12    11   ar
    27    12     8   ar
    28    12    40    1
    29    13    11    1
    30    14    13   ar
    31    14    41    1
    32    15    14   ar
    33    15    42    1
    34    16    15   ar
    35    17    16    1
    36    18    16   ar
    37    18    43    1
    38    19    18   ar
    39    19    13   ar
    40    19    44    1
    41    20    10    1
    42    21    20   ar
    43    21    45    1
    44    22    21   ar
    45    22    46    1
    46    23    22   ar
    47    24    23   ar
    48    24    47    1
    49    25    24   ar
    50    25    20   ar
    51    25    48    1
