@<TRIPOS>MOLECULE
mol_152_akc_jbiopha2020111049
>148.sdf
 48 50 0 0 0
SMALL
GASTEIGER

@<TRIPOS>ATOM
      1 C           3.8419   -1.0621    1.1457 C.3     1  UNL1       -0.0610
      2 C           3.3814    0.0301    0.1898 C.3     1  UNL1       -0.0237
      3 C           3.4214   -0.4309   -1.2444 C.ar    1  UNL1        0.0377
      4 C           2.3846   -0.9480   -1.9393 C.ar    1  UNL1        0.0503
      5 C           1.0387   -1.1414   -1.2877 C.3     1  UNL1       -0.0218
      6 N           2.4594   -1.3706   -3.2553 N.ar    1  UNL1       -0.2170
      7 C           3.6227   -1.2741   -3.8158 C.ar    1  UNL1        0.2337
      8 N           4.7430   -0.7711   -3.2208 N.ar    1  UNL1       -0.2912
      9 C           4.7208   -0.2860   -1.9528 C.ar    1  UNL1        0.2562
     10 O           5.7035    0.2298   -1.4358 O.2     1  UNL1       -0.2675
     11 N           3.8792   -1.6860   -5.1326 N.ar    1  UNL1       -0.1849
     12 N           5.1448   -1.5797   -5.6418 N.ar    1  UNL1       -0.1674
     13 C           5.0430   -2.0684   -6.8820 C.ar    1  UNL1        0.0623
     14 C           6.2328   -2.1454   -7.7671 C.3     1  UNL1       -0.0205
     15 C           3.7245   -2.4722   -7.1814 C.ar    1  UNL1        0.0013
     16 C           2.9833   -2.2158   -6.0499 C.ar    1  UNL1        0.1321
     17 N           1.6220   -2.4490   -5.8342 N.am    1  UNL1       -0.2661
     18 C           0.7202   -2.8924   -6.8543 C.2     1  UNL1        0.2504
     19 O           1.0994   -2.9971   -8.0108 O.2     1  UNL1       -0.2698
     20 C          -0.7011   -3.1713   -6.5107 C.ar    1  UNL1        0.0504
     21 C          -1.6163   -3.0259   -7.5734 C.ar    1  UNL1       -0.0486
     22 C          -2.9705   -3.2988   -7.3982 C.ar    1  UNL1       -0.0610
     23 C          -3.4272   -3.7209   -6.1575 C.ar    1  UNL1       -0.0607
     24 C          -2.5312   -3.8675   -5.0945 C.ar    1  UNL1       -0.0476
     25 C          -1.1573   -3.6113   -5.2543 C.ar    1  UNL1        0.0197
     26 S          -0.0845   -3.8084   -3.8367 S.3     1  UNL1       -0.1278
     27 C          -0.4653   -5.4989   -3.3039 C.3     1  UNL1       -0.0134
     28 H           3.7616   -0.7154    2.1809 H       1  UNL1        0.0233
     29 H           3.2277   -1.9633    1.0455 H       1  UNL1        0.0233
     30 H           4.8851   -1.3393    0.9620 H       1  UNL1        0.0233
     31 H           2.3704    0.3442    0.4714 H       1  UNL1        0.0313
     32 H           4.0046    0.9226    0.3226 H       1  UNL1        0.0313
     33 H           1.1162   -1.8249   -0.4355 H       1  UNL1        0.0293
     34 H           0.6249   -0.1863   -0.9498 H       1  UNL1        0.0293
     35 H           0.3135   -1.5689   -1.9835 H       1  UNL1        0.0293
     36 H           5.6095   -0.7101   -3.7481 H       1  UNL1        0.1719
     37 H           6.6834   -1.1562   -7.8955 H       1  UNL1        0.0293
     38 H           6.9834   -2.8205   -7.3433 H       1  UNL1        0.0293
     39 H           5.9599   -2.5236   -8.7577 H       1  UNL1        0.0293
     40 H           3.3929   -2.9046   -8.1147 H       1  UNL1        0.0670
     41 H           1.2753   -2.3005   -4.8823 H       1  UNL1        0.1566
     42 H          -1.2771   -2.6968   -8.5563 H       1  UNL1        0.0625
     43 H          -3.6640   -3.1817   -8.2288 H       1  UNL1        0.0618
     44 H          -4.4848   -3.9342   -6.0134 H       1  UNL1        0.0618
     45 H          -2.9348   -4.1795   -4.1327 H       1  UNL1        0.0629
     46 H          -1.4947   -5.5826   -2.9489 H       1  UNL1        0.0344
     47 H          -0.2934   -6.2030   -4.1213 H       1  UNL1        0.0344
     48 H           0.2017   -5.7562   -2.4761 H       1  UNL1        0.0344
@<TRIPOS>BOND
     1     1    28    1
     2     1    29    1
     3     1    30    1
     4     2     1    1
     5     2    31    1
     6     2    32    1
     7     3     2    1
     8     4     3   ar
     9     5     4    1
    10     5    33    1
    11     5    34    1
    12     5    35    1
    13     6     4   ar
    14     7     6   ar
    15     8     7   ar
    16     8    36    1
    17     9     8   ar
    18     9     3   ar
    19    10     9    2
    20    11     7    1
    21    12    11   ar
    22    13    12   ar
    23    14    13    1
    24    14    37    1
    25    14    38    1
    26    14    39    1
    27    15    13   ar
    28    15    40    1
    29    16    15   ar
    30    16    11   ar
    31    17    16    1
    32    17    41    1
    33    18    17   am
    34    19    18    2
    35    20    18    1
    36    21    20   ar
    37    21    42    1
    38    22    21   ar
    39    22    43    1
    40    23    22   ar
    41    23    44    1
    42    24    23   ar
    43    24    45    1
    44    25    24   ar
    45    25    20   ar
    46    26    25    1
    47    27    26    1
    48    27    46    1
    49    27    47    1
    50    27    48    1
