@<TRIPOS>MOLECULE
mol_153_akc_jintimp2020107124
>149.sdf
 48 51 0 0 0
SMALL
GASTEIGER

@<TRIPOS>ATOM
      1 C           3.7074    0.7935   -2.1776 C.3     1  UNL1       -0.0618
      2 C           2.6805   -0.0079   -1.3285 C.3     1  UNL1       -0.0357
      3 C           2.1008    0.9124   -0.2440 C.3     1  UNL1       -0.0474
      4 C           3.1725    1.4632    0.6894 C.3     1  UNL1       -0.0236
      5 C           4.1879    0.4467    1.0795 C.3     1  UNL1        0.0887
      6 C           4.3212   -0.9123    0.3771 C.3     1  UNL1        0.0988
      7 C           3.3215   -1.3354   -0.7420 C.3     1  UNL1        0.0020
      8 C           3.9889   -2.0317   -1.9673 C.3     1  UNL1       -0.0566
      9 C           2.2754   -2.3778   -0.1367 C.3     1  UNL1       -0.0407
     10 C           3.0102   -3.5728    0.5346 C.3     1  UNL1       -0.0271
     11 C           2.3346   -4.7722    1.1478 C.ar    1  UNL1       -0.0466
     12 C           1.0531   -5.2273    0.8448 C.ar    1  UNL1       -0.0471
     13 C           0.5796   -6.4150    1.4383 C.ar    1  UNL1        0.0327
     14 C           1.3810   -7.1453    2.3221 C.ar    1  UNL1        0.0325
     15 C           2.6702   -6.7097    2.6086 C.ar    1  UNL1       -0.0500
     16 C           3.1377   -5.5390    2.0224 C.ar    1  UNL1       -0.0579
     17 C           0.8928   -8.3835    2.9623 C.2     1  UNL1        0.1869
     18 O           1.5829   -9.0425    3.7195 O.2     1  UNL1       -0.2873
     19 C          -0.4898   -8.8074    2.6604 C.2     1  UNL1       -0.0107
     20 C          -1.2545   -8.1237    1.8064 C.2     1  UNL1       -0.0107
     21 C          -0.7750   -6.9054    1.1229 C.2     1  UNL1        0.1869
     22 O          -1.5080   -6.3308    0.3269 O.2     1  UNL1       -0.2873
     23 O           3.6550   -0.7266    1.6603 O.3     1  UNL1       -0.3645
     24 C           5.6297   -1.6380    0.5380 C.3     1  UNL1       -0.0328
     25 H           3.4547    1.8566   -2.2409 H       1  UNL1        0.0233
     26 H           4.7226    0.7259   -1.7675 H       1  UNL1        0.0233
     27 H           3.7456    0.4114   -3.2032 H       1  UNL1        0.0233
     28 H           1.8529   -0.2827   -1.9961 H       1  UNL1        0.0304
     29 H           1.3392    0.3766    0.3314 H       1  UNL1        0.0269
     30 H           1.5831    1.7583   -0.7166 H       1  UNL1        0.0269
     31 H           2.6985    1.8851    1.5833 H       1  UNL1        0.0291
     32 H           3.6932    2.2961    0.2009 H       1  UNL1        0.0291
     33 H           5.0488    0.8895    1.5632 H       1  UNL1        0.0625
     34 H           4.9453   -1.5739   -2.2359 H       1  UNL1        0.0236
     35 H           4.1855   -3.0950   -1.8285 H       1  UNL1        0.0236
     36 H           3.3289   -1.9754   -2.8433 H       1  UNL1        0.0236
     37 H           1.6354   -1.8950    0.6114 H       1  UNL1        0.0275
     38 H           1.6085   -2.7355   -0.9304 H       1  UNL1        0.0275
     39 H           3.7238   -4.0046   -0.1714 H       1  UNL1        0.0313
     40 H           3.5970   -3.1555    1.3567 H       1  UNL1        0.0313
     41 H           0.4226   -4.6840    0.1439 H       1  UNL1        0.0628
     42 H           3.3162   -7.2749    3.2771 H       1  UNL1        0.0625
     43 H           4.1573   -5.2207    2.2442 H       1  UNL1        0.0620
     44 H          -0.8378   -9.6999    3.1648 H       1  UNL1        0.0657
     45 H          -2.2714   -8.4323    1.5824 H       1  UNL1        0.0657
     46 H           6.4605   -0.9262    0.5251 H       1  UNL1        0.0258
     47 H           5.6655   -2.1697    1.4958 H       1  UNL1        0.0258
     48 H           5.8145   -2.3764   -0.2437 H       1  UNL1        0.0258
@<TRIPOS>BOND
     1     1    25    1
     2     1    26    1
     3     1    27    1
     4     3     2    1
     5     4     3    1
     6     5     4    1
     7     6     5    1
     8     7     6    1
     9     7     2    1
    10     8    34    1
    11     8    35    1
    12     8    36    1
    13     9    37    1
    14     9    38    1
    15    10     9    1
    16    10    39    1
    17    10    40    1
    18    11    10    1
    19    12    11   ar
    20    12    41    1
    21    13    12   ar
    22    14    13   ar
    23    15    14   ar
    24    15    42    1
    25    16    15   ar
    26    16    11   ar
    27    16    43    1
    28    17    14    1
    29    18    17    2
    30    19    17    1
    31    19    44    1
    32    20    19    2
    33    20    45    1
    34    21    20    1
    35    21    13    1
    36    22    21    2
    37    23     6    1
    38    23     5    1
    39    24    46    1
    40    24    47    1
    41    24    48    1
    42     2     1    1
    43     2    28    1
    44     3    29    1
    45     3    30    1
    46     4    31    1
    47     4    32    1
    48     5    33    1
    49     6    24    1
    50     7     9    1
    51     7     8    1
