@<TRIPOS>MOLECULE
mol_155_akc_1478641920201747457
>151.sdf
 77 80 0 0 0
SMALL
GASTEIGER

@<TRIPOS>ATOM
      1 C           2.6002   -2.3697   -4.9314 C.3     1  UNL1       -0.0616
      2 C           3.6432   -1.3247   -4.5817 C.3     1  UNL1       -0.0343
      3 C           3.0523    0.0755   -4.5054 C.2     1  UNL1       -0.0661
      4 C           2.5230    0.6185   -5.8015 C.3     1  UNL1       -0.0433
      5 C           3.0666    0.7487   -3.3361 C.2     1  UNL1        0.0215
      6 C           2.4689    2.0832   -3.1361 C.2     1  UNL1        0.3324
      7 O           1.5149    2.5459   -3.7427 O.2     1  UNL1       -0.2456
      8 O           3.1334    2.6832   -2.1238 O.3     1  UNL1       -0.4504
      9 C           2.6696    4.0217   -1.7652 C.3     1  UNL1        0.1819
     10 C           3.8563    4.6533   -1.0314 C.3     1  UNL1        0.1250
     11 O           4.5544    5.5538   -1.9151 O.3     1  UNL1       -0.3853
     12 C           3.4609    5.3768    0.2540 C.3     1  UNL1        0.1105
     13 O           4.6352    5.7592    0.9915 O.3     1  UNL1       -0.3865
     14 C           2.5738    4.5024    1.1437 C.3     1  UNL1        0.0874
     15 C           1.7980    5.3723    2.1192 C.3     1  UNL1       -0.0361
     16 O           1.6857    3.6182    0.4578 O.3     1  UNL1       -0.3421
     17 C           1.3885    3.9118   -0.9042 C.3     1  UNL1        0.1997
     18 O           0.5561    5.0610   -1.0756 O.3     1  UNL1       -0.3412
     19 C          -0.8897    4.8667   -1.0182 C.3     1  UNL1        0.0730
     20 C          -1.4419    6.1865   -1.6264 C.3     1  UNL1       -0.0354
     21 C          -1.4274    3.7673   -2.0017 C.3     1  UNL1       -0.0234
     22 C          -1.4855    2.2736   -1.6604 C.3     1  UNL1       -0.0468
     23 C          -1.5673    1.8508   -0.2295 C.3     1  UNL1       -0.0319
     24 C          -2.3229    2.5073    0.9142 C.3     1  UNL1       -0.0289
     25 C          -2.6918    3.9440    0.6408 C.3     1  UNL1       -0.0294
     26 C          -3.4763    4.7116    1.7277 C.3     1  UNL1       -0.0404
     27 C          -3.3189    4.2143    3.1620 C.3     1  UNL1       -0.0621
     28 C          -2.9576    6.1482    1.5757 C.3     1  UNL1       -0.0498
     29 C          -1.4731    5.9741    1.3256 C.3     1  UNL1       -0.0471
     30 C          -1.3469    4.7067    0.4650 C.3     1  UNL1       -0.0087
     31 C          -2.8419    1.2123    0.3006 C.3     1  UNL1       -0.0284
     32 C          -4.1870    1.2829   -0.3707 C.3     1  UNL1       -0.0593
     33 C          -2.5900   -0.1155    0.9860 C.3     1  UNL1       -0.0593
     34 H           2.2307   -2.2370   -5.9540 H       1  UNL1        0.0233
     35 H           3.0392   -3.3733   -4.8690 H       1  UNL1        0.0233
     36 H           1.7477   -2.3279   -4.2520 H       1  UNL1        0.0233
     37 H           4.1079   -1.5967   -3.6249 H       1  UNL1        0.0307
     38 H           4.4463   -1.3370   -5.3245 H       1  UNL1        0.0307
     39 H           2.4088    1.7076   -5.7985 H       1  UNL1        0.0274
     40 H           3.2171    0.3955   -6.6188 H       1  UNL1        0.0274
     41 H           1.5528    0.1733   -6.0377 H       1  UNL1        0.0274
     42 H           3.5189    0.3154   -2.4498 H       1  UNL1        0.0688
     43 H           2.4658    4.5781   -2.6908 H       1  UNL1        0.0813
     44 H           4.6040    3.8882   -0.7844 H       1  UNL1        0.0659
     45 H           4.1280    6.4308   -1.8639 H       1  UNL1        0.2101
     46 H           2.9508    6.3126   -0.0020 H       1  UNL1        0.0646
     47 H           5.1851    4.9660    1.1210 H       1  UNL1        0.2100
     48 H           3.2095    3.8450    1.7514 H       1  UNL1        0.0621
     49 H           1.2101    6.1162    1.5776 H       1  UNL1        0.0255
     50 H           1.1081    4.7705    2.7185 H       1  UNL1        0.0255
     51 H           2.4702    5.9108    2.7930 H       1  UNL1        0.0255
     52 H           0.8574    3.0354   -1.2538 H       1  UNL1        0.0949
     53 H          -1.0422    7.0792   -1.1398 H       1  UNL1        0.0257
     54 H          -2.5371    6.2238   -1.5915 H       1  UNL1        0.0257
     55 H          -1.1380    6.2787   -2.6775 H       1  UNL1        0.0257
     56 H          -2.4618    4.0317   -2.2680 H       1  UNL1        0.0293
     57 H          -0.8756    3.8553   -2.9486 H       1  UNL1        0.0293
     58 H          -0.6061    1.7813   -2.0940 H       1  UNL1        0.0269
     59 H          -2.3147    1.8311   -2.2275 H       1  UNL1        0.0269
     60 H          -0.6023    1.4456    0.0727 H       1  UNL1        0.0309
     61 H          -1.8737    2.4019    1.8998 H       1  UNL1        0.0312
     62 H          -3.2962    4.0278   -0.2674 H       1  UNL1        0.0310
     63 H          -4.5481    4.6971    1.4942 H       1  UNL1        0.0301
     64 H          -3.8299    3.2547    3.2905 H       1  UNL1        0.0233
     65 H          -3.7718    4.9215    3.8660 H       1  UNL1        0.0233
     66 H          -2.2703    4.0887    3.4477 H       1  UNL1        0.0233
     67 H          -3.1462    6.7721    2.4553 H       1  UNL1        0.0268
     68 H          -3.4266    6.6357    0.7135 H       1  UNL1        0.0268
     69 H          -0.9994    6.8663    0.9136 H       1  UNL1        0.0269
     70 H          -0.9897    5.7972    2.2943 H       1  UNL1        0.0269
     71 H          -0.5657    4.1253    0.9627 H       1  UNL1        0.0331
     72 H          -4.3229    0.4362   -1.0515 H       1  UNL1        0.0235
     73 H          -4.9753    1.2320    0.3896 H       1  UNL1        0.0235
     74 H          -4.3381    2.1990   -0.9459 H       1  UNL1        0.0235
     75 H          -3.1448   -0.1869    1.9245 H       1  UNL1        0.0235
     76 H          -2.8942   -0.9420    0.3331 H       1  UNL1        0.0235
     77 H          -1.5270   -0.2692    1.2084 H       1  UNL1        0.0235
@<TRIPOS>BOND
     1     1    34    1
     2     1    35    1
     3     1    36    1
     4     2     1    1
     5     2    37    1
     6     2    38    1
     7     3     2    1
     8     4     3    1
     9     4    39    1
    10     4    40    1
    11     4    41    1
    12     5     3    2
    13     5    42    1
    14     6     5    1
    15     7     6    2
    16     8     6    1
    17     9     8    1
    18     9    43    1
    19    10     9    1
    20    10    44    1
    21    11    10    1
    22    11    45    1
    23    12    10    1
    24    13    47    1
    25    14    12    1
    26    14    48    1
    27    15    14    1
    28    15    49    1
    29    15    50    1
    30    15    51    1
    31    16    14    1
    32    17    16    1
    33    17     9    1
    34    20    53    1
    35    20    54    1
    36    20    55    1
    37    21    19    1
    38    21    56    1
    39    21    57    1
    40    22    21    1
    41    22    58    1
    42    22    59    1
    43    23    22    1
    44    23    60    1
    45    24    23    1
    46    24    61    1
    47    25    24    1
    48    25    62    1
    49    26    25    1
    50    27    64    1
    51    27    65    1
    52    27    66    1
    53    28    26    1
    54    28    67    1
    55    28    68    1
    56    29    28    1
    57    29    69    1
    58    29    70    1
    59    30    29    1
    60    30    19    1
    61    30    25    1
    62    30    71    1
    63    31    24    1
    64    31    23    1
    65    32    31    1
    66    32    72    1
    67    32    73    1
    68    32    74    1
    69    33    31    1
    70    33    75    1
    71    33    76    1
    72    33    77    1
    73    12    13    1
    74    12    46    1
    75    17    18    1
    76    17    52    1
    77    19    20    1
    78    19    18    1
    79    26    27    1
    80    26    63    1
