@<TRIPOS>MOLECULE
mol_157_akc_fphar2020584668
>153.sdf
 34 35 0 0 0
SMALL
GASTEIGER

@<TRIPOS>ATOM
      1 C           1.2797   -0.4233   -0.1053 C.3     1  UNL1        0.0788
      2 O           2.5263    0.2239   -0.3325 O.3     1  UNL1       -0.4950
      3 C           3.1704    0.7290    0.7648 C.ar    1  UNL1        0.1241
      4 C           2.6867    0.7168    2.0725 C.ar    1  UNL1       -0.0126
      5 C           3.4574    1.2318    3.1286 C.ar    1  UNL1       -0.0181
      6 C           2.9705    1.2359    4.5186 C.2     1  UNL1       -0.0538
      7 C           2.1901    0.2726    5.0363 C.2     1  UNL1       -0.0540
      8 C           1.6870    0.2402    6.4189 C.ar    1  UNL1       -0.0250
      9 C           1.4551    1.3999    7.1703 C.ar    1  UNL1       -0.0546
     10 C           0.9335    1.3172    8.4644 C.ar    1  UNL1       -0.0612
     11 C           0.6257    0.0766    9.0172 C.ar    1  UNL1       -0.0617
     12 C           0.8371   -1.0833    8.2767 C.ar    1  UNL1       -0.0612
     13 C           1.3613   -1.0012    6.9841 C.ar    1  UNL1       -0.0546
     14 C           4.7072    1.8016    2.8454 C.ar    1  UNL1       -0.0126
     15 C           5.1973    1.8153    1.5389 C.ar    1  UNL1        0.1241
     16 O           6.4035    2.3387    1.1579 O.3     1  UNL1       -0.4950
     17 C           7.4248    2.3026    2.1491 C.3     1  UNL1        0.0788
     18 C           4.4200    1.2909    0.5043 C.ar    1  UNL1        0.0218
     19 H           1.3682   -1.2267    0.6342 H       1  UNL1        0.0660
     20 H           0.5168    0.3040    0.1911 H       1  UNL1        0.0660
     21 H           0.9622   -0.8800   -1.0475 H       1  UNL1        0.0660
     22 H           1.7025    0.3198    2.2911 H       1  UNL1        0.0660
     23 H           3.3130    2.0655    5.1318 H       1  UNL1        0.0624
     24 H           1.8994   -0.5810    4.4281 H       1  UNL1        0.0624
     25 H           1.6627    2.3826    6.7566 H       1  UNL1        0.0623
     26 H           0.7598    2.2255    9.0366 H       1  UNL1        0.0618
     27 H           0.2149    0.0142   10.0215 H       1  UNL1        0.0618
     28 H           0.5914   -2.0530    8.7015 H       1  UNL1        0.0618
     29 H           1.5155   -1.9206    6.4234 H       1  UNL1        0.0623
     30 H           5.2843    2.2354    3.6560 H       1  UNL1        0.0660
     31 H           7.2581    3.0691    2.9122 H       1  UNL1        0.0660
     32 H           7.5081    1.3082    2.6016 H       1  UNL1        0.0660
     33 H           8.3760    2.5251    1.6561 H       1  UNL1        0.0660
     34 H           4.7995    1.3113   -0.5138 H       1  UNL1        0.0691
@<TRIPOS>BOND
     1     1    19    1
     2     1    20    1
     3     1    21    1
     4     2     1    1
     5     3     2    1
     6     4     3   ar
     7     4    22    1
     8     5     4   ar
     9     6     5    1
    10     6    23    1
    11     7     6    2
    12     7    24    1
    13     8     7    1
    14     9     8   ar
    15     9    25    1
    16    10     9   ar
    17    10    26    1
    18    11    10   ar
    19    11    27    1
    20    12    11   ar
    21    12    28    1
    22    13    12   ar
    23    13     8   ar
    24    13    29    1
    25    14     5   ar
    26    14    30    1
    27    15    14   ar
    28    16    15    1
    29    17    16    1
    30    17    31    1
    31    17    32    1
    32    17    33    1
    33    18    15   ar
    34    18     3   ar
    35    18    34    1
