@<TRIPOS>MOLECULE
mol_158_akc_fvets202000527
>154.sdf
 47 48 0 0 0
SMALL
GASTEIGER

@<TRIPOS>ATOM
      1 C           0.8353   -0.0775    0.0151 C.3     1  UNL1        0.0788
      2 O           2.2560   -0.1339   -0.0021 O.3     1  UNL1       -0.4944
      3 C           2.9529    1.0481    0.0710 C.ar    1  UNL1        0.1307
      4 C           2.3321    2.2975    0.0941 C.ar    1  UNL1        0.0224
      5 C           3.0814    3.4811    0.1081 C.ar    1  UNL1        0.1243
      6 O           2.3795    4.6535    0.1306 O.3     1  UNL1       -0.5063
      7 C           4.4838    3.4728    0.0805 C.ar    1  UNL1        0.0042
      8 C           5.0948    2.1886    0.0735 C.ar    1  UNL1       -0.0436
      9 C           4.3603    0.9789    0.1000 C.ar    1  UNL1        0.0173
     10 C           5.1202   -0.2975    0.1049 C.2     1  UNL1       -0.0475
     11 C           4.6983   -1.4084    0.7290 C.2     1  UNL1       -0.0137
     12 C           5.4365   -2.6979    0.6684 C.2     1  UNL1        0.1861
     13 O           6.6326   -2.7598    0.4023 O.2     1  UNL1       -0.2873
     14 C           4.6563   -3.9282    0.9957 C.ar    1  UNL1        0.0219
     15 C           3.3005   -4.0496    0.6479 C.ar    1  UNL1       -0.0475
     16 C           2.5878   -5.2070    0.9789 C.ar    1  UNL1       -0.0195
     17 C           3.2341   -6.2422    1.6480 C.ar    1  UNL1        0.1169
     18 O           2.5733   -7.3835    1.9921 O.3     1  UNL1       -0.5068
     19 C           4.5810   -6.1414    1.9806 C.ar    1  UNL1       -0.0195
     20 C           5.2971   -4.9879    1.6470 C.ar    1  UNL1       -0.0475
     21 C           5.3763    4.7437    0.0173 C.3     1  UNL1        0.0113
     22 C           6.2104    4.6913   -1.2895 C.3     1  UNL1       -0.0522
     23 C           4.6120    6.0917   -0.0295 C.3     1  UNL1       -0.0522
     24 C           6.3652    4.8983    1.1820 C.2     1  UNL1       -0.0811
     25 C           6.4958    4.1698    2.3000 C.2     1  UNL1       -0.1018
     26 H           0.4679    0.3974    0.9309 H       1  UNL1        0.0660
     27 H           0.4525    0.4276   -0.8776 H       1  UNL1        0.0660
     28 H           0.4600   -1.1050    0.0035 H       1  UNL1        0.0660
     29 H           1.2515    2.3740    0.0872 H       1  UNL1        0.0691
     30 H           1.4271    4.4748    0.1718 H       1  UNL1        0.2921
     31 H           6.1843    2.1280    0.0672 H       1  UNL1        0.0629
     32 H           6.0648   -0.3028   -0.4357 H       1  UNL1        0.0626
     33 H           3.7776   -1.4182    1.2999 H       1  UNL1        0.0656
     34 H           2.7904   -3.2595    0.1030 H       1  UNL1        0.0626
     35 H           1.5395   -5.2828    0.7046 H       1  UNL1        0.0654
     36 H           1.6604   -7.3285    1.6704 H       1  UNL1        0.2921
     37 H           5.0731   -6.9618    2.4981 H       1  UNL1        0.0654
     38 H           6.3527   -4.9165    1.9042 H       1  UNL1        0.0626
     39 H           5.5602    4.6362   -2.1704 H       1  UNL1        0.0241
     40 H           6.8358    5.5865   -1.4012 H       1  UNL1        0.0241
     41 H           6.8871    3.8303   -1.3217 H       1  UNL1        0.0241
     42 H           4.0152    6.2535    0.8763 H       1  UNL1        0.0241
     43 H           5.2973    6.9460   -0.1027 H       1  UNL1        0.0241
     44 H           3.9555    6.1543   -0.9053 H       1  UNL1        0.0241
     45 H           7.0448    5.7480    1.0829 H       1  UNL1        0.0575
     46 H           5.8717    3.3142    2.5216 H       1  UNL1        0.0532
     47 H           7.2519    4.4329    3.0336 H       1  UNL1        0.0532
@<TRIPOS>BOND
     1     1    26    1
     2     1    27    1
     3     1    28    1
     4     2     1    1
     5     3     2    1
     6     4     3   ar
     7     4    29    1
     8     5     4   ar
     9     6     5    1
    10     6    30    1
    11     7     5   ar
    12     8     7   ar
    13     8    31    1
    14     9     8   ar
    15     9     3   ar
    16    10     9    1
    17    10    32    1
    18    11    10    2
    19    11    33    1
    20    12    11    1
    21    13    12    2
    22    14    12    1
    23    15    14   ar
    24    15    34    1
    25    16    15   ar
    26    16    35    1
    27    17    16   ar
    28    18    17    1
    29    18    36    1
    30    19    17   ar
    31    19    37    1
    32    20    19   ar
    33    20    14   ar
    34    20    38    1
    35    21     7    1
    36    22    21    1
    37    22    39    1
    38    22    40    1
    39    22    41    1
    40    23    21    1
    41    23    42    1
    42    23    43    1
    43    23    44    1
    44    24    21    1
    45    24    45    1
    46    25    24    2
    47    25    46    1
    48    25    47    1
