@<TRIPOS>MOLECULE
mol_159_akc_journalpone0243392
>155.sdf
 28 30 0 0 0
SMALL
GASTEIGER

@<TRIPOS>ATOM
      1 O           3.5267   -0.3019   -1.0608 O.3     1  UNL1       -0.3899
      2 C           2.2693    0.0009   -0.4350 C.3     1  UNL1        0.0746
      3 C           1.2818    0.5097   -1.5047 C.3     1  UNL1        0.0355
      4 N           0.4838    1.6625   -1.0939 N.pl3   1  UNL1       -0.3407
      5 C           1.3209    2.7124   -0.6217 C.ar    1  UNL1        0.0383
      6 C           2.3059    2.4065    0.3329 C.ar    1  UNL1       -0.0234
      7 C           2.5118    0.9703    0.7333 C.3     1  UNL1        0.0017
      8 C           3.0325    3.4378    0.9336 C.ar    1  UNL1       -0.0562
      9 C           2.8177    4.7608    0.5431 C.ar    1  UNL1       -0.0537
     10 C           1.8805    5.0788   -0.4505 C.ar    1  UNL1       -0.0161
     11 C           1.7106    6.4044   -0.8876 C.ar    1  UNL1       -0.0540
     12 C           0.8016    6.7160   -1.9000 C.ar    1  UNL1       -0.0612
     13 C           0.0318    5.7094   -2.4736 C.ar    1  UNL1       -0.0611
     14 C           0.1728    4.3934   -2.0334 C.ar    1  UNL1       -0.0523
     15 C           1.1036    4.0485   -1.0323 C.ar    1  UNL1        0.0032
     16 H           3.8744    0.5340   -1.4242 H       1  UNL1        0.2099
     17 H           1.9061   -0.9492   -0.0277 H       1  UNL1        0.0612
     18 H           0.5991   -0.3040   -1.7811 H       1  UNL1        0.0487
     19 H           1.8149    0.7667   -2.4287 H       1  UNL1        0.0487
     20 H          -0.1620    1.4197   -0.3391 H       1  UNL1        0.1462
     21 H           1.8110    0.7487    1.5481 H       1  UNL1        0.0339
     22 H           3.5294    0.8340    1.1194 H       1  UNL1        0.0339
     23 H           3.7688    3.2203    1.7025 H       1  UNL1        0.0621
     24 H           3.4002    5.5470    1.0193 H       1  UNL1        0.0624
     25 H           2.3029    7.2060   -0.4518 H       1  UNL1        0.0624
     26 H           0.7023    7.7399   -2.2460 H       1  UNL1        0.0618
     27 H          -0.6698    5.9420   -3.2691 H       1  UNL1        0.0618
     28 H          -0.4284    3.6155   -2.5012 H       1  UNL1        0.0624
@<TRIPOS>BOND
     1     1    16    1
     2     3     2    1
     3     3    18    1
     4     3    19    1
     5     4     3    1
     6     4    20    1
     7     5     4    1
     8     6     5   ar
     9     7     6    1
    10     7     2    1
    11     7    21    1
    12     7    22    1
    13     8     6   ar
    14     8    23    1
    15     9     8   ar
    16     9    24    1
    17    10     9   ar
    18    11    10   ar
    19    11    25    1
    20    12    11   ar
    21    12    26    1
    22    13    12   ar
    23    13    27    1
    24    14    13   ar
    25    14    28    1
    26    15    14   ar
    27    15     5   ar
    28    15    10   ar
    29     2    17    1
    30     2     1    1
