@<TRIPOS>MOLECULE
mol_15_akc_jejmech200702010
>15.sdf
 37 39 0 0 0
SMALL
GASTEIGER

@<TRIPOS>ATOM
      1 C           1.0751   -1.0733    0.1541 C.3     1  UNL1        0.0125
      2 C           2.5313   -1.4335    0.2561 C.2     1  UNL1        0.2141
      3 O           2.9322   -2.1573    1.1639 O.2     1  UNL1       -0.2758
      4 N           3.3151   -0.9050   -0.7567 N.am    1  UNL1       -0.2857
      5 C           4.7252   -0.9278   -0.7325 C.ar    1  UNL1        0.0354
      6 C           5.4377   -1.0189   -1.9359 C.ar    1  UNL1       -0.0145
      7 C           6.8276   -1.1257   -1.9538 C.ar    1  UNL1        0.0734
      8 N           7.4825   -1.3327   -3.1170 N.ar    1  UNL1       -0.2466
      9 C           8.8231   -1.4962   -3.1013 C.ar    1  UNL1        0.0734
     10 C           9.5737   -1.4019   -1.9147 C.ar    1  UNL1        0.0011
     11 C          10.9587   -1.5761   -1.9253 C.ar    1  UNL1       -0.0508
     12 C          11.6212   -1.8686   -3.1138 C.ar    1  UNL1       -0.0398
     13 C          10.9062   -1.9834   -4.3022 C.ar    1  UNL1        0.0354
     14 N          11.5072   -2.2945   -5.5426 N.am    1  UNL1       -0.2857
     15 C          12.8493   -2.5353   -5.7839 C.2     1  UNL1        0.2141
     16 C          13.1490   -2.8324   -7.2313 C.3     1  UNL1        0.0125
     17 O          13.7634   -2.5114   -4.9629 O.2     1  UNL1       -0.2758
     18 C           9.5145   -1.7863   -4.2768 C.ar    1  UNL1       -0.0145
     19 C           8.8952   -1.1564   -0.7224 C.ar    1  UNL1       -0.0434
     20 C           7.5086   -1.0437   -0.7233 C.ar    1  UNL1        0.0011
     21 C           6.8098   -0.8794    0.4774 C.ar    1  UNL1       -0.0508
     22 C           5.4223   -0.8423    0.4718 C.ar    1  UNL1       -0.0398
     23 H           0.5125   -1.9230   -0.2393 H       1  UNL1        0.0323
     24 H           0.7132   -0.8278    1.1579 H       1  UNL1        0.0323
     25 H           0.9209   -0.2000   -0.4841 H       1  UNL1        0.0323
     26 H           2.8636   -0.7133   -1.6425 H       1  UNL1        0.1548
     27 H           4.9100   -1.0821   -2.8835 H       1  UNL1        0.0657
     28 H          11.5382   -1.5018   -1.0077 H       1  UNL1        0.0625
     29 H          12.6967   -2.0072   -3.0687 H       1  UNL1        0.0636
     30 H          10.8791   -2.3541   -6.3338 H       1  UNL1        0.1548
     31 H          13.6999   -1.9900   -7.6584 H       1  UNL1        0.0323
     32 H          13.7600   -3.7379   -7.2892 H       1  UNL1        0.0323
     33 H          12.2405   -2.9955   -7.8172 H       1  UNL1        0.0323
     34 H           8.9309   -1.8722   -5.1909 H       1  UNL1        0.0657
     35 H           9.4469   -1.0910    0.2131 H       1  UNL1        0.0631
     36 H           7.3346   -0.8091    1.4271 H       1  UNL1        0.0625
     37 H           4.8991   -0.7328    1.4186 H       1  UNL1        0.0636
@<TRIPOS>BOND
     1     1    23    1
     2     1    24    1
     3     1    25    1
     4     2     1    1
     5     3     2    2
     6     4     2   am
     7     4    26    1
     8     5     4    1
     9     6     5   ar
    10     6    27    1
    11     7     6   ar
    12     8     7   ar
    13     9     8   ar
    14    10     9   ar
    15    11    10   ar
    16    11    28    1
    17    12    11   ar
    18    12    29    1
    19    13    12   ar
    20    14    13    1
    21    14    30    1
    22    15    14   am
    23    16    15    1
    24    16    31    1
    25    16    32    1
    26    16    33    1
    27    17    15    2
    28    18    13   ar
    29    18     9   ar
    30    18    34    1
    31    19    10   ar
    32    19    35    1
    33    20    19   ar
    34    20     7   ar
    35    21    20   ar
    36    21    36    1
    37    22    21   ar
    38    22     5   ar
    39    22    37    1
