@<TRIPOS>MOLECULE
mol_160_akc_jijpharm2020119764
>156.sdf
 32 33 0 0 0
SMALL
GASTEIGER

@<TRIPOS>ATOM
      1 O           1.0415   -0.2271   -0.0069 O.2     1  UNL1       -0.2879
      2 C           2.2641   -0.1607    0.0115 C.2     1  UNL1        0.1790
      3 C           3.0296    0.4400    1.1367 C.2     1  UNL1       -0.0144
      4 C           2.3980    0.9858    2.1875 C.2     1  UNL1       -0.0510
      5 C           3.0925    1.6377    3.3097 C.ar    1  UNL1       -0.0249
      6 C           4.3080    2.3187    3.1446 C.ar    1  UNL1       -0.0546
      7 C           4.9181    2.9672    4.2217 C.ar    1  UNL1       -0.0612
      8 C           4.3133    2.9548    5.4751 C.ar    1  UNL1       -0.0617
      9 C           3.0991    2.2951    5.6520 C.ar    1  UNL1       -0.0612
     10 C           2.4906    1.6441    4.5748 C.ar    1  UNL1       -0.0546
     11 C           3.1231   -0.6628   -1.0945 C.2     1  UNL1       -0.0144
     12 C           2.5830   -1.1998   -2.1993 C.2     1  UNL1       -0.0510
     13 C           3.3732   -1.7185   -3.3284 C.ar    1  UNL1       -0.0249
     14 C           4.6466   -2.2829   -3.1602 C.ar    1  UNL1       -0.0546
     15 C           5.3557   -2.7890   -4.2530 C.ar    1  UNL1       -0.0612
     16 C           4.7948   -2.7512   -5.5265 C.ar    1  UNL1       -0.0617
     17 C           3.5233   -2.2104   -5.7070 C.ar    1  UNL1       -0.0612
     18 C           2.8159   -1.7009   -4.6139 C.ar    1  UNL1       -0.0546
     19 H           4.1099    0.4255    1.0684 H       1  UNL1        0.0656
     20 H           1.3107    0.9637    2.2423 H       1  UNL1        0.0625
     21 H           4.7914    2.3722    2.1729 H       1  UNL1        0.0623
     22 H           5.8591    3.4909    4.0763 H       1  UNL1        0.0618
     23 H           4.7830    3.4665    6.3110 H       1  UNL1        0.0618
     24 H           2.6209    2.2924    6.6284 H       1  UNL1        0.0618
     25 H           1.5398    1.1393    4.7363 H       1  UNL1        0.0623
     26 H           4.1948   -0.5661   -0.9757 H       1  UNL1        0.0656
     27 H           1.5003   -1.2546   -2.3045 H       1  UNL1        0.0625
     28 H           5.1022   -2.3516   -2.1762 H       1  UNL1        0.0623
     29 H           6.3424   -3.2205   -4.1057 H       1  UNL1        0.0618
     30 H           5.3440   -3.1500   -6.3755 H       1  UNL1        0.0618
     31 H           3.0798   -2.1878   -6.6990 H       1  UNL1        0.0618
     32 H           1.8241   -1.2851   -4.7798 H       1  UNL1        0.0623
@<TRIPOS>BOND
     1     2     1    2
     2     3     2    1
     3     3    19    1
     4     4     3    2
     5     4    20    1
     6     5     4    1
     7     6     5   ar
     8     6    21    1
     9     7     6   ar
    10     7    22    1
    11     8     7   ar
    12     8    23    1
    13     9     8   ar
    14     9    24    1
    15    10     9   ar
    16    10     5   ar
    17    10    25    1
    18    11     2    1
    19    11    26    1
    20    12    11    2
    21    12    27    1
    22    13    12    1
    23    14    13   ar
    24    14    28    1
    25    15    14   ar
    26    15    29    1
    27    16    15   ar
    28    16    30    1
    29    17    16   ar
    30    17    31    1
    31    18    17   ar
    32    18    13   ar
    33    18    32    1
