@<TRIPOS>MOLECULE
mol_161_akc_journalpntd0007235
>157.sdf
 66 67 0 0 0
SMALL
GASTEIGER

@<TRIPOS>ATOM
      1 O           0.6382    2.0254    0.2671 O.3     1  UNL1       -0.3950
      2 C           1.5764    1.0186   -0.0878 C.3     1  UNL1        0.0442
      3 C           2.4868    1.5377   -1.1906 C.3     1  UNL1       -0.0297
      4 C           3.5334    0.5078   -1.6005 C.3     1  UNL1       -0.0510
      5 C           4.4514    1.0764   -2.6835 C.3     1  UNL1       -0.0530
      6 C           5.4856    0.0462   -3.1274 C.3     1  UNL1       -0.0527
      7 C           6.4264    0.6224   -4.1946 C.3     1  UNL1       -0.0458
      8 C           7.4283   -0.4157   -4.7649 C.3     1  UNL1        0.0118
      9 C           6.6211   -1.5527   -5.4337 C.3     1  UNL1        0.0880
     10 O           7.2644   -2.6092   -6.1375 O.3     1  UNL1       -0.2315
     11 O           8.6568   -2.3193   -6.2262 O.3     1  UNL1       -0.1965
     12 C           9.0097   -1.9899   -7.5804 C.3     1  UNL1        0.2347
     13 C          10.2591   -2.8959   -7.8379 C.3     1  UNL1        0.0069
     14 C           9.9927   -4.3521   -7.3417 C.3     1  UNL1       -0.0480
     15 C          10.2923   -5.4843   -8.3211 C.3     1  UNL1       -0.0529
     16 C           9.0867   -6.4450   -8.5071 C.3     1  UNL1       -0.0531
     17 C           8.2870   -6.1614   -9.7921 C.3     1  UNL1       -0.0531
     18 C           6.8584   -5.6747   -9.5178 C.3     1  UNL1       -0.0531
     19 C           6.3701   -4.7096  -10.6142 C.3     1  UNL1       -0.0531
     20 C           5.3424   -3.6935  -10.0953 C.3     1  UNL1       -0.0531
     21 C           5.8492   -2.2367  -10.0770 C.3     1  UNL1       -0.0529
     22 C           6.5916   -1.8449   -8.7889 C.3     1  UNL1       -0.0480
     23 C           8.0684   -2.2359   -8.8087 C.3     1  UNL1        0.0069
     24 O           9.4030   -0.5999   -7.5923 O.3     1  UNL1       -0.1965
     25 O           8.2535    0.1557   -7.0433 O.3     1  UNL1       -0.2315
     26 C           8.4862    0.3087   -5.6407 C.3     1  UNL1        0.0880
     27 H           0.1627    2.2821   -0.5413 H       1  UNL1        0.2094
     28 H           2.1529    0.7635    0.8068 H       1  UNL1        0.0557
     29 H           1.0267    0.1282   -0.4090 H       1  UNL1        0.0557
     30 H           1.8803    1.8215   -2.0600 H       1  UNL1        0.0287
     31 H           2.9760    2.4593   -0.8525 H       1  UNL1        0.0287
     32 H           4.1297    0.2125   -0.7287 H       1  UNL1        0.0266
     33 H           3.0349   -0.3978   -1.9714 H       1  UNL1        0.0266
     34 H           3.8485    1.3799   -3.5485 H       1  UNL1        0.0265
     35 H           4.9572    1.9735   -2.3076 H       1  UNL1        0.0265
     36 H           6.0751   -0.2922   -2.2679 H       1  UNL1        0.0265
     37 H           4.9393   -0.8218   -3.5078 H       1  UNL1        0.0265
     38 H           5.8334    1.0384   -5.0203 H       1  UNL1        0.0269
     39 H           6.9777    1.4592   -3.7499 H       1  UNL1        0.0269
     40 H           7.9780   -0.8394   -3.9129 H       1  UNL1        0.0347
     41 H           5.8767   -1.1200   -6.1070 H       1  UNL1        0.0595
     42 H           6.0600   -2.0810   -4.6579 H       1  UNL1        0.0595
     43 H          10.5525   -2.8665   -8.8909 H       1  UNL1        0.0319
     44 H          11.1148   -2.4915   -7.2807 H       1  UNL1        0.0319
     45 H          10.6104   -4.4991   -6.4446 H       1  UNL1        0.0267
     46 H           8.9592   -4.4616   -6.9978 H       1  UNL1        0.0267
     47 H          10.6552   -5.1163   -9.2745 H       1  UNL1        0.0265
     48 H          11.1110   -6.0777   -7.8892 H       1  UNL1        0.0265
     49 H           9.4920   -7.4640   -8.5934 H       1  UNL1        0.0265
     50 H           8.4402   -6.4731   -7.6106 H       1  UNL1        0.0265
     51 H           8.8309   -5.4376  -10.4085 H       1  UNL1        0.0265
     52 H           8.2373   -7.0792  -10.3822 H       1  UNL1        0.0265
     53 H           6.1864   -6.5520   -9.5025 H       1  UNL1        0.0265
     54 H           6.7875   -5.2090   -8.5395 H       1  UNL1        0.0265
     55 H           7.2102   -4.1830  -11.0778 H       1  UNL1        0.0265
     56 H           5.9082   -5.2998  -11.4173 H       1  UNL1        0.0265
     57 H           4.4765   -3.7267  -10.7689 H       1  UNL1        0.0265
     58 H           4.9596   -3.9770   -9.1070 H       1  UNL1        0.0265
     59 H           6.4561   -2.0192  -10.9650 H       1  UNL1        0.0265
     60 H           4.9647   -1.5911  -10.1465 H       1  UNL1        0.0265
     61 H           6.5025   -0.7623   -8.6541 H       1  UNL1        0.0267
     62 H           6.0563   -2.3251   -7.9734 H       1  UNL1        0.0267
     63 H           8.5162   -1.6840   -9.6520 H       1  UNL1        0.0319
     64 H           8.1278   -3.2891   -9.0779 H       1  UNL1        0.0319
     65 H           8.4928    1.3862   -5.4343 H       1  UNL1        0.0595
     66 H           9.4909   -0.0422   -5.3724 H       1  UNL1        0.0595
@<TRIPOS>BOND
     1     1    27    1
     2     2     1    1
     3     2    28    1
     4     2    29    1
     5     3     2    1
     6     3    30    1
     7     3    31    1
     8     4     3    1
     9     4    32    1
    10     4    33    1
    11     5     4    1
    12     5    34    1
    13     5    35    1
    14     6     5    1
    15     6    36    1
    16     6    37    1
    17     7     6    1
    18     7    38    1
    19     7    39    1
    20     8     7    1
    21     8    40    1
    22     9     8    1
    23     9    41    1
    24     9    42    1
    25    10     9    1
    26    11    10    1
    27    12    11    1
    28    13    12    1
    29    13    43    1
    30    13    44    1
    31    14    13    1
    32    14    45    1
    33    14    46    1
    34    15    14    1
    35    15    47    1
    36    15    48    1
    37    16    15    1
    38    16    49    1
    39    16    50    1
    40    17    16    1
    41    17    51    1
    42    17    52    1
    43    18    17    1
    44    18    53    1
    45    18    54    1
    46    19    18    1
    47    19    55    1
    48    19    56    1
    49    20    19    1
    50    20    57    1
    51    20    58    1
    52    21    20    1
    53    21    59    1
    54    21    60    1
    55    22    21    1
    56    22    61    1
    57    22    62    1
    58    23    22    1
    59    23    12    1
    60    23    63    1
    61    23    64    1
    62    24    12    1
    63    25    24    1
    64    26    25    1
    65    26     8    1
    66    26    65    1
    67    26    66    1
