@<TRIPOS>MOLECULE
mol_163_akc_acsjmedchem0c01589
>159.sdf
 69 70 0 0 0
SMALL
GASTEIGER

@<TRIPOS>ATOM
      1 C           5.1647    2.6958    0.4753 C.3     1  UNL1       -0.0653
      2 C           4.4762    1.3586    0.2476 C.3     1  UNL1       -0.0559
      3 C           5.1734    0.2478    1.0352 C.3     1  UNL1       -0.0527
      4 C           4.4989   -1.1124    0.8170 C.3     1  UNL1       -0.0453
      5 C           5.1892   -2.3270    1.5295 C.3     1  UNL1       -0.0051
      6 C           5.2065   -2.0897    3.0734 C.3     1  UNL1       -0.0453
      7 C           5.7382   -3.2576    3.9193 C.3     1  UNL1       -0.0527
      8 C           5.6694   -2.9763    5.4189 C.3     1  UNL1       -0.0559
      9 C           6.2372   -4.1539    6.1982 C.3     1  UNL1       -0.0653
     10 C           6.5913   -2.5695    0.9495 C.3     1  UNL1        0.0566
     11 O           6.5061   -2.8473   -0.4513 O.3     1  UNL1       -0.3479
     12 C           5.8428   -4.0724   -0.7809 C.3     1  UNL1        0.1744
     13 C           5.8239   -4.1540   -2.3152 C.3     1  UNL1       -0.0101
     14 O           6.5005   -5.2133   -0.2191 O.3     1  UNL1       -0.3516
     15 C           7.8497   -5.3917   -0.6531 C.3     1  UNL1        0.0397
     16 C           4.3831   -4.0540   -0.2339 C.3     1  UNL1        0.0533
     17 C           3.6889   -5.4286   -0.3464 C.3     1  UNL1       -0.0258
     18 N           2.2698   -5.3013    0.1593 N.4     1  UNL1        0.2274
     19 C           1.4572   -6.5541    0.2461 C.3     1  UNL1       -0.0320
     20 C           0.1107   -6.1751    0.8574 C.3     1  UNL1        0.0054
     21 C          -0.8258   -7.3763    0.9822 C.3     1  UNL1        0.0290
     22 N          -2.1128   -6.9814    1.5183 N.ar    1  UNL1       -0.3366
     23 C          -3.1895   -6.5575    0.7934 C.ar    1  UNL1        0.0240
     24 C          -4.1563   -6.2713    1.7299 C.ar    1  UNL1        0.0454
     25 N          -3.6808   -6.5021    2.9957 N.ar    1  UNL1       -0.2441
     26 C          -2.4579   -6.9458    2.8350 C.ar    1  UNL1        0.0959
     27 C           4.3691   -3.5984    1.2370 C.3     1  UNL1       -0.0327
     28 H           4.6673    3.4850   -0.0963 H       1  UNL1        0.0230
     29 H           5.1386    2.9731    1.5341 H       1  UNL1        0.0230
     30 H           6.2122    2.6548    0.1588 H       1  UNL1        0.0230
     31 H           3.4262    1.4342    0.5531 H       1  UNL1        0.0263
     32 H           4.4888    1.1245   -0.8236 H       1  UNL1        0.0263
     33 H           6.2211    0.2046    0.7216 H       1  UNL1        0.0265
     34 H           5.1579    0.5097    2.0975 H       1  UNL1        0.0265
     35 H           3.4566   -1.0438    1.1570 H       1  UNL1        0.0271
     36 H           4.4492   -1.2886   -0.2651 H       1  UNL1        0.0271
     37 H           5.8072   -1.2039    3.3069 H       1  UNL1        0.0271
     38 H           4.1813   -1.8680    3.4017 H       1  UNL1        0.0271
     39 H           5.1516   -4.1637    3.7409 H       1  UNL1        0.0265
     40 H           6.7733   -3.4751    3.6401 H       1  UNL1        0.0265
     41 H           6.2320   -2.0684    5.6601 H       1  UNL1        0.0263
     42 H           4.6285   -2.8109    5.7205 H       1  UNL1        0.0263
     43 H           5.6703   -5.0683    5.9945 H       1  UNL1        0.0230
     44 H           7.2817   -4.3341    5.9240 H       1  UNL1        0.0230
     45 H           6.1941   -3.9593    7.2726 H       1  UNL1        0.0230
     46 H           7.2306   -1.6909    1.0764 H       1  UNL1        0.0566
     47 H           7.1085   -3.3962    1.4471 H       1  UNL1        0.0566
     48 H           6.8031   -3.8858   -2.7310 H       1  UNL1        0.0281
     49 H           5.5794   -5.1600   -2.6691 H       1  UNL1        0.0281
     50 H           5.1128   -3.4390   -2.7430 H       1  UNL1        0.0281
     51 H           7.8755   -5.7513   -1.6855 H       1  UNL1        0.0525
     52 H           8.4332   -4.4715   -0.5578 H       1  UNL1        0.0525
     53 H           8.3090   -6.1563   -0.0204 H       1  UNL1        0.0525
     54 H           3.8012   -3.3231   -0.8100 H       1  UNL1        0.0405
     55 H           3.6235   -5.7766   -1.3807 H       1  UNL1        0.0818
     56 H           4.1729   -6.1913    0.2731 H       1  UNL1        0.0818
     57 H           2.2907   -4.9147    1.1083 H       1  UNL1        0.2013
     58 H           1.7755   -4.6047   -0.4186 H       1  UNL1        0.2013
     59 H           1.3563   -6.9517   -0.7660 H       1  UNL1        0.0814
     60 H           2.0041   -7.2556    0.8828 H       1  UNL1        0.0814
     61 H           0.2669   -5.7282    1.8486 H       1  UNL1        0.0334
     62 H          -0.3642   -5.3971    0.2449 H       1  UNL1        0.0334
     63 H          -0.9989   -7.8391    0.0074 H       1  UNL1        0.0494
     64 H          -0.4026   -8.1331    1.6525 H       1  UNL1        0.0494
     65 H          -3.1973   -6.4973   -0.2861 H       1  UNL1        0.0825
     66 H          -5.1640   -5.9147    1.5639 H       1  UNL1        0.0845
     67 H          -1.7938   -7.2434    3.6395 H       1  UNL1        0.1029
     68 H           4.7575   -4.4420    1.8158 H       1  UNL1        0.0277
     69 H           3.3477   -3.4170    1.5869 H       1  UNL1        0.0277
@<TRIPOS>UNITY_ATOM_ATTR
18 1
charge 1
@<TRIPOS>BOND
     1     1    28    1
     2     1    29    1
     3     1    30    1
     4     2     1    1
     5     2    31    1
     6     2    32    1
     7     3     2    1
     8     3    33    1
     9     3    34    1
    10     4     3    1
    11     4    35    1
    12     4    36    1
    13     5     4    1
    14     6     5    1
    15     6    37    1
    16     6    38    1
    17     7     6    1
    18     7    39    1
    19     7    40    1
    20     8     7    1
    21     8    41    1
    22     8    42    1
    23     9     8    1
    24     9    43    1
    25     9    44    1
    26     9    45    1
    27    10     5    1
    28    10    46    1
    29    10    47    1
    30    11    10    1
    31    12    11    1
    32    12    13    1
    33    13    48    1
    34    13    49    1
    35    13    50    1
    36    14    12    1
    37    15    14    1
    38    15    51    1
    39    15    52    1
    40    15    53    1
    41    16    12    1
    42    16    54    1
    43    17    16    1
    44    17    55    1
    45    17    56    1
    46    18    17    1
    47    18    57    1
    48    18    58    1
    49    19    18    1
    50    19    59    1
    51    19    60    1
    52    20    19    1
    53    20    61    1
    54    20    62    1
    55    21    20    1
    56    21    63    1
    57    21    64    1
    58    22    21    1
    59    23    22   ar
    60    23    65    1
    61    24    23   ar
    62    24    66    1
    63    25    24   ar
    64    26    25   ar
    65    26    22   ar
    66    26    67    1
    67    27    16    1
    68    27     5    1
    69    27    68    1
    70    27    69    1
