@<TRIPOS>MOLECULE
mol_164_akc_journalpone0241855
>160.sdf
 61 62 0 0 0
SMALL
GASTEIGER

@<TRIPOS>ATOM
      1 C           2.1159   -1.0384    0.6084 C.3     1  UNL1        0.0788
      2 O           2.3221   -0.0191   -0.3448 O.3     1  UNL1       -0.4947
      3 C           3.1367    1.0534   -0.1337 C.ar    1  UNL1        0.1270
      4 C           4.0394    1.3502    0.8944 C.ar    1  UNL1       -0.0015
      5 C           4.3914    0.4581    2.0700 C.3     1  UNL1       -0.0058
      6 C           3.5951    0.7768    3.3094 C.2     1  UNL1       -0.0809
      7 C           4.0310    0.9628    4.5723 C.2     1  UNL1       -0.0793
      8 C           5.4565    0.8698    5.0371 C.3     1  UNL1       -0.0440
      9 C           3.0316    1.2881    5.6541 C.3     1  UNL1       -0.0440
     10 C           4.7313    2.5977    0.8380 C.ar    1  UNL1       -0.0473
     11 C           4.6012    3.5182   -0.2272 C.ar    1  UNL1        0.0058
     12 C           5.4490    4.7954   -0.2132 C.3     1  UNL1        0.0339
     13 C           6.5431    4.8628   -1.2753 C.2     1  UNL1       -0.0792
     14 C           7.0669    3.8462   -1.9764 C.2     1  UNL1       -0.1017
     15 C           4.6267    6.0919   -0.0869 C.ar    1  UNL1        0.0055
     16 C           4.3264    6.5770    1.2053 C.ar    1  UNL1       -0.0507
     17 C           3.6030    7.7680    1.4009 C.ar    1  UNL1       -0.0431
     18 C           3.2834    8.2579    2.7967 C.3     1  UNL1       -0.0092
     19 C           4.3571    9.1262    3.3978 C.2     1  UNL1       -0.0810
     20 C           4.3301    9.6471    4.6420 C.2     1  UNL1       -0.0793
     21 C           3.2101    9.4411    5.6245 C.3     1  UNL1       -0.0440
     22 C           5.4682   10.5023    5.1331 C.3     1  UNL1       -0.0440
     23 C           3.1823    8.4972    0.2850 C.ar    1  UNL1       -0.0548
     24 C           3.4480    8.0307   -1.0000 C.ar    1  UNL1       -0.0196
     25 C           4.1557    6.8396   -1.1778 C.ar    1  UNL1        0.1209
     26 O           4.3874    6.3972   -2.4527 O.3     1  UNL1       -0.5065
     27 C           3.7363    3.1543   -1.2599 C.ar    1  UNL1        0.1244
     28 O           3.5526    3.8758   -2.4001 O.3     1  UNL1       -0.5063
     29 C           3.0121    1.9636   -1.1944 C.ar    1  UNL1        0.0221
     30 H           2.9211   -1.7747    0.5562 H       1  UNL1        0.0660
     31 H           1.9648   -0.6578    1.6166 H       1  UNL1        0.0660
     32 H           1.1875   -1.5552    0.3334 H       1  UNL1        0.0660
     33 H           4.2689   -0.5955    1.8104 H       1  UNL1        0.0357
     34 H           5.4675    0.5545    2.2536 H       1  UNL1        0.0357
     35 H           2.5237    0.8797    3.1359 H       1  UNL1        0.0575
     36 H           5.7860    1.8369    5.4314 H       1  UNL1        0.0274
     37 H           5.5428    0.1266    5.8381 H       1  UNL1        0.0274
     38 H           6.1540    0.5744    4.2512 H       1  UNL1        0.0274
     39 H           2.7500    2.3445    5.6019 H       1  UNL1        0.0274
     40 H           2.1291    0.6748    5.5562 H       1  UNL1        0.0274
     41 H           3.4435    1.0961    6.6504 H       1  UNL1        0.0274
     42 H           5.4188    2.8371    1.6509 H       1  UNL1        0.0626
     43 H           6.0421    4.7681    0.7146 H       1  UNL1        0.0442
     44 H           6.9301    5.8604   -1.4822 H       1  UNL1        0.0576
     45 H           6.7502    2.8175   -1.8335 H       1  UNL1        0.0532
     46 H           7.8344    4.0278   -2.7222 H       1  UNL1        0.0532
     47 H           4.6621    6.0182    2.0778 H       1  UNL1        0.0625
     48 H           2.3399    8.8208    2.7597 H       1  UNL1        0.0356
     49 H           3.1057    7.3879    3.4362 H       1  UNL1        0.0356
     50 H           5.2147    9.3448    2.7633 H       1  UNL1        0.0575
     51 H           3.5867    8.9440    6.5249 H       1  UNL1        0.0274
     52 H           2.7814   10.4061    5.9149 H       1  UNL1        0.0274
     53 H           2.3973    8.8284    5.2267 H       1  UNL1        0.0274
     54 H           6.4189    9.9650    5.0569 H       1  UNL1        0.0274
     55 H           5.5319   11.4288    4.5537 H       1  UNL1        0.0274
     56 H           5.3334   10.7791    6.1844 H       1  UNL1        0.0274
     57 H           2.6315    9.4271    0.4116 H       1  UNL1        0.0622
     58 H           3.0933    8.6066   -1.8492 H       1  UNL1        0.0654
     59 H           3.9710    7.0165   -3.0782 H       1  UNL1        0.2921
     60 H           4.1306    4.6630   -2.3790 H       1  UNL1        0.2921
     61 H           2.3361    1.7272   -2.0172 H       1  UNL1        0.0691
@<TRIPOS>BOND
     1     1    30    1
     2     1    31    1
     3     1    32    1
     4     2     1    1
     5     3     2    1
     6     4     3   ar
     7     5     4    1
     8     5    33    1
     9     5    34    1
    10     6     5    1
    11     6    35    1
    12     7     6    2
    13     8     7    1
    14     8    36    1
    15     8    37    1
    16     8    38    1
    17     9     7    1
    18     9    39    1
    19     9    40    1
    20     9    41    1
    21    10     4   ar
    22    10    42    1
    23    11    10   ar
    24    12    11    1
    25    12    43    1
    26    13    12    1
    27    13    44    1
    28    14    13    2
    29    14    45    1
    30    14    46    1
    31    15    12    1
    32    16    15   ar
    33    16    47    1
    34    17    16   ar
    35    18    17    1
    36    18    48    1
    37    18    49    1
    38    19    18    1
    39    19    50    1
    40    20    19    2
    41    21    20    1
    42    21    51    1
    43    21    52    1
    44    21    53    1
    45    22    20    1
    46    22    54    1
    47    22    55    1
    48    22    56    1
    49    23    17   ar
    50    23    57    1
    51    24    23   ar
    52    24    58    1
    53    25    24   ar
    54    25    15   ar
    55    26    25    1
    56    26    59    1
    57    27    11   ar
    58    28    27    1
    59    28    60    1
    60    29    27   ar
    61    29     3   ar
    62    29    61    1
