@<TRIPOS>MOLECULE
mol_165_s11033_020_05887_5
>161.sdf
 44 46 0 0 0
SMALL
GASTEIGER

@<TRIPOS>ATOM
      1 C           1.0353    2.2255    1.4648 C.3     1  UNL1       -0.0650
      2 C           2.5551    2.2582    1.4766 C.3     1  UNL1       -0.0519
      3 C           3.1474    1.3674    0.3788 C.3     1  UNL1       -0.0278
      4 C           4.6597    1.3748    0.3766 C.ar    1  UNL1       -0.0431
      5 C           5.3658    0.9438    1.5131 C.ar    1  UNL1       -0.0131
      6 C           6.7617    0.9505    1.5528 C.ar    1  UNL1        0.1631
      7 O           7.2853    0.5200    2.7421 O.3     1  UNL1       -0.4914
      8 C           8.7005    0.4798    2.8873 C.3     1  UNL1        0.0790
      9 C           7.4436    1.3954    0.4193 C.ar    1  UNL1        0.1805
     10 O           8.8430    1.4732    0.4589 O.2     1  UNL1       -0.4179
     11 C           9.5610    2.1516   -0.5028 C.ar    1  UNL1        0.3483
     12 O          10.7004    2.5278   -0.2681 O.2     1  UNL1       -0.2444
     13 C           8.9092    2.3008   -1.8159 C.ar    1  UNL1        0.1072
     14 C           7.5723    2.1900   -1.9032 C.ar    1  UNL1       -0.0332
     15 C           6.7765    1.8041   -0.7386 C.ar    1  UNL1        0.0222
     16 C           5.3778    1.7890   -0.7577 C.ar    1  UNL1       -0.0476
     17 C           9.6684    2.6360   -3.0574 C.2     1  UNL1        0.2000
     18 O           9.1176    3.1858   -4.0078 O.2     1  UNL1       -0.2864
     19 C          11.1202    2.2959   -3.1706 C.ar    1  UNL1        0.0229
     20 C          11.6938    1.1813   -2.5379 C.ar    1  UNL1       -0.0445
     21 C          13.0707    0.9502   -2.6126 C.ar    1  UNL1        0.0163
     22 C          13.8722    1.7998   -3.3835 C.ar    1  UNL1        0.2732
     23 C          13.3034    2.8745   -4.0785 C.ar    1  UNL1        0.0163
     24 C          11.9310    3.1225   -3.9641 C.ar    1  UNL1       -0.0445
     25 N          15.3169    1.5524   -3.4661 N.pl3   1  UNL1        0.0796
     26 O          15.7811    0.6045   -2.8172 O.co2   1  UNL1       -0.5760
     27 O          15.9939    2.3032   -4.1881 O.2     1  UNL1        0.0414
     28 H           0.6381    2.8641    2.2602 H       1  UNL1        0.0230
     29 H           0.6415    2.5858    0.5096 H       1  UNL1        0.0230
     30 H           0.6650    1.2087    1.6306 H       1  UNL1        0.0230
     31 H           2.8980    3.2917    1.3448 H       1  UNL1        0.0266
     32 H           2.8992    1.9355    2.4661 H       1  UNL1        0.0266
     33 H           2.8071    0.3319    0.5054 H       1  UNL1        0.0313
     34 H           2.7713    1.7006   -0.5963 H       1  UNL1        0.0313
     35 H           4.8234    0.6029    2.3943 H       1  UNL1        0.0658
     36 H           9.1532   -0.2091    2.1664 H       1  UNL1        0.0660
     37 H           9.1333    1.4837    2.8244 H       1  UNL1        0.0660
     38 H           8.9286    0.0960    3.8858 H       1  UNL1        0.0660
     39 H           7.0486    2.3533   -2.8427 H       1  UNL1        0.0634
     40 H           4.8408    2.1054   -1.6492 H       1  UNL1        0.0627
     41 H          11.0973    0.4933   -1.9441 H       1  UNL1        0.0627
     42 H          13.4978    0.1166   -2.0591 H       1  UNL1        0.0685
     43 H          13.9104    3.5307   -4.7001 H       1  UNL1        0.0685
     44 H          11.4967    3.9729   -4.4892 H       1  UNL1        0.0627
@<TRIPOS>UNITY_ATOM_ATTR
25 1
charge 1
26 1
charge -1
@<TRIPOS>BOND
     1     1    28    1
     2     1    29    1
     3     1    30    1
     4     2     1    1
     5     2    31    1
     6     2    32    1
     7     3     2    1
     8     3    33    1
     9     3    34    1
    10     4     3    1
    11     5     4   ar
    12     5    35    1
    13     6     5   ar
    14     7     6    1
    15     8     7    1
    16     8    36    1
    17     8    37    1
    18     8    38    1
    19     9     6   ar
    20    10     9   ar
    21    11    10   ar
    22    12    11    2
    23    13    11   ar
    24    14    13   ar
    25    14    39    1
    26    15    14   ar
    27    15     9   ar
    28    16    15   ar
    29    16     4   ar
    30    16    40    1
    31    17    13    1
    32    18    17    2
    33    19    17    1
    34    20    19   ar
    35    20    41    1
    36    21    20   ar
    37    21    42    1
    38    22    21   ar
    39    23    22   ar
    40    23    43    1
    41    24    23   ar
    42    24    19   ar
    43    24    44    1
    44    25    22    1
    45    26    25    1
    46    27    25    2
