@<TRIPOS>MOLECULE
mol_166_akc_s00044_020_02619_z
>162.sdf
 40 42 0 0 0
SMALL
GASTEIGER

@<TRIPOS>ATOM
      1 C           2.9407    1.4335    0.4739 C.3     1  UNL1        0.0788
      2 O           2.5264    0.2044   -0.1102 O.3     1  UNL1       -0.4951
      3 C           3.2427   -0.2345   -1.1893 C.ar    1  UNL1        0.1201
      4 C           4.3413    0.4054   -1.7596 C.ar    1  UNL1       -0.0193
      5 C           4.9744   -0.1493   -2.8787 C.ar    1  UNL1       -0.0491
      6 C           4.5272   -1.3547   -3.4354 C.ar    1  UNL1        0.0012
      7 C           3.4267   -1.9952   -2.8552 C.ar    1  UNL1       -0.0491
      8 C           2.7915   -1.4364   -1.7413 C.ar    1  UNL1       -0.0193
      9 C           5.2160   -1.8998   -4.5975 C.ar    1  UNL1        0.0803
     10 C           5.3823   -3.2483   -4.8334 C.ar    1  UNL1        0.0049
     11 S           6.3141   -3.4830   -6.2475 S.2     1  UNL1       -0.0586
     12 C           6.3961   -1.7712   -6.4778 C.ar    1  UNL1        0.1783
     13 N           7.0478   -1.2917   -7.5730 N.pl3   1  UNL1       -0.2150
     14 N           6.8050   -0.0590   -8.0934 N.2     1  UNL1       -0.1851
     15 C           7.4223    0.3304   -9.1715 C.2     1  UNL1        0.0634
     16 C           8.4805   -0.4718   -9.9065 C.3     1  UNL1       -0.0203
     17 C           7.0667    1.6828   -9.7354 C.ar    1  UNL1       -0.0011
     18 C           6.0812    2.4543   -9.0992 C.ar    1  UNL1       -0.0331
     19 C           5.7502    3.7269   -9.5798 C.ar    1  UNL1        0.0599
     20 CL          4.5345    4.6186   -8.7352 Cl      1  UNL1       -0.0820
     21 C           6.4013    4.2391  -10.7067 C.ar    1  UNL1        0.0593
     22 CL          6.0680    5.8100  -11.3426 Cl      1  UNL1       -0.0820
     23 C           7.3676    3.4691  -11.3560 C.ar    1  UNL1       -0.0414
     24 C           7.6965    2.1963  -10.8771 C.ar    1  UNL1       -0.0514
     25 N           5.7987   -1.0658   -5.5426 N.ar    1  UNL1       -0.2236
     26 H           3.9498    1.3486    0.8904 H       1  UNL1        0.0660
     27 H           2.8772    2.2572   -0.2455 H       1  UNL1        0.0660
     28 H           2.2575    1.6596    1.2975 H       1  UNL1        0.0660
     29 H           4.7318    1.3383   -1.3682 H       1  UNL1        0.0654
     30 H           5.8285    0.3655   -3.3161 H       1  UNL1        0.0625
     31 H           3.0353   -2.9217   -3.2675 H       1  UNL1        0.0625
     32 H           1.9306   -1.9379   -1.3050 H       1  UNL1        0.0654
     33 H           5.0424   -4.0894   -4.2462 H       1  UNL1        0.0716
     34 H           7.4092   -2.0205   -8.1806 H       1  UNL1        0.1765
     35 H           8.1223   -0.7096  -10.9129 H       1  UNL1        0.0293
     36 H           9.4013    0.1159   -9.9747 H       1  UNL1        0.0293
     37 H           8.7450   -1.4070   -9.4146 H       1  UNL1        0.0293
     38 H           5.5690    2.0669   -8.2189 H       1  UNL1        0.0639
     39 H           7.8760    3.8559  -12.2374 H       1  UNL1        0.0633
     40 H           8.4544    1.6341  -11.4150 H       1  UNL1        0.0624
@<TRIPOS>BOND
     1     1    26    1
     2     1    27    1
     3     1    28    1
     4     2     1    1
     5     3     2    1
     6     4     3   ar
     7     4    29    1
     8     5     4   ar
     9     5    30    1
    10     6     5   ar
    11     7     6   ar
    12     7    31    1
    13     8     7   ar
    14     8     3   ar
    15     8    32    1
    16     9     6    1
    17    10     9   ar
    18    10    33    1
    19    11    10   ar
    20    12    11   ar
    21    13    12    1
    22    13    34    1
    23    14    13    1
    24    15    14    2
    25    16    15    1
    26    16    35    1
    27    16    36    1
    28    16    37    1
    29    17    15    1
    30    18    17   ar
    31    18    38    1
    32    19    18   ar
    33    20    19    1
    34    21    19   ar
    35    22    21    1
    36    23    21   ar
    37    23    39    1
    38    24    23   ar
    39    24    17   ar
    40    24    40    1
    41    25    12   ar
    42    25     9   ar
