@<TRIPOS>MOLECULE
mol_168_akc_s00436_020_06832_y
>164.sdf
 55 57 0 0 0
SMALL
GASTEIGER

@<TRIPOS>ATOM
      1 O           1.6530    6.1216   -2.6195 O.3     1  UNL1       -0.3870
      2 C           0.8683    5.2411   -1.8106 C.3     1  UNL1        0.0850
      3 C           1.0734    3.8550   -2.4278 C.3     1  UNL1        0.0176
      4 C           2.5478    3.4862   -2.4726 C.3     1  UNL1       -0.0307
      5 N           2.7388    2.1684   -3.1720 N.4     1  UNL1        0.2293
      6 C           2.2720    2.0446   -4.6107 C.3     1  UNL1       -0.0197
      7 C           2.5787    0.6356   -5.1168 C.3     1  UNL1        0.0061
      8 C           4.0780    0.4175   -5.2843 C.3     1  UNL1        0.0173
      9 N           4.6351    1.4825   -6.1239 N.pl3   1  UNL1       -0.3291
     10 C           4.3884    2.8686   -5.7250 C.3     1  UNL1        0.0173
     11 C           2.8984    3.0987   -5.5193 C.3     1  UNL1        0.0061
     12 C           5.3561    1.1585   -7.2712 C.ar    1  UNL1        0.0416
     13 C           6.5124    1.8302   -7.7356 C.ar    1  UNL1        0.0779
     14 C           7.1159    1.4290   -8.9603 C.ar    1  UNL1       -0.0181
     15 C           6.6306    0.3451   -9.6933 C.ar    1  UNL1        0.1268
     16 C           5.5208   -0.3493   -9.2363 C.ar    1  UNL1       -0.0297
     17 C           4.8964    0.0696   -8.0574 C.ar    1  UNL1       -0.0380
     18 N           7.2926   -0.0588  -10.9383 N.pl3   1  UNL1        0.0564
     19 O           8.2408    0.6337  -11.3317 O.2     1  UNL1       -0.1261
     20 O           6.8621   -1.0643  -11.5171 O.2     1  UNL1       -0.1261
     21 C           7.2355    2.9664   -7.0394 C.3     1  UNL1        0.4192
     22 F           6.9671    3.1212   -5.7139 F       1  UNL1       -0.1658
     23 F           8.5917    2.8340   -7.1022 F       1  UNL1       -0.1658
     24 F           6.9563    4.1696   -7.6175 F       1  UNL1       -0.1658
     25 C          -0.5869    5.6901   -1.7420 C.ar    1  UNL1       -0.0188
     26 C          -1.6516    4.7785   -1.6962 C.ar    1  UNL1       -0.0534
     27 C          -2.9698    5.2253   -1.5945 C.ar    1  UNL1       -0.0261
     28 C          -3.2325    6.5856   -1.5275 C.ar    1  UNL1        0.1234
     29 F          -4.4977    7.0110   -1.4289 F       1  UNL1       -0.2055
     30 C          -2.1996    7.5114   -1.5475 C.ar    1  UNL1       -0.0261
     31 C          -0.8786    7.0636   -1.6416 C.ar    1  UNL1       -0.0534
     32 H           1.0566    6.6189   -3.2096 H       1  UNL1        0.2102
     33 H           1.2832    5.2593   -0.7955 H       1  UNL1        0.0645
     34 H           0.5364    3.0800   -1.8713 H       1  UNL1        0.0345
     35 H           0.6651    3.8802   -3.4447 H       1  UNL1        0.0345
     36 H           3.1801    4.2164   -2.9836 H       1  UNL1        0.0815
     37 H           2.9419    3.3454   -1.4601 H       1  UNL1        0.0815
     38 H           3.7434    1.9528   -3.1099 H       1  UNL1        0.2016
     39 H           2.2726    1.4408   -2.6114 H       1  UNL1        0.2016
     40 H           1.1846    2.1691   -4.5886 H       1  UNL1        0.0851
     41 H           2.1555   -0.1184   -4.4435 H       1  UNL1        0.0335
     42 H           2.0849    0.5016   -6.0891 H       1  UNL1        0.0335
     43 H           4.5778    0.4397   -4.3091 H       1  UNL1        0.0466
     44 H           4.2569   -0.5931   -5.6661 H       1  UNL1        0.0466
     45 H           4.7295    3.5881   -6.4753 H       1  UNL1        0.0466
     46 H           4.9174    3.0767   -4.7874 H       1  UNL1        0.0466
     47 H           2.4001    3.0530   -6.4969 H       1  UNL1        0.0335
     48 H           2.7254    4.1130   -5.1449 H       1  UNL1        0.0335
     49 H           7.9919    1.9750   -9.3193 H       1  UNL1        0.0646
     50 H           5.1174   -1.2015   -9.7798 H       1  UNL1        0.0641
     51 H           3.9965   -0.4750   -7.7755 H       1  UNL1        0.0637
     52 H          -1.4990    3.7045   -1.7227 H       1  UNL1        0.0622
     53 H          -3.7966    4.5211   -1.5559 H       1  UNL1        0.0646
     54 H          -2.4241    8.5706   -1.4764 H       1  UNL1        0.0646
     55 H          -0.0830    7.8087   -1.6269 H       1  UNL1        0.0622
@<TRIPOS>UNITY_ATOM_ATTR
5 1
charge 1
@<TRIPOS>BOND
     1     1    32    1
     2     3     2    1
     3     3    34    1
     4     3    35    1
     5     4     3    1
     6     4    36    1
     7     4    37    1
     8     5     4    1
     9     5    38    1
    10     5    39    1
    11     6     5    1
    12     6    40    1
    13     7     6    1
    14     7    41    1
    15     7    42    1
    16     8     7    1
    17     8    43    1
    18     8    44    1
    19     9     8    1
    20    10     9    1
    21    10    45    1
    22    10    46    1
    23    11    10    1
    24    11     6    1
    25    11    47    1
    26    11    48    1
    27    12     9    1
    28    13    12   ar
    29    14    13   ar
    30    14    49    1
    31    15    14   ar
    32    16    15   ar
    33    16    50    1
    34    17    16   ar
    35    17    12   ar
    36    17    51    1
    37    18    15    1
    38    19    18    2
    39    20    18    2
    40    21    13    1
    41    22    21    1
    42    23    21    1
    43    24    21    1
    44    25     2    1
    45    26    25   ar
    46    26    52    1
    47    27    26   ar
    48    27    53    1
    49    28    27   ar
    50    29    28    1
    51    30    28   ar
    52    30    54    1
    53    31    30   ar
    54    31    25   ar
    55    31    55    1
    56     2    33    1
    57     2     1    1
