@<TRIPOS>MOLECULE
mol_169_akc_acsjmedchem0c00705
>165.sdf
 55 58 0 0 0
SMALL
GASTEIGER

@<TRIPOS>ATOM
      1 C           2.5336    1.5150    5.7581 C.3     1  UNL1        0.0368
      2 O           2.3988    1.1474    4.3907 O.3     1  UNL1       -0.3798
      3 C           1.1048    0.6331    4.0569 C.3     1  UNL1        0.0585
      4 C           1.0417    0.4860    2.5314 C.3     1  UNL1       -0.0249
      5 C           1.9374   -0.6390    2.0099 C.3     1  UNL1       -0.0322
      6 C           1.6947   -1.9756    2.7251 C.3     1  UNL1        0.0236
      7 C           1.7756   -1.8059    4.2441 C.3     1  UNL1       -0.0322
      8 C           0.8313   -0.7097    4.7435 C.3     1  UNL1       -0.0249
      9 N           0.4087   -2.5391    2.3545 N.am    1  UNL1       -0.3071
     10 C           0.1629   -3.1321    1.1380 C.2     1  UNL1        0.2663
     11 O           1.0273   -3.4294    0.3166 O.2     1  UNL1       -0.2684
     12 C          -1.2855   -3.3628    0.8539 C.ar    1  UNL1        0.1694
     13 C          -1.6824   -3.9592   -0.3330 C.ar    1  UNL1        0.1735
     14 O          -0.7805   -4.3824   -1.2856 O.3     1  UNL1       -0.5028
     15 C          -3.0409   -4.1147   -0.5759 C.ar    1  UNL1        0.1166
     16 C          -3.9666   -3.6899    0.4061 C.ar    1  UNL1        0.0301
     17 C          -5.3353   -3.9320    0.1159 C.ar    1  UNL1       -0.0490
     18 C          -5.7358   -4.4561   -1.1080 C.ar    1  UNL1       -0.0429
     19 C          -4.7547   -4.7837   -2.0115 C.ar    1  UNL1        0.0284
     20 N          -3.4416   -4.6447   -1.7546 N.ar    1  UNL1       -0.2512
     21 C          -3.4686   -3.0404    1.5775 C.ar    1  UNL1        0.0847
     22 N          -2.1414   -2.8830    1.7978 N.ar    1  UNL1       -0.2376
     23 C          -4.3345   -2.3393    2.5748 C.ar    1  UNL1        0.0426
     24 C          -4.1395   -2.3964    3.9765 C.ar    1  UNL1        0.1293
     25 O          -3.0916   -3.1434    4.4647 O.3     1  UNL1       -0.4945
     26 C          -2.5154   -2.6605    5.6791 C.3     1  UNL1        0.0788
     27 C          -5.0319   -1.7383    4.8446 C.ar    1  UNL1       -0.0193
     28 C          -6.0915   -0.9821    4.3484 C.ar    1  UNL1       -0.0583
     29 C          -6.2598   -0.8559    2.9795 C.ar    1  UNL1       -0.0609
     30 C          -5.3813   -1.5070    2.1119 C.ar    1  UNL1       -0.0490
     31 H           1.6517    2.0546    6.1172 H       1  UNL1        0.0524
     32 H           2.7086    0.6267    6.3715 H       1  UNL1        0.0524
     33 H           3.4051    2.1676    5.8543 H       1  UNL1        0.0524
     34 H           0.3492    1.3677    4.3617 H       1  UNL1        0.0596
     35 H           0.0065    0.2956    2.2253 H       1  UNL1        0.0291
     36 H           1.3533    1.4243    2.0558 H       1  UNL1        0.0291
     37 H           1.7839   -0.7477    0.9272 H       1  UNL1        0.0284
     38 H           2.9897   -0.3518    2.1435 H       1  UNL1        0.0284
     39 H           2.4625   -2.6891    2.4027 H       1  UNL1        0.0498
     40 H           1.5298   -2.7501    4.7452 H       1  UNL1        0.0284
     41 H           2.8063   -1.5548    4.5268 H       1  UNL1        0.0284
     42 H           0.9329   -0.6259    5.8292 H       1  UNL1        0.0291
     43 H          -0.2088   -0.9985    4.5555 H       1  UNL1        0.0291
     44 H          -0.4351   -2.2983    2.8758 H       1  UNL1        0.1493
     45 H           0.1304   -4.1615   -0.9901 H       1  UNL1        0.2923
     46 H          -6.1101   -3.7024    0.8431 H       1  UNL1        0.0625
     47 H          -6.7835   -4.5959   -1.3483 H       1  UNL1        0.0633
     48 H          -4.9946   -5.1822   -2.9931 H       1  UNL1        0.0830
     49 H          -2.3426   -1.5781    5.6442 H       1  UNL1        0.0660
     50 H          -3.1371   -2.9241    6.5412 H       1  UNL1        0.0660
     51 H          -1.5448   -3.1474    5.8134 H       1  UNL1        0.0660
     52 H          -4.9316   -1.8132    5.9232 H       1  UNL1        0.0654
     53 H          -6.7762   -0.4867    5.0317 H       1  UNL1        0.0619
     54 H          -7.0727   -0.2548    2.5799 H       1  UNL1        0.0618
     55 H          -5.5268   -1.3546    1.0434 H       1  UNL1        0.0625
@<TRIPOS>BOND
     1     1    31    1
     2     1    32    1
     3     1    33    1
     4     2     1    1
     5     4     3    1
     6     4    35    1
     7     4    36    1
     8     5     4    1
     9     5    37    1
    10     5    38    1
    11     6     5    1
    12     7     6    1
    13     7    40    1
    14     7    41    1
    15     8     7    1
    16     8     3    1
    17     8    42    1
    18     8    43    1
    19     9    44    1
    20    10     9   am
    21    11    10    2
    22    12    10    1
    23    13    12   ar
    24    14    13    1
    25    14    45    1
    26    15    13   ar
    27    16    15   ar
    28    17    16   ar
    29    17    46    1
    30    18    17   ar
    31    18    47    1
    32    19    18   ar
    33    19    48    1
    34    20    19   ar
    35    20    15   ar
    36    21    16   ar
    37    22    21   ar
    38    22    12   ar
    39    23    21    1
    40    24    23   ar
    41    25    24    1
    42    26    25    1
    43    26    49    1
    44    26    50    1
    45    26    51    1
    46    27    24   ar
    47    27    52    1
    48    28    27   ar
    49    28    53    1
    50    29    28   ar
    51    29    54    1
    52    30    29   ar
    53    30    23   ar
    54    30    55    1
    55     3    34    1
    56     3     2    1
    57     6     9    1
    58     6    39    1
