@<TRIPOS>MOLECULE
mol_16_akc_jejmech200702010
>16.sdf
 51 55 0 0 0
SMALL
GASTEIGER

@<TRIPOS>ATOM
      1 O           3.3677   -2.1166    1.1936 O.2     1  UNL1       -0.2699
      2 C           3.3279   -1.0242    0.6490 C.2     1  UNL1        0.2483
      3 N           2.9552    0.1510    1.2901 N.am    1  UNL1       -0.2814
      4 C           2.3191    0.1395    2.5429 C.ar    1  UNL1        0.0357
      5 C           2.7109    1.0431    3.5380 C.ar    1  UNL1       -0.0145
      6 C           2.1107    1.0396    4.7970 C.ar    1  UNL1        0.0734
      7 N           2.5671    1.8479    5.7844 N.ar    1  UNL1       -0.2466
      8 C           1.9806    1.8089    7.0046 C.ar    1  UNL1        0.0734
      9 C           0.8753    0.9733    7.2523 C.ar    1  UNL1        0.0011
     10 C           0.2626    0.9456    8.5031 C.ar    1  UNL1       -0.0508
     11 C           0.7475    1.7396    9.5334 C.ar    1  UNL1       -0.0398
     12 C           1.8549    2.5660    9.3440 C.ar    1  UNL1        0.0357
     13 N           2.3937    3.3778   10.3810 N.am    1  UNL1       -0.2814
     14 C           1.9331    3.4178   11.6942 C.2     1  UNL1        0.2483
     15 O           1.0232    2.7343   12.1521 O.2     1  UNL1       -0.2699
     16 C           2.5925    4.3538   12.6500 C.ar    1  UNL1        0.0370
     17 C           3.2479    5.5280   12.2661 C.ar    1  UNL1       -0.0496
     18 C           3.7424    6.3988   13.2477 C.ar    1  UNL1       -0.0610
     19 C           3.5833    6.1068   14.6042 C.ar    1  UNL1       -0.0617
     20 C           2.9400    4.9370   14.9930 C.ar    1  UNL1       -0.0610
     21 C           2.4499    4.0669   14.0206 C.ar    1  UNL1       -0.0496
     22 C           2.4502    2.5902    8.0684 C.ar    1  UNL1       -0.0145
     23 C           0.4012    0.1536    6.2335 C.ar    1  UNL1       -0.0434
     24 C           1.0292    0.1583    4.9949 C.ar    1  UNL1        0.0011
     25 C           0.5960   -0.7101    3.9854 C.ar    1  UNL1       -0.0508
     26 C           1.2633   -0.7402    2.7710 C.ar    1  UNL1       -0.0398
     27 C           3.6734   -0.9313   -0.7971 C.ar    1  UNL1        0.0370
     28 C           3.5365   -2.1079   -1.5511 C.ar    1  UNL1       -0.0496
     29 C           3.7581   -2.0969   -2.9287 C.ar    1  UNL1       -0.0610
     30 C           4.1264   -0.9139   -3.5587 C.ar    1  UNL1       -0.0617
     31 C           4.2934    0.2542   -2.8131 C.ar    1  UNL1       -0.0610
     32 C           4.0723    0.2490   -1.4324 C.ar    1  UNL1       -0.0496
     33 H           3.1843    1.0539    0.8975 H       1  UNL1        0.1551
     34 H           3.5510    1.7100    3.3694 H       1  UNL1        0.0657
     35 H          -0.5945    0.3037    8.6956 H       1  UNL1        0.0625
     36 H           0.2218    1.6711   10.4813 H       1  UNL1        0.0636
     37 H           3.2124    3.9216   10.1444 H       1  UNL1        0.1551
     38 H           3.3443    5.8125   11.2250 H       1  UNL1        0.0625
     39 H           4.2333    7.3248   12.9560 H       1  UNL1        0.0618
     40 H           3.9493    6.7974   15.3603 H       1  UNL1        0.0618
     41 H           2.7999    4.7064   16.0456 H       1  UNL1        0.0618
     42 H           1.9272    3.1642   14.3377 H       1  UNL1        0.0625
     43 H           3.3129    3.2243    7.8796 H       1  UNL1        0.0657
     44 H          -0.4442   -0.5055    6.4132 H       1  UNL1        0.0631
     45 H          -0.2467   -1.3791    4.1427 H       1  UNL1        0.0625
     46 H           0.9283   -1.4253    1.9957 H       1  UNL1        0.0636
     47 H           3.2397   -3.0375   -1.0656 H       1  UNL1        0.0625
     48 H           3.6330   -3.0126   -3.5018 H       1  UNL1        0.0618
     49 H           4.2895   -0.9029   -4.6328 H       1  UNL1        0.0618
     50 H           4.5958    1.1720   -3.3118 H       1  UNL1        0.0618
     51 H           4.2311    1.1702   -0.8831 H       1  UNL1        0.0625
@<TRIPOS>BOND
     1     2     1    2
     2     3     2   am
     3     3    33    1
     4     4     3    1
     5     5     4   ar
     6     5    34    1
     7     6     5   ar
     8     7     6   ar
     9     8     7   ar
    10     9     8   ar
    11    10     9   ar
    12    10    35    1
    13    11    10   ar
    14    11    36    1
    15    12    11   ar
    16    13    12    1
    17    13    37    1
    18    14    13   am
    19    15    14    2
    20    16    14    1
    21    17    16   ar
    22    17    38    1
    23    18    17   ar
    24    18    39    1
    25    19    18   ar
    26    19    40    1
    27    20    19   ar
    28    20    41    1
    29    21    20   ar
    30    21    16   ar
    31    21    42    1
    32    22    12   ar
    33    22     8   ar
    34    22    43    1
    35    23     9   ar
    36    23    44    1
    37    24    23   ar
    38    24     6   ar
    39    25    24   ar
    40    25    45    1
    41    26    25   ar
    42    26     4   ar
    43    26    46    1
    44    27     2    1
    45    28    27   ar
    46    28    47    1
    47    29    28   ar
    48    29    48    1
    49    30    29   ar
    50    30    49    1
    51    31    30   ar
    52    31    50    1
    53    32    31   ar
    54    32    27   ar
    55    32    51    1
