@<TRIPOS>MOLECULE
mol_170_akc_ijms21186839
>166.sdf
 47 50 0 0 0
SMALL
GASTEIGER

@<TRIPOS>ATOM
      1 C           1.7712   -0.9758   -1.9354 C.3     1  UNL1        0.1346
      2 O           2.0026   -2.3582   -2.2038 O.3     1  UNL1       -0.4858
      3 C           1.1392   -2.9773   -3.0644 C.ar    1  UNL1        0.1211
      4 C           0.0474   -2.3899   -3.7066 C.ar    1  UNL1       -0.0199
      5 C          -0.7416   -3.1460   -4.5824 C.ar    1  UNL1       -0.0583
      6 C          -0.4458   -4.4878   -4.8128 C.ar    1  UNL1       -0.0615
      7 C           0.6362   -5.0798   -4.1664 C.ar    1  UNL1       -0.0583
      8 C           1.4222   -4.3251   -3.2953 C.ar    1  UNL1       -0.0199
      9 C           2.8197   -0.4307   -1.0328 C.ar    1  UNL1        0.1204
     10 C           4.0701    0.0671   -1.3291 C.ar    1  UNL1        0.0578
     11 N           4.5575    0.5505   -0.1318 N.ar    1  UNL1       -0.2191
     12 N           3.6626    0.2821    0.8420 N.ar    1  UNL1       -0.0604
     13 N           2.6062   -0.3120    0.3093 N.ar    1  UNL1       -0.1307
     14 C           5.7770    1.2404    0.0963 C.ar    1  UNL1        0.0756
     15 C           5.9711    2.1261    1.1755 C.ar    1  UNL1        0.0200
     16 C           4.9614    2.4447    2.2157 C.2     1  UNL1        0.0547
     17 N           4.9344    3.6167    2.7730 N.2     1  UNL1       -0.1899
     18 N           3.9618    3.7832    3.7065 N.pl3   1  UNL1       -0.2378
     19 C           3.8783    5.0281    4.3653 C.ar    1  UNL1        0.0483
     20 C           4.5347    6.1698    3.8859 C.ar    1  UNL1       -0.0391
     21 C           4.3733    7.4109    4.5071 C.ar    1  UNL1       -0.0600
     22 C           3.5340    7.5320    5.6108 C.ar    1  UNL1       -0.0616
     23 C           2.8539    6.4143    6.0885 C.ar    1  UNL1       -0.0600
     24 C           3.0176    5.1731    5.4616 C.ar    1  UNL1       -0.0391
     25 C           7.1800    2.8444    1.2634 C.ar    1  UNL1       -0.0511
     26 C           8.1947    2.6712    0.3238 C.ar    1  UNL1       -0.0610
     27 C           8.0167    1.7780   -0.7239 C.ar    1  UNL1       -0.0597
     28 C           6.8160    1.0746   -0.8449 C.ar    1  UNL1       -0.0356
     29 H           0.7911   -0.8456   -1.4598 H       1  UNL1        0.0764
     30 H           1.7935   -0.4041   -2.8721 H       1  UNL1        0.0764
     31 H          -0.2245   -1.3512   -3.5517 H       1  UNL1        0.0654
     32 H          -1.5900   -2.6849   -5.0814 H       1  UNL1        0.0619
     33 H          -1.0583   -5.0715   -5.4947 H       1  UNL1        0.0618
     34 H           0.8696   -6.1270   -4.3388 H       1  UNL1        0.0619
     35 H           2.2657   -4.7916   -2.7907 H       1  UNL1        0.0654
     36 H           4.5876    0.1860   -2.2681 H       1  UNL1        0.0851
     37 H           4.2351    1.6773    2.5171 H       1  UNL1        0.0852
     38 H           3.6727    2.9876    4.2724 H       1  UNL1        0.1744
     39 H           5.1781    6.0945    3.0126 H       1  UNL1        0.0636
     40 H           4.8972    8.2798    4.1188 H       1  UNL1        0.0618
     41 H           3.4010    8.4980    6.0899 H       1  UNL1        0.0618
     42 H           2.1877    6.5067    6.9416 H       1  UNL1        0.0618
     43 H           2.4633    4.3199    5.8392 H       1  UNL1        0.0636
     44 H           7.3343    3.5597    2.0714 H       1  UNL1        0.0625
     45 H           9.1186    3.2375    0.4131 H       1  UNL1        0.0618
     46 H           8.8115    1.6314   -1.4520 H       1  UNL1        0.0618
     47 H           6.7295    0.3770   -1.6752 H       1  UNL1        0.0639
@<TRIPOS>BOND
     1     1    29    1
     2     1    30    1
     3     2     1    1
     4     3     2    1
     5     4     3   ar
     6     4    31    1
     7     5     4   ar
     8     5    32    1
     9     6     5   ar
    10     6    33    1
    11     7     6   ar
    12     7    34    1
    13     8     7   ar
    14     8     3   ar
    15     8    35    1
    16     9     1    1
    17    10     9   ar
    18    10    36    1
    19    11    10   ar
    20    12    11   ar
    21    13    12   ar
    22    13     9   ar
    23    14    11    1
    24    15    14   ar
    25    16    15    1
    26    16    37    1
    27    17    16    2
    28    18    17    1
    29    18    38    1
    30    19    18    1
    31    20    19   ar
    32    20    39    1
    33    21    20   ar
    34    21    40    1
    35    22    21   ar
    36    22    41    1
    37    23    22   ar
    38    23    42    1
    39    24    23   ar
    40    24    19   ar
    41    24    43    1
    42    25    15   ar
    43    25    44    1
    44    26    25   ar
    45    26    45    1
    46    27    26   ar
    47    27    46    1
    48    28    27   ar
    49    28    14   ar
    50    28    47    1
