@<TRIPOS>MOLECULE
mol_171_akc_d0md00083c
>167.sdf
 34 35 0 0 0
SMALL
GASTEIGER

@<TRIPOS>ATOM
      1 C          -0.2639    1.3638   -2.3388 C.3     1  UNL1        0.0191
      2 N          -0.2190    0.5498   -1.1450 N.ar    1  UNL1       -0.2708
      3 C           0.1672    0.9737    0.1183 C.ar    1  UNL1        0.1522
      4 C           0.5931    2.3696    0.4641 C.3     1  UNL1        0.1472
      5 O           1.8249    2.6184   -0.2127 O.3     1  UNL1       -0.4843
      6 C           2.4267    3.8267    0.0185 C.ar    1  UNL1        0.1212
      7 C           1.9733    4.8216    0.8889 C.ar    1  UNL1       -0.0181
      8 C           2.6744    6.0285    1.0081 C.ar    1  UNL1       -0.0334
      9 C           3.8363    6.2338    0.2599 C.ar    1  UNL1        0.0881
     10 C           4.3009    5.2457   -0.6084 C.ar    1  UNL1       -0.0334
     11 C           3.5962    4.0438   -0.7186 C.ar    1  UNL1       -0.0181
     12 S           4.6581    7.8109    0.3226 S.O2    1  UNL1       -0.0059
     13 C           5.8225    7.6425    1.6474 C.3     1  UNL1        0.0596
     14 O           5.4024    7.9624   -0.9137 O.2     1  UNL1       -0.1696
     15 O           3.6681    8.7959    0.7167 O.2     1  UNL1       -0.1696
     16 N           0.0763   -0.0173    0.9902 N.ar    1  UNL1       -0.2299
     17 C          -0.3578   -1.1091    0.2882 C.ar    1  UNL1        0.1257
     18 C          -0.5500   -0.7783   -1.0268 C.ar    1  UNL1        0.3677
     19 N          -1.0080   -1.6260   -2.0759 N.pl3   1  UNL1        0.1004
     20 O          -1.1469   -1.1322   -3.2008 O.co2   1  UNL1       -0.5747
     21 O          -1.2398   -2.8016   -1.7728 O.2     1  UNL1        0.0431
     22 H           0.4048    0.9274   -3.0851 H       1  UNL1        0.0458
     23 H          -1.2958    1.3947   -2.6988 H       1  UNL1        0.0458
     24 H           0.0607    2.3827   -2.1256 H       1  UNL1        0.0458
     25 H          -0.1776    3.0833    0.1505 H       1  UNL1        0.0779
     26 H           0.7358    2.4296    1.5495 H       1  UNL1        0.0779
     27 H           1.0718    4.7018    1.4819 H       1  UNL1        0.0655
     28 H           2.2938    6.8057    1.6684 H       1  UNL1        0.0638
     29 H           5.1889    5.4047   -1.2164 H       1  UNL1        0.0638
     30 H           3.9531    3.2747   -1.4008 H       1  UNL1        0.0655
     31 H           6.5161    6.8321    1.4161 H       1  UNL1        0.0468
     32 H           6.3708    8.5841    1.7329 H       1  UNL1        0.0468
     33 H           5.2843    7.4445    2.5760 H       1  UNL1        0.0468
     34 H          -0.5123   -2.0670    0.7707 H       1  UNL1        0.0917
@<TRIPOS>UNITY_ATOM_ATTR
19 1
charge 1
20 1
charge -1
@<TRIPOS>BOND
     1     1    22    1
     2     1    23    1
     3     1    24    1
     4     2     1    1
     5     3     2   ar
     6     4     3    1
     7     4    25    1
     8     4    26    1
     9     5     4    1
    10     6     5    1
    11     7     6   ar
    12     7    27    1
    13     8     7   ar
    14     8    28    1
    15     9     8   ar
    16    10     9   ar
    17    10    29    1
    18    11    10   ar
    19    11     6   ar
    20    11    30    1
    21    12     9    1
    22    13    12    1
    23    13    31    1
    24    13    32    1
    25    13    33    1
    26    14    12    2
    27    15    12    2
    28    16     3   ar
    29    17    16   ar
    30    17    34    1
    31    18    17   ar
    32    18     2   ar
    33    19    18    1
    34    20    19    1
    35    21    19    2
