@<TRIPOS>MOLECULE
mol_172_akc_d0md00083c
>168.sdf
 22 23 0 0 0
SMALL
GASTEIGER

@<TRIPOS>ATOM
      1 C           3.3801   -0.3447    1.1405 C.3     1  UNL1       -0.0619
      2 C           2.4087    0.0580    0.0397 C.3     1  UNL1       -0.0168
      3 C           2.9564    1.1885   -0.8340 C.3     1  UNL1        0.1209
      4 C           1.9600    1.6074   -1.9467 C.3     1  UNL1        0.0646
      5 N           1.8208    3.0083   -1.6615 N.ar    1  UNL1       -0.2952
      6 C           1.1544    4.0746   -2.1309 C.ar    1  UNL1        0.0586
      7 C           1.5526    5.0890   -1.2591 C.ar    1  UNL1        0.2357
      8 N           2.4320    4.6213   -0.2804 N.ar    1  UNL1       -0.1709
      9 C           2.5442    3.3590   -0.5796 C.ar    1  UNL1        0.3007
     10 O           3.2154    2.3709   -0.0146 O.3     1  UNL1       -0.4584
     11 N           1.1379    6.4753   -1.2915 N.pl3   1  UNL1        0.0767
     12 O           0.3225    6.7875   -2.1722 O.2     1  UNL1       -0.1246
     13 O           1.6213    7.2452   -0.4513 O.2     1  UNL1       -0.1246
     14 H           3.0076   -1.2295    1.6667 H       1  UNL1        0.0231
     15 H           4.3660   -0.5841    0.7297 H       1  UNL1        0.0231
     16 H           3.4982    0.4572    1.8761 H       1  UNL1        0.0231
     17 H           2.1926   -0.8152   -0.5866 H       1  UNL1        0.0299
     18 H           1.4684    0.3687    0.5111 H       1  UNL1        0.0299
     19 H           3.9101    0.8857   -1.2846 H       1  UNL1        0.0752
     20 H           2.3809    1.4850   -2.9481 H       1  UNL1        0.0530
     21 H           0.9806    1.1276   -1.8719 H       1  UNL1        0.0530
     22 H           0.4875    4.0652   -2.9815 H       1  UNL1        0.0850
@<TRIPOS>BOND
     1     1    14    1
     2     1    15    1
     3     1    16    1
     4     2     1    1
     5     2    17    1
     6     2    18    1
     7     3     2    1
     8     3    19    1
     9     4     3    1
    10     4    20    1
    11     4    21    1
    12     5     4    1
    13     6     5   ar
    14     6    22    1
    15     7     6   ar
    16     8     7   ar
    17     9     8   ar
    18     9     5   ar
    19    10     9    1
    20    10     3    1
    21    11     7    1
    22    12    11    2
    23    13    11    2
