@<TRIPOS>MOLECULE
mol_173_akc_d0md00083c
>168_2.sdf
 22 23 0 0 0
SMALL
GASTEIGER

@<TRIPOS>ATOM
      1 C           3.8345    1.4606   -2.1585 C.3     1  UNL1       -0.0619
      2 C           4.1617    0.0381   -1.7309 C.3     1  UNL1       -0.0168
      3 C           2.9240   -0.7598   -1.3165 C.3     1  UNL1        0.1209
      4 C           3.2972   -2.1979   -0.8731 C.3     1  UNL1        0.0646
      5 N           2.4334   -2.9679   -1.7226 N.ar    1  UNL1       -0.2952
      6 C           2.1570   -4.2556   -1.9747 C.ar    1  UNL1        0.0586
      7 C           1.2195   -4.1684   -3.0030 C.ar    1  UNL1        0.2357
      8 N           0.9690   -2.8437   -3.3707 N.ar    1  UNL1       -0.1709
      9 C           1.7428   -2.1736   -2.5648 C.ar    1  UNL1        0.3007
     10 O           1.9924   -0.8807   -2.4380 O.3     1  UNL1       -0.4584
     11 N           0.5648   -5.2738   -3.6692 N.pl3   1  UNL1        0.0767
     12 O           0.8856   -6.4117   -3.2960 O.2     1  UNL1       -0.1246
     13 O          -0.2608   -5.0099   -4.5523 O.2     1  UNL1       -0.1246
     14 H           4.7586    2.0046   -2.3810 H       1  UNL1        0.0231
     15 H           3.2132    1.4726   -3.0591 H       1  UNL1        0.0231
     16 H           3.3077    2.0001   -1.3654 H       1  UNL1        0.0231
     17 H           4.6644   -0.4622   -2.5673 H       1  UNL1        0.0299
     18 H           4.8678    0.0721   -0.8929 H       1  UNL1        0.0299
     19 H           2.3946   -0.2438   -0.5052 H       1  UNL1        0.0752
     20 H           4.3341   -2.4716   -1.0863 H       1  UNL1        0.0530
     21 H           3.0471   -2.3913    0.1728 H       1  UNL1        0.0530
     22 H           2.6016   -5.0981   -1.4625 H       1  UNL1        0.0850
@<TRIPOS>BOND
     1     1    14    1
     2     1    15    1
     3     1    16    1
     4     2     1    1
     5     2    17    1
     6     2    18    1
     7     4     3    1
     8     4    20    1
     9     4    21    1
    10     5     4    1
    11     6     5   ar
    12     6    22    1
    13     7     6   ar
    14     8     7   ar
    15     9     8   ar
    16     9     5   ar
    17    10     9    1
    18    10     3    1
    19    11     7    1
    20    12    11    2
    21    13    11    2
    22     3    19    1
    23     3     2    1
