@<TRIPOS>MOLECULE
mol_174_akc_d0md00083c
>169.sdf
 39 41 0 0 0
SMALL
GASTEIGER

@<TRIPOS>ATOM
      1 C           1.6016   -0.6014   -0.1924 C.3     1  UNL1        0.0788
      2 O           2.7000   -0.1947    0.6136 O.3     1  UNL1       -0.4951
      3 C           3.2836    1.0027    0.3048 C.ar    1  UNL1        0.1201
      4 C           2.8901    1.8712   -0.7131 C.ar    1  UNL1       -0.0197
      5 C           3.5894    3.0639   -0.9338 C.ar    1  UNL1       -0.0551
      6 C           4.6953    3.3988   -0.1448 C.ar    1  UNL1       -0.0471
      7 C           5.4756    4.6625   -0.4055 C.3     1  UNL1       -0.0273
      8 C           4.9355    5.8547    0.3897 C.3     1  UNL1       -0.0415
      9 C           5.7774    7.1373    0.2277 C.3     1  UNL1        0.0117
     10 C           7.2178    6.9466    0.7354 C.3     1  UNL1        0.0971
     11 O           7.9853    8.1502    0.7378 O.3     1  UNL1       -0.4632
     12 C           7.3816    9.1991    1.2789 C.ar    1  UNL1        0.3003
     13 N           8.0057   10.2513    1.7478 N.ar    1  UNL1       -0.1709
     14 C           6.9939   11.0905    2.1720 C.ar    1  UNL1        0.2357
     15 C           5.7479   10.5390    1.9293 C.ar    1  UNL1        0.0585
     16 N           6.0265    9.3285    1.3668 N.ar    1  UNL1       -0.2984
     17 C           5.0935    8.3055    0.9594 C.3     1  UNL1        0.0335
     18 N           7.2833   12.3712    2.7855 N.pl3   1  UNL1        0.0767
     19 O           6.3062   13.0787    3.0687 O.2     1  UNL1       -0.1246
     20 O           8.4675   12.6608    2.9901 O.2     1  UNL1       -0.1246
     21 C           5.0726    2.5344    0.8903 C.ar    1  UNL1       -0.0551
     22 C           4.3729    1.3451    1.1075 C.ar    1  UNL1       -0.0197
     23 H           0.7696    0.1055   -0.1097 H       1  UNL1        0.0660
     24 H           1.9049   -0.7357   -1.2362 H       1  UNL1        0.0660
     25 H           1.2533   -1.5697    0.1800 H       1  UNL1        0.0660
     26 H           2.0475    1.6486   -1.3592 H       1  UNL1        0.0654
     27 H           3.2704    3.7217   -1.7394 H       1  UNL1        0.0621
     28 H           6.5240    4.4667   -0.1553 H       1  UNL1        0.0313
     29 H           5.4593    4.8913   -1.4784 H       1  UNL1        0.0313
     30 H           3.9031    6.0599    0.0757 H       1  UNL1        0.0273
     31 H           4.8834    5.5915    1.4550 H       1  UNL1        0.0273
     32 H           5.8313    7.4044   -0.8369 H       1  UNL1        0.0351
     33 H           7.2311    6.5155    1.7444 H       1  UNL1        0.0701
     34 H           7.7539    6.2525    0.0803 H       1  UNL1        0.0701
     35 H           4.7447   10.8977    2.1135 H       1  UNL1        0.0850
     36 H           4.3473    8.7763    0.3081 H       1  UNL1        0.0497
     37 H           4.5886    7.9679    1.8713 H       1  UNL1        0.0497
     38 H           5.9226    2.7689    1.5270 H       1  UNL1        0.0621
     39 H           4.6851    0.6742    1.9044 H       1  UNL1        0.0654
@<TRIPOS>BOND
     1     1    23    1
     2     1    24    1
     3     1    25    1
     4     2     1    1
     5     3     2    1
     6     4     3   ar
     7     4    26    1
     8     5     4   ar
     9     5    27    1
    10     6     5   ar
    11     7     6    1
    12     7    28    1
    13     7    29    1
    14     8     7    1
    15     8    30    1
    16     8    31    1
    17     9     8    1
    18     9    32    1
    19    10     9    1
    20    10    33    1
    21    10    34    1
    22    11    10    1
    23    12    11    1
    24    13    12   ar
    25    14    13   ar
    26    15    14   ar
    27    15    35    1
    28    16    15   ar
    29    16    12   ar
    30    17    16    1
    31    17     9    1
    32    17    36    1
    33    17    37    1
    34    18    14    1
    35    19    18    2
    36    20    18    2
    37    21     6   ar
    38    21    38    1
    39    22    21   ar
    40    22     3   ar
    41    22    39    1
