@<TRIPOS>MOLECULE
mol_175_akc_d0md00083c
>170.sdf
 44 47 0 0 0
SMALL
GASTEIGER

@<TRIPOS>ATOM
      1 F           2.2269   -0.4448   -0.3893 F       1  UNL1       -0.2055
      2 C           0.8928   -0.3636   -0.3073 C.ar    1  UNL1        0.1234
      3 C           0.3108    0.7567    0.2668 C.ar    1  UNL1       -0.0258
      4 C          -1.0818    0.8477    0.3402 C.ar    1  UNL1       -0.0499
      5 C          -1.9124   -0.1713   -0.1703 C.ar    1  UNL1        0.0005
      6 C          -1.2837   -1.3052   -0.7217 C.ar    1  UNL1       -0.0499
      7 C           0.1097   -1.4002   -0.7952 C.ar    1  UNL1       -0.0258
      8 C          -3.3861   -0.0571   -0.1429 C.ar    1  UNL1        0.0710
      9 C          -4.0410    1.1699   -0.2420 C.ar    1  UNL1       -0.0354
     10 C          -5.4322    1.2127   -0.1984 C.ar    1  UNL1       -0.0551
     11 C          -6.1582    0.0304   -0.0708 C.ar    1  UNL1       -0.0291
     12 C          -7.6610    0.0357    0.0132 C.3     1  UNL1       -0.0229
     13 C          -8.3242    0.6366   -1.2354 C.3     1  UNL1       -0.0116
     14 C          -9.8628    0.5800   -1.1770 C.3     1  UNL1        0.1052
     15 C         -10.4833    1.1710   -2.4584 C.3     1  UNL1        0.0025
     16 C         -11.3548    2.4062   -2.3118 C.3     1  UNL1        0.0309
     17 N         -11.5784    2.7988   -0.9520 N.ar    1  UNL1       -0.2986
     18 C         -12.3329    3.8490   -0.5137 C.ar    1  UNL1        0.0585
     19 C         -12.2091    3.8031    0.8631 C.ar    1  UNL1        0.2357
     20 N         -11.4076    2.7468    1.2513 N.ar    1  UNL1       -0.1709
     21 C         -11.0524    2.1667    0.1293 C.ar    1  UNL1        0.3005
     22 O         -10.2943    1.0852    0.0835 O.3     1  UNL1       -0.4602
     23 N         -12.8030    4.7005    1.8267 N.pl3   1  UNL1        0.0767
     24 O         -13.5146    5.6093    1.3740 O.2     1  UNL1       -0.1246
     25 O         -12.5619    4.5042    3.0276 O.2     1  UNL1       -0.1246
     26 C          -5.4294   -1.1496    0.0154 C.ar    1  UNL1        0.0314
     27 N          -4.0773   -1.2188   -0.0278 N.ar    1  UNL1       -0.2547
     28 H           0.9385    1.5521    0.6551 H       1  UNL1        0.0646
     29 H          -1.5125    1.7261    0.8158 H       1  UNL1        0.0625
     30 H          -1.8890   -2.1240   -1.1092 H       1  UNL1        0.0625
     31 H           0.5826   -2.2733   -1.2325 H       1  UNL1        0.0646
     32 H          -3.4870    2.0947   -0.3623 H       1  UNL1        0.0639
     33 H          -5.9356    2.1741   -0.2565 H       1  UNL1        0.0621
     34 H          -8.0285   -0.9879    0.1585 H       1  UNL1        0.0315
     35 H          -7.9447    0.5991    0.9105 H       1  UNL1        0.0315
     36 H          -8.0119    1.6820   -1.3475 H       1  UNL1        0.0304
     37 H          -7.9748    0.1007   -2.1283 H       1  UNL1        0.0304
     38 H         -10.1326   -0.4845   -1.1621 H       1  UNL1        0.0734
     39 H          -9.7052    1.3754   -3.2063 H       1  UNL1        0.0318
     40 H         -11.0890    0.3852   -2.9302 H       1  UNL1        0.0318
     41 H         -10.8955    3.2600   -2.8227 H       1  UNL1        0.0494
     42 H         -12.3360    2.2324   -2.7691 H       1  UNL1        0.0494
     43 H         -12.8718    4.5157   -1.1735 H       1  UNL1        0.0850
     44 H          -5.9230   -2.1114    0.1318 H       1  UNL1        0.0832
@<TRIPOS>BOND
     1     2     1    1
     2     3     2   ar
     3     3    28    1
     4     4     3   ar
     5     4    29    1
     6     5     4   ar
     7     6     5   ar
     8     6    30    1
     9     7     6   ar
    10     7     2   ar
    11     7    31    1
    12     8     5    1
    13     9     8   ar
    14     9    32    1
    15    10     9   ar
    16    10    33    1
    17    11    10   ar
    18    12    11    1
    19    12    34    1
    20    12    35    1
    21    13    12    1
    22    13    36    1
    23    13    37    1
    24    14    13    1
    25    14    38    1
    26    15    14    1
    27    15    39    1
    28    15    40    1
    29    16    15    1
    30    16    41    1
    31    16    42    1
    32    17    16    1
    33    18    17   ar
    34    18    43    1
    35    19    18   ar
    36    20    19   ar
    37    21    20   ar
    38    21    17   ar
    39    22    21    1
    40    22    14    1
    41    23    19    1
    42    24    23    2
    43    25    23    2
    44    26    11   ar
    45    26    44    1
    46    27    26   ar
    47    27     8   ar
