@<TRIPOS>MOLECULE
mol_177_akc_d0md00083c
>172.sdf
 56 59 0 0 0
SMALL
GASTEIGER

@<TRIPOS>ATOM
      1 C           7.5951   -3.8679   -2.1703 C.3     1  UNL1        0.0820
      2 O           6.7857   -3.2204   -1.1857 O.3     1  UNL1       -0.4643
      3 C           7.1957   -1.9583   -0.8774 C.2     1  UNL1        0.3461
      4 O           8.2035   -1.4395   -1.3419 O.2     1  UNL1       -0.2447
      5 C           6.2885   -1.2591    0.0036 C.ar    1  UNL1        0.1471
      6 C           6.1724    0.1172    0.0858 C.ar    1  UNL1        0.1854
      7 O           5.2015    0.4243    0.9851 O.2     1  UNL1       -0.3519
      8 N           4.6204   -0.7247    1.4549 N.ar    1  UNL1       -0.0619
      9 C           5.2644   -1.7376    0.8690 C.ar    1  UNL1        0.1765
     10 N           4.9534   -3.0375    1.0419 N.pl3   1  UNL1       -0.3216
     11 C           3.6298   -3.4400    1.4763 C.3     1  UNL1        0.0358
     12 C           3.3107   -4.8088    0.9207 C.ar    1  UNL1       -0.0303
     13 C           2.9729   -5.8621    1.7722 C.ar    1  UNL1       -0.0568
     14 C           2.6698   -7.1291    1.2582 C.ar    1  UNL1       -0.0578
     15 C           2.6909   -7.3882   -0.1225 C.ar    1  UNL1       -0.0420
     16 C           3.0210   -6.3145   -0.9701 C.ar    1  UNL1       -0.0578
     17 C           3.3212   -5.0463   -0.4595 C.ar    1  UNL1       -0.0568
     18 C           2.3677   -8.7736   -0.7107 C.3     1  UNL1       -0.0127
     19 C           2.0424   -9.8385    0.3615 C.3     1  UNL1       -0.0560
     20 C           1.1425   -8.6742   -1.6448 C.3     1  UNL1       -0.0560
     21 C           3.5739   -9.2981   -1.5200 C.3     1  UNL1       -0.0560
     22 C           6.6893    1.2708   -0.6407 C.ar    1  UNL1        0.0547
     23 C           6.9819    2.5042   -0.0044 C.ar    1  UNL1        0.1406
     24 C           7.2398    3.6879   -0.7080 C.ar    1  UNL1        0.0148
     25 C           7.3305    3.5726   -2.0715 C.ar    1  UNL1        0.1684
     26 O           7.6822    4.5655   -2.9322 O.3     1  UNL1       -0.4525
     27 C           7.9888    3.7784   -4.1022 C.3     1  UNL1        0.2332
     28 O           7.3955    2.4637   -4.0509 O.3     1  UNL1       -0.4526
     29 C           7.1485    2.3686   -2.7155 C.ar    1  UNL1        0.1670
     30 C           6.7869    1.2201   -2.0415 C.ar    1  UNL1       -0.0032
     31 N           7.2345    2.5279    1.4230 N.pl3   1  UNL1        0.0573
     32 O           8.1816    1.8487    1.8282 O.2     1  UNL1       -0.1261
     33 O           6.5241    3.2810    2.1051 O.2     1  UNL1       -0.1261
     34 H           7.5822   -3.3019   -3.1093 H       1  UNL1        0.0661
     35 H           8.6179   -3.9882   -1.8052 H       1  UNL1        0.0661
     36 H           7.1729   -4.8588   -2.3633 H       1  UNL1        0.0661
     37 H           5.6429   -3.7786    0.9711 H       1  UNL1        0.1479
     38 H           3.5921   -3.4430    2.5712 H       1  UNL1        0.0511
     39 H           2.8541   -2.7484    1.1203 H       1  UNL1        0.0511
     40 H           2.9397   -5.7099    2.8489 H       1  UNL1        0.0621
     41 H           2.4162   -7.9042    1.9758 H       1  UNL1        0.0621
     42 H           3.0478   -6.4498   -2.0494 H       1  UNL1        0.0621
     43 H           3.5689   -4.2407   -1.1486 H       1  UNL1        0.0621
     44 H           1.1580   -9.5622    0.9477 H       1  UNL1        0.0238
     45 H           1.8342  -10.8126   -0.0962 H       1  UNL1        0.0238
     46 H           2.8801   -9.9806    1.0545 H       1  UNL1        0.0238
     47 H           1.3118   -7.9859   -2.4800 H       1  UNL1        0.0238
     48 H           0.8981   -9.6510   -2.0791 H       1  UNL1        0.0238
     49 H           0.2585   -8.3209   -1.1011 H       1  UNL1        0.0238
     50 H           3.8235   -8.6460   -2.3640 H       1  UNL1        0.0238
     51 H           4.4674   -9.3801   -0.8901 H       1  UNL1        0.0238
     52 H           3.3670  -10.2921   -1.9346 H       1  UNL1        0.0238
     53 H           7.4299    4.6314   -0.2089 H       1  UNL1        0.0678
     54 H           9.0807    3.6679   -4.1565 H       1  UNL1        0.1166
     55 H           7.6433    4.2990   -5.0003 H       1  UNL1        0.1166
     56 H           6.6088    0.3078   -2.6015 H       1  UNL1        0.0663
@<TRIPOS>BOND
     1     1    34    1
     2     1    35    1
     3     1    36    1
     4     2     1    1
     5     3     2    1
     6     4     3    2
     7     5     3    1
     8     6     5   ar
     9     7     6   ar
    10     8     7   ar
    11     9     8   ar
    12     9     5   ar
    13    10     9    1
    14    10    37    1
    15    11    10    1
    16    11    38    1
    17    11    39    1
    18    12    11    1
    19    13    12   ar
    20    13    40    1
    21    14    13   ar
    22    14    41    1
    23    15    14   ar
    24    16    15   ar
    25    16    42    1
    26    17    16   ar
    27    17    12   ar
    28    17    43    1
    29    18    15    1
    30    19    18    1
    31    19    44    1
    32    19    45    1
    33    19    46    1
    34    20    18    1
    35    20    47    1
    36    20    48    1
    37    20    49    1
    38    21    18    1
    39    21    50    1
    40    21    51    1
    41    21    52    1
    42    22     6    1
    43    23    22   ar
    44    24    23   ar
    45    24    53    1
    46    25    24   ar
    47    26    25    1
    48    27    26    1
    49    27    54    1
    50    27    55    1
    51    28    27    1
    52    29    28    1
    53    29    25   ar
    54    30    29   ar
    55    30    22   ar
    56    30    56    1
    57    31    23    1
    58    32    31    2
    59    33    31    2
