@<TRIPOS>MOLECULE
mol_178_akc_jjgar202002028
>173.sdf
 35 37 0 0 0
SMALL
GASTEIGER

@<TRIPOS>ATOM
      1 C           0.9964    0.0712   -0.0674 C.3     1  UNL1       -0.0188
      2 C           2.5118    0.1149   -0.1044 C.2     1  UNL1        0.0814
      3 N           3.1870    0.9202   -0.8778 N.2     1  UNL1       -0.1836
      4 N           2.5119    1.7562   -1.7117 N.pl3   1  UNL1       -0.2150
      5 C           3.1261    2.5452   -2.6312 C.ar    1  UNL1        0.1783
      6 N           4.3955    2.8890   -2.6441 N.ar    1  UNL1       -0.2236
      7 C           4.6612    3.7539   -3.6922 C.ar    1  UNL1        0.0803
      8 C           3.5980    3.9689   -4.5447 C.ar    1  UNL1        0.0049
      9 S           2.1989    3.1911   -3.9383 S.2     1  UNL1       -0.0586
     10 C           5.9825    4.3487   -3.8587 C.ar    1  UNL1        0.0010
     11 C           7.1063    3.6961   -3.3240 C.ar    1  UNL1       -0.0515
     12 C           8.3821    4.2420   -3.4713 C.ar    1  UNL1       -0.0471
     13 C           8.5469    5.4479   -4.1464 C.ar    1  UNL1        0.0179
     14 BR         10.2771    6.1764   -4.3643 Br      1  UNL1       -0.0503
     15 C           7.4430    6.1226   -4.6630 C.ar    1  UNL1       -0.0471
     16 C           6.1643    5.5751   -4.5166 C.ar    1  UNL1       -0.0515
     17 C           3.2642   -0.8233    0.7914 C.ar    1  UNL1        0.0862
     18 C           4.6524   -0.8833    0.7334 C.ar    1  UNL1       -0.0345
     19 C           5.3171   -1.7628    1.5888 C.ar    1  UNL1       -0.0583
     20 C           4.5745   -2.5478    2.4634 C.ar    1  UNL1       -0.0436
     21 C           3.1940   -2.4275    2.4493 C.ar    1  UNL1        0.0283
     22 N           2.5219   -1.5848    1.6355 N.ar    1  UNL1       -0.2537
     23 H           0.6160    1.0560    0.2206 H       1  UNL1        0.0294
     24 H           0.6175   -0.1876   -1.0609 H       1  UNL1        0.0294
     25 H           0.5980   -0.6588    0.6385 H       1  UNL1        0.0294
     26 H           1.4984    1.7532   -1.7361 H       1  UNL1        0.1765
     27 H           3.5593    4.5439   -5.4581 H       1  UNL1        0.0716
     28 H           6.9818    2.7585   -2.7859 H       1  UNL1        0.0624
     29 H           9.2375    3.7152   -3.0534 H       1  UNL1        0.0629
     30 H           7.5640    7.0731   -5.1761 H       1  UNL1        0.0629
     31 H           5.3165    6.1321   -4.9071 H       1  UNL1        0.0624
     32 H           5.2129   -0.2639    0.0400 H       1  UNL1        0.0639
     33 H           6.3991   -1.8278    1.5703 H       1  UNL1        0.0619
     34 H           5.0615   -3.2368    3.1452 H       1  UNL1        0.0633
     35 H           2.5748   -3.0167    3.1195 H       1  UNL1        0.0830
@<TRIPOS>BOND
     1     1    23    1
     2     1    24    1
     3     1    25    1
     4     2     1    1
     5     3     2    2
     6     4     3    1
     7     4    26    1
     8     5     4    1
     9     6     5   ar
    10     7     6   ar
    11     8     7   ar
    12     8    27    1
    13     9     8   ar
    14     9     5   ar
    15    10     7    1
    16    11    10   ar
    17    11    28    1
    18    12    11   ar
    19    12    29    1
    20    13    12   ar
    21    14    13    1
    22    15    13   ar
    23    15    30    1
    24    16    15   ar
    25    16    10   ar
    26    16    31    1
    27    17     2    1
    28    18    17   ar
    29    18    32    1
    30    19    18   ar
    31    19    33    1
    32    20    19   ar
    33    20    34    1
    34    21    20   ar
    35    21    35    1
    36    22    21   ar
    37    22    17   ar
