@<TRIPOS>MOLECULE
mol_179_akc_jejmech2020112418
>174.sdf
 43 46 0 0 0
SMALL
GASTEIGER

@<TRIPOS>ATOM
      1 C           3.6637    0.4025   -0.6660 C.3     1  UNL1       -0.0489
      2 C           2.5084    0.3936    0.3230 C.3     1  UNL1        0.0171
      3 N           2.8702    0.9920    1.5911 N.am    1  UNL1       -0.2684
      4 C           3.4930    0.2767    2.6272 C.2     1  UNL1        0.2610
      5 O           3.7294   -0.9221    2.6335 O.2     1  UNL1       -0.2713
      6 C           3.8240    1.3189    3.7649 C.3     1  UNL1        0.1989
      7 O           3.1515    1.0253    4.9858 O.3     1  UNL1       -0.3710
      8 C           5.3436    1.3671    3.9469 C.2     1  UNL1        0.0547
      9 C           5.9260    1.0479    5.1248 C.2     1  UNL1       -0.0868
     10 C           6.2400    1.7477    2.8814 C.ar    1  UNL1        0.2578
     11 N           7.5355    1.4962    2.8005 N.ar    1  UNL1       -0.1872
     12 C           7.9245    2.0787    1.6163 C.ar    1  UNL1        0.2024
     13 N           6.9267    2.6866    0.9649 N.ar    1  UNL1       -0.0557
     14 O           5.8264    2.4654    1.7762 O.2     1  UNL1       -0.3327
     15 C           9.3036    2.0322    1.1532 C.ar    1  UNL1        0.0225
     16 C          10.2242    1.1874    1.7903 C.ar    1  UNL1       -0.0509
     17 C          11.5566    1.1457    1.3765 C.ar    1  UNL1       -0.0611
     18 C          11.9815    1.9491    0.3209 C.ar    1  UNL1       -0.0617
     19 C          11.0756    2.7874   -0.3268 C.ar    1  UNL1       -0.0611
     20 C           9.7408    2.8279    0.0842 C.ar    1  UNL1       -0.0509
     21 C           3.2445    2.5903    3.1885 C.ar    1  UNL1        0.0202
     22 C           3.2224    3.8624    3.7449 C.ar    1  UNL1       -0.0349
     23 C           2.7158    4.9032    2.9680 C.ar    1  UNL1        0.0415
     24 CL          2.6836    6.4993    3.6093 Cl      1  UNL1       -0.0835
     25 C           2.2446    4.6699    1.6658 C.ar    1  UNL1       -0.0416
     26 C           2.2537    3.3792    1.1228 C.ar    1  UNL1       -0.0385
     27 C           2.7473    2.3500    1.9030 C.ar    1  UNL1        0.0431
     28 H           3.3537   -0.0469   -1.6150 H       1  UNL1        0.0245
     29 H           4.0089    1.4216   -0.8660 H       1  UNL1        0.0245
     30 H           4.5152   -0.1690   -0.2813 H       1  UNL1        0.0245
     31 H           1.6372    0.9084   -0.0943 H       1  UNL1        0.0466
     32 H           2.2108   -0.6452    0.5071 H       1  UNL1        0.0466
     33 H           2.2229    1.2924    4.8832 H       1  UNL1        0.2116
     34 H           7.0038    1.0771    5.2666 H       1  UNL1        0.0540
     35 H           5.3404    0.7382    5.9854 H       1  UNL1        0.0540
     36 H           9.9062    0.5544    2.6172 H       1  UNL1        0.0625
     37 H          12.2590    0.4883    1.8818 H       1  UNL1        0.0618
     38 H          13.0206    1.9219    0.0034 H       1  UNL1        0.0618
     39 H          11.4081    3.4141   -1.1504 H       1  UNL1        0.0618
     40 H           9.0498    3.4925   -0.4305 H       1  UNL1        0.0625
     41 H           3.6090    4.0416    4.7440 H       1  UNL1        0.0637
     42 H           1.8750    5.4991    1.0666 H       1  UNL1        0.0633
     43 H           1.8985    3.2161    0.1114 H       1  UNL1        0.0637
@<TRIPOS>BOND
     1     1    28    1
     2     1    29    1
     3     1    30    1
     4     2     1    1
     5     2    31    1
     6     2    32    1
     7     3     2    1
     8     4     3   am
     9     5     4    2
    10     6     4    1
    11     7    33    1
    12     9     8    2
    13     9    34    1
    14     9    35    1
    15    10     8    1
    16    11    10   ar
    17    12    11   ar
    18    13    12   ar
    19    14    13   ar
    20    14    10   ar
    21    15    12    1
    22    16    15   ar
    23    16    36    1
    24    17    16   ar
    25    17    37    1
    26    18    17   ar
    27    18    38    1
    28    19    18   ar
    29    19    39    1
    30    20    19   ar
    31    20    15   ar
    32    20    40    1
    33    21     6    1
    34    22    21   ar
    35    22    41    1
    36    23    22   ar
    37    24    23    1
    38    25    23   ar
    39    25    42    1
    40    26    25   ar
    41    26    43    1
    42    27    26   ar
    43    27     3    1
    44    27    21   ar
    45     6     8    1
    46     6     7    1
