@<TRIPOS>MOLECULE
mol_17_akc_aac02529_15
>17.sdf
 16 16 0 0 0
SMALL
GASTEIGER

@<TRIPOS>ATOM
      1 C           2.6134    0.6689    0.0697 C.3     1  UNL1        0.0000
      2 C           1.1757    0.2776    0.1386 C.ar    1  UNL1        0.0000
      3 C           0.0795    1.1134    0.1423 C.ar    1  UNL1        0.0000
      4 SE         -0.0121    3.0339    0.0093 Se      1  UNL1        0.0000
      5 C           0.8902    3.6474    1.6376 C.1     1  UNL1        0.0000
      6 N           1.4706    4.0421    2.6851 N.1     1  UNL1        0.0000
      7 C          -0.9978    0.2545    0.1474 C.ar    1  UNL1        0.0000
      8 C          -2.4411    0.6413    0.0793 C.3     1  UNL1        0.0000
      9 N          -0.5543   -1.0163    0.1722 N.ar    1  UNL1        0.0000
     10 O           0.7480   -0.9669    0.1675 O.2     1  UNL1        0.0000
     11 H           2.7963    1.2491   -0.8589 H       1  UNL1        0.0000
     12 H           2.8800    1.2768    0.9526 H       1  UNL1        0.0000
     13 H           3.2449   -0.2461    0.0468 H       1  UNL1        0.0000
     14 H          -2.7079    1.2591    0.9618 H       1  UNL1        0.0000
     15 H          -2.6303    1.2272   -0.8462 H       1  UNL1        0.0000
     16 H          -3.0832   -0.2650    0.0615 H       1  UNL1        0.0000
@<TRIPOS>BOND
     1     1    11    1
     2     1    12    1
     3     1    13    1
     4     2     1    1
     5     3     2   ar
     6     4     3    1
     7     5     4    1
     8     6     5    3
     9     7     3   ar
    10     8     7    1
    11     8    14    1
    12     8    15    1
    13     8    16    1
    14     9     7   ar
    15    10     9   ar
    16    10     2   ar
