@<TRIPOS>MOLECULE
mol_181_akc_d0nj01206h
>176.sdf
 49 53 0 0 0
SMALL
GASTEIGER

@<TRIPOS>ATOM
      1 C           0.3216   -1.7305    2.9477 C.3     1  UNL1       -0.0430
      2 N          -0.0471   -0.8250    1.8056 N.4     1  UNL1        0.2353
      3 C          -0.0444   -1.5811    0.4794 C.3     1  UNL1       -0.0160
      4 C          -0.4528   -0.6580   -0.6890 C.3     1  UNL1        0.0538
      5 N          -1.6969    0.0637   -0.4009 N.pl3   1  UNL1       -0.3032
      6 C          -1.7596    0.7764    0.8771 C.3     1  UNL1        0.0538
      7 C          -1.3927   -0.1437    2.0515 C.3     1  UNL1       -0.0160
      8 C          -2.8072    0.0113   -1.2340 C.ar    1  UNL1        0.1505
      9 N          -3.8970   -0.5483   -0.7672 N.ar    1  UNL1       -0.1473
     10 N          -4.9789   -0.5759   -1.6318 N.ar    1  UNL1       -0.1902
     11 C          -6.2424   -1.1151   -1.4321 C.ar    1  UNL1        0.1854
     12 N          -6.9716   -0.8748   -2.5128 N.ar    1  UNL1       -0.1270
     13 N          -6.2005   -0.2119   -3.4315 N.ar    1  UNL1       -0.1270
     14 C          -5.0133   -0.0396   -2.8961 C.ar    1  UNL1        0.1860
     15 C          -3.8414    0.6078   -3.4229 C.ar    1  UNL1        0.0315
     16 C          -2.7075    0.6369   -2.6046 C.ar    1  UNL1        0.0274
     17 C          -1.5525    1.2930   -3.0512 C.ar    1  UNL1       -0.0506
     18 C          -1.5265    1.8822   -4.3171 C.ar    1  UNL1       -0.0611
     19 C          -2.6592    1.8444   -5.1282 C.ar    1  UNL1       -0.0610
     20 C          -3.8196    1.2126   -4.6816 C.ar    1  UNL1       -0.0503
     21 C          -6.7263   -1.8032   -0.2324 C.ar    1  UNL1        0.0231
     22 C          -8.1006   -1.7978    0.0616 C.ar    1  UNL1       -0.0509
     23 C          -8.5997   -2.4235    1.2087 C.ar    1  UNL1       -0.0589
     24 C          -7.7315   -3.0661    2.0885 C.ar    1  UNL1       -0.0314
     25 C          -6.3628   -3.0916    1.7967 C.ar    1  UNL1        0.1269
     26 C          -5.8635   -2.4834    0.6347 C.ar    1  UNL1       -0.0207
     27 N          -5.4224   -3.7243    2.7276 N.pl3   1  UNL1        0.0564
     28 O          -5.8845   -4.2850    3.7290 O.2     1  UNL1       -0.1261
     29 O          -4.2080   -3.6254    2.4772 O.2     1  UNL1       -0.1261
     30 H           1.2975   -2.1726    2.7306 H       1  UNL1        0.0778
     31 H           0.3800   -1.1232    3.8547 H       1  UNL1        0.0778
     32 H          -0.4457   -2.5027    3.0413 H       1  UNL1        0.0778
     33 H           0.6707   -0.0918    1.7489 H       1  UNL1        0.2032
     34 H           0.9703   -1.9548    0.3241 H       1  UNL1        0.0830
     35 H          -0.7421   -2.4195    0.5826 H       1  UNL1        0.0830
     36 H           0.3475    0.0718   -0.8597 H       1  UNL1        0.0517
     37 H          -0.5494   -1.2606   -1.5994 H       1  UNL1        0.0517
     38 H          -1.0540    1.6170    0.8338 H       1  UNL1        0.0517
     39 H          -2.7534    1.2069    1.0454 H       1  UNL1        0.0517
     40 H          -2.1357   -0.9361    2.1844 H       1  UNL1        0.0830
     41 H          -1.2910    0.4377    2.9763 H       1  UNL1        0.0830
     42 H          -0.6693    1.3818   -2.4326 H       1  UNL1        0.0625
     43 H          -0.6267    2.3855   -4.6672 H       1  UNL1        0.0618
     44 H          -2.6439    2.3184   -6.1097 H       1  UNL1        0.0618
     45 H          -4.7077    1.2044   -5.3138 H       1  UNL1        0.0625
     46 H          -8.7980   -1.2959   -0.6096 H       1  UNL1        0.0625
     47 H          -9.6693   -2.3995    1.4154 H       1  UNL1        0.0618
     48 H          -8.1325   -3.5352    2.9851 H       1  UNL1        0.0640
     49 H          -4.8035   -2.5454    0.4057 H       1  UNL1        0.0647
@<TRIPOS>UNITY_ATOM_ATTR
2 1
charge 1
@<TRIPOS>BOND
     1     1    30    1
     2     1    31    1
     3     1    32    1
     4     2     1    1
     5     2    33    1
     6     3     2    1
     7     3    34    1
     8     3    35    1
     9     4     3    1
    10     4    36    1
    11     4    37    1
    12     5     4    1
    13     6     5    1
    14     6    38    1
    15     6    39    1
    16     7     6    1
    17     7     2    1
    18     7    40    1
    19     7    41    1
    20     8     5    1
    21     9     8   ar
    22    10     9   ar
    23    11    10   ar
    24    12    11   ar
    25    13    12   ar
    26    14    13   ar
    27    14    10   ar
    28    15    14   ar
    29    16    15   ar
    30    16     8   ar
    31    17    16   ar
    32    17    42    1
    33    18    17   ar
    34    18    43    1
    35    19    18   ar
    36    19    44    1
    37    20    19   ar
    38    20    15   ar
    39    20    45    1
    40    21    11    1
    41    22    21   ar
    42    22    46    1
    43    23    22   ar
    44    23    47    1
    45    24    23   ar
    46    24    48    1
    47    25    24   ar
    48    26    25   ar
    49    26    21   ar
    50    26    49    1
    51    27    25    1
    52    28    27    2
    53    29    27    2
