@<TRIPOS>MOLECULE
mol_182_akc_ardp201900325
>177.sdf
 26 28 0 0 0
SMALL
GASTEIGER

@<TRIPOS>ATOM
      1 CL         -2.0489    0.1075   -0.1502 Cl      1  UNL1       -0.0835
      2 C          -0.3294    0.0914   -0.1374 C.ar    1  UNL1        0.0410
      3 C           0.3650    1.0340    0.6188 C.ar    1  UNL1       -0.0427
      4 C           1.7641    1.0181    0.6432 C.ar    1  UNL1       -0.0482
      5 C           2.4721    0.0646   -0.1046 C.ar    1  UNL1        0.0372
      6 C           1.7590   -0.8857   -0.8514 C.ar    1  UNL1       -0.0482
      7 C           0.3614   -0.8707   -0.8697 C.ar    1  UNL1       -0.0427
      8 C           3.9668   -0.0279   -0.0884 C.2     1  UNL1        0.2497
      9 O           4.4816   -1.1045   -0.3592 O.2     1  UNL1       -0.2698
     10 N           4.6273    1.1338    0.2454 N.am    1  UNL1       -0.2606
     11 C           5.9681    1.1498    0.5199 C.ar    1  UNL1        0.1672
     12 N           6.8543    0.1950    0.4010 N.ar    1  UNL1       -0.2214
     13 C           8.0514    0.6255    0.9374 C.ar    1  UNL1        0.1168
     14 C           8.0366    1.9184    1.4445 C.ar    1  UNL1        0.1342
     15 S           6.5093    2.6304    1.1827 S.2     1  UNL1       -0.0322
     16 N           9.0415    2.5604    2.0643 N.ar    1  UNL1       -0.2085
     17 C          10.1301    1.7820    2.1490 C.ar    1  UNL1        0.2238
     18 CL         11.4606    2.4578    2.9832 Cl      1  UNL1       -0.0410
     19 N          10.3075    0.5314    1.6852 N.ar    1  UNL1       -0.2237
     20 C           9.2596   -0.0579    1.0624 C.ar    1  UNL1        0.0588
     21 H          -0.1774    1.7722    1.2050 H       1  UNL1        0.0632
     22 H           2.2675    1.7358    1.2837 H       1  UNL1        0.0625
     23 H           2.2920   -1.6502   -1.4154 H       1  UNL1        0.0625
     24 H          -0.1771   -1.6175   -1.4478 H       1  UNL1        0.0632
     25 H           4.1372    2.0021    0.3856 H       1  UNL1        0.1571
     26 H           9.4010   -1.0672    0.6946 H       1  UNL1        0.0853
@<TRIPOS>BOND
     1     2     1    1
     2     3     2   ar
     3     3    21    1
     4     4     3   ar
     5     4    22    1
     6     5     4   ar
     7     6     5   ar
     8     6    23    1
     9     7     6   ar
    10     7     2   ar
    11     7    24    1
    12     8     5    1
    13     9     8    2
    14    10     8   am
    15    10    25    1
    16    11    10    1
    17    12    11   ar
    18    13    12   ar
    19    14    13   ar
    20    15    14   ar
    21    15    11   ar
    22    16    14   ar
    23    17    16   ar
    24    18    17    1
    25    19    17   ar
    26    20    19   ar
    27    20    13   ar
    28    20    26    1
