@<TRIPOS>MOLECULE
mol_183_akc_acsjmedchem0c00570
>178.sdf
 53 56 0 0 0
SMALL
GASTEIGER

@<TRIPOS>ATOM
      1 C           0.9128   -0.0001   -0.3581 C.3     1  UNL1        0.0037
      2 N           2.3477    0.0119   -0.1545 N.pl3   1  UNL1       -0.2992
      3 C           3.0193    0.9210    0.7811 C.3     1  UNL1        0.0355
      4 C           3.0699    0.3213    2.1933 C.3     1  UNL1        0.0063
      5 C           3.6403    1.3012    3.2080 C.3     1  UNL1       -0.0304
      6 N           2.8984    2.6130    3.1672 N.4     1  UNL1        0.2332
      7 C           1.5075    2.5423    3.7460 C.3     1  UNL1       -0.0431
      8 C           2.9660    3.2405    1.7997 C.3     1  UNL1       -0.0304
      9 C           2.3658    2.3125    0.7599 C.3     1  UNL1        0.0063
     10 C           3.1140   -0.8436   -0.9238 C.ar    1  UNL1        0.2201
     11 N           2.6961   -1.1809   -2.1620 N.ar    1  UNL1       -0.1982
     12 C           3.4477   -1.9720   -2.9841 C.ar    1  UNL1        0.1411
     13 N           3.0126   -2.2137   -4.2831 N.pl3   1  UNL1       -0.3101
     14 C           3.9611   -2.4735   -5.3646 C.3     1  UNL1        0.0139
     15 C           3.4268   -1.6814   -6.5467 C.3     1  UNL1       -0.0355
     16 C           1.9277   -1.7149   -6.3483 C.3     1  UNL1       -0.0320
     17 C           1.7382   -1.6671   -4.8185 C.3     1  UNL1        0.0376
     18 C           0.5610   -2.5481   -4.4077 C.3     1  UNL1        0.0533
     19 C          -0.7738   -2.1576   -5.0212 C.1     1  UNL1        0.0644
     20 N          -1.8811   -1.8336   -5.5301 N.1     1  UNL1       -0.1965
     21 C           4.6155   -2.5241   -2.3974 C.ar    1  UNL1        0.0776
     22 S           5.7841   -3.6548   -2.9946 S.2     1  UNL1       -0.0917
     23 C           6.7024   -3.6230   -1.5626 C.ar    1  UNL1       -0.0216
     24 C           6.1351   -2.8087   -0.6180 C.ar    1  UNL1       -0.0285
     25 C           4.9560   -2.1588   -1.0963 C.ar    1  UNL1        0.0850
     26 N           4.2422   -1.2851   -0.3669 N.ar    1  UNL1       -0.2137
     27 H           0.3969    0.0567    0.6075 H       1  UNL1        0.0429
     28 H           0.6016    0.8568   -0.9634 H       1  UNL1        0.0429
     29 H           0.5531   -0.9148   -0.8420 H       1  UNL1        0.0429
     30 H           4.0581    1.0818    0.4547 H       1  UNL1        0.0504
     31 H           3.6979   -0.5776    2.1964 H       1  UNL1        0.0335
     32 H           2.0746   -0.0098    2.5089 H       1  UNL1        0.0335
     33 H           4.6912    1.5317    2.9970 H       1  UNL1        0.0815
     34 H           3.5754    0.9174    4.2315 H       1  UNL1        0.0815
     35 H           3.4111    3.2501    3.7935 H       1  UNL1        0.2030
     36 H           1.0740    3.5449    3.7107 H       1  UNL1        0.0777
     37 H           0.9042    1.8420    3.1641 H       1  UNL1        0.0777
     38 H           1.5924    2.2071    4.7827 H       1  UNL1        0.0777
     39 H           2.4351    4.1970    1.8462 H       1  UNL1        0.0815
     40 H           4.0234    3.4438    1.5955 H       1  UNL1        0.0815
     41 H           2.4894    2.7578   -0.2355 H       1  UNL1        0.0335
     42 H           1.2852    2.2463    0.9286 H       1  UNL1        0.0335
     43 H           3.9640   -3.5470   -5.5862 H       1  UNL1        0.0464
     44 H           4.9810   -2.1356   -5.1631 H       1  UNL1        0.0464
     45 H           3.7922   -0.6494   -6.5039 H       1  UNL1        0.0281
     46 H           3.7351   -2.1150   -7.5027 H       1  UNL1        0.0281
     47 H           1.4314   -0.8768   -6.8476 H       1  UNL1        0.0284
     48 H           1.5261   -2.6423   -6.7749 H       1  UNL1        0.0284
     49 H           1.5966   -0.6249   -4.5053 H       1  UNL1        0.0510
     50 H           0.7601   -3.5962   -4.6674 H       1  UNL1        0.0436
     51 H           0.4451   -2.5248   -3.3171 H       1  UNL1        0.0436
     52 H           7.6054   -4.2144   -1.4752 H       1  UNL1        0.0694
     53 H           6.5391   -2.6752    0.3779 H       1  UNL1        0.0644
@<TRIPOS>UNITY_ATOM_ATTR
6 1
charge 1
@<TRIPOS>BOND
     1     1    27    1
     2     1    28    1
     3     1    29    1
     4     2     1    1
     5     3     2    1
     6     3    30    1
     7     4     3    1
     8     4    31    1
     9     4    32    1
    10     5     4    1
    11     5    33    1
    12     5    34    1
    13     6     5    1
    14     7    36    1
    15     7    37    1
    16     7    38    1
    17     8     6    1
    18     8    39    1
    19     8    40    1
    20     9     8    1
    21     9     3    1
    22     9    41    1
    23     9    42    1
    24    10     2    1
    25    11    10   ar
    26    12    11   ar
    27    13    12    1
    28    14    13    1
    29    14    43    1
    30    14    44    1
    31    15    14    1
    32    15    45    1
    33    15    46    1
    34    16    15    1
    35    16    47    1
    36    16    48    1
    37    17    16    1
    38    17    13    1
    39    17    49    1
    40    18    17    1
    41    18    50    1
    42    18    51    1
    43    19    18    1
    44    20    19    3
    45    21    12   ar
    46    22    21   ar
    47    23    22   ar
    48    23    52    1
    49    24    23   ar
    50    24    53    1
    51    25    24   ar
    52    25    21   ar
    53    26    25   ar
    54    26    10   ar
    55     6     7    1
    56     6    35    1
