@<TRIPOS>MOLECULE
mol_184_akc
>179.sdf
 38 40 0 0 0
SMALL
GASTEIGER

@<TRIPOS>ATOM
      1 BR         12.0963    6.2271   -0.1860 Br      1  UNL1       -0.0503
      2 C          10.8803    4.7818   -0.1170 C.ar    1  UNL1        0.0179
      3 C          11.2518    3.5910    0.5082 C.ar    1  UNL1       -0.0471
      4 C          10.3548    2.5171    0.5619 C.ar    1  UNL1       -0.0502
      5 C           9.0811    2.6404   -0.0058 C.ar    1  UNL1        0.0183
      6 C           8.7165    3.8478   -0.6234 C.ar    1  UNL1       -0.0502
      7 C           9.6162    4.9147   -0.6852 C.ar    1  UNL1       -0.0471
      8 C           8.0694    1.5426    0.0402 C.2     1  UNL1        0.1733
      9 O           6.8823    1.8601   -0.0131 O.2     1  UNL1       -0.2912
     10 C           8.5710    0.1067    0.1123 C.3     1  UNL1        0.0633
     11 S           7.1912   -1.0797    0.0813 S.3     1  UNL1       -0.0890
     12 C           8.0464   -2.6004    0.1645 C.ar    1  UNL1        0.1606
     13 N           9.3573   -2.6822    0.1589 N.ar    1  UNL1       -0.1329
     14 N           9.7894   -3.9909    0.2436 N.ar    1  UNL1       -0.1205
     15 C           8.7976   -4.8643    0.3162 C.ar    1  UNL1        0.2159
     16 S           7.2427   -4.1064    0.2649 S.2     1  UNL1       -0.0200
     17 N           8.8499   -6.2195    0.4362 N.2     1  UNL1       -0.2281
     18 C          10.0387   -6.7271    0.4927 C.2     1  UNL1        0.0376
     19 C          10.2614   -8.1819    0.6545 C.ar    1  UNL1       -0.0067
     20 C           9.1862   -9.0755    0.7450 C.ar    1  UNL1       -0.0510
     21 C           9.4261  -10.4427    0.9187 C.ar    1  UNL1       -0.0309
     22 C          10.7463  -10.9095    1.0003 C.ar    1  UNL1        0.1262
     23 C          11.8244  -10.0178    0.9049 C.ar    1  UNL1       -0.0309
     24 C          11.5778   -8.6521    0.7311 C.ar    1  UNL1       -0.0510
     25 N          11.0033  -12.3435    1.1919 N.pl3   1  UNL1        0.0564
     26 O          10.0247  -13.0988    1.2737 O.2     1  UNL1       -0.1261
     27 O          12.1846  -12.7113    1.2621 O.2     1  UNL1       -0.1261
     28 H          12.2346    3.4941    0.9644 H       1  UNL1        0.0629
     29 H          10.6686    1.6122    1.0740 H       1  UNL1        0.0625
     30 H           7.7255    3.9620   -1.0610 H       1  UNL1        0.0625
     31 H           9.3176    5.8405   -1.1713 H       1  UNL1        0.0629
     32 H           9.2163   -0.0762   -0.7530 H       1  UNL1        0.0462
     33 H           9.1279   -0.0371    1.0418 H       1  UNL1        0.0462
     34 H          10.9548   -6.1084    0.4313 H       1  UNL1        0.0836
     35 H           8.1613   -8.7134    0.6865 H       1  UNL1        0.0625
     36 H           8.5797  -11.1233    0.9919 H       1  UNL1        0.0640
     37 H          12.8537  -10.3674    0.9664 H       1  UNL1        0.0640
     38 H          12.4202   -7.9652    0.6620 H       1  UNL1        0.0625
@<TRIPOS>BOND
     1     2     1    1
     2     3     2   ar
     3     3    28    1
     4     4     3   ar
     5     4    29    1
     6     5     4   ar
     7     6     5   ar
     8     6    30    1
     9     7     6   ar
    10     7     2   ar
    11     7    31    1
    12     8     5    1
    13     9     8    2
    14    10     8    1
    15    10    32    1
    16    10    33    1
    17    11    10    1
    18    12    11    1
    19    13    12   ar
    20    14    13   ar
    21    15    14   ar
    22    16    15   ar
    23    16    12   ar
    24    17    15    1
    25    18    17    2
    26    18    34    1
    27    19    18    1
    28    20    19   ar
    29    20    35    1
    30    21    20   ar
    31    21    36    1
    32    22    21   ar
    33    23    22   ar
    34    23    37    1
    35    24    23   ar
    36    24    19   ar
    37    24    38    1
    38    25    22    1
    39    26    25    2
    40    27    25    2
