@<TRIPOS>MOLECULE
mol_186_akc_aac01766_19
>181.sdf
 50 54 0 0 0
SMALL
GASTEIGER

@<TRIPOS>ATOM
      1 C           1.0202   -0.0573   -0.6710 C.3     1  UNL1        0.0789
      2 O           2.3460   -0.0701   -0.1639 O.3     1  UNL1       -0.4930
      3 C           2.9733   -1.2997   -0.1083 C.ar    1  UNL1        0.1461
      4 C           2.7272   -2.3178   -1.0381 C.ar    1  UNL1       -0.0178
      5 C           3.4348   -3.5108   -0.9560 C.ar    1  UNL1       -0.0575
      6 C           4.4006   -3.6719    0.0343 C.ar    1  UNL1       -0.0490
      7 C           4.6766   -2.6344    0.9633 C.ar    1  UNL1        0.0438
      8 C           5.6816   -2.6727    1.9499 C.ar    1  UNL1        0.1322
      9 N           6.5658   -3.7822    2.0246 N.pl3   1  UNL1       -0.3243
     10 C           7.8350   -3.4519    2.6790 C.3     1  UNL1        0.0357
     11 C           8.7441   -4.6607    2.6897 C.ar    1  UNL1       -0.0304
     12 C           9.7020   -4.8638    1.6832 C.ar    1  UNL1       -0.0571
     13 C          10.5653   -5.9623    1.7361 C.ar    1  UNL1       -0.0615
     14 C          10.4769   -6.8714    2.7888 C.ar    1  UNL1       -0.0617
     15 C           9.5165   -6.6925    3.7824 C.ar    1  UNL1       -0.0615
     16 C           8.6502   -5.5999    3.7294 C.ar    1  UNL1       -0.0571
     17 N           5.8098   -1.7025    2.8632 N.ar    1  UNL1       -0.1963
     18 C           5.0303   -0.6059    2.7470 C.ar    1  UNL1        0.2401
     19 N           5.2367    0.4594    3.6724 N.ar    1  UNL1       -0.2488
     20 C           4.9109    1.8035    3.4905 C.ar    1  UNL1        0.2009
     21 N           4.2366    2.2918    2.4325 N.pl3   1  UNL1       -0.3285
     22 N           5.4228    2.5590    4.4323 N.ar    1  UNL1       -0.2143
     23 C           6.0398    1.7001    5.2963 C.ar    1  UNL1        0.0914
     24 C           6.7560    1.9944    6.4660 C.ar    1  UNL1       -0.0342
     25 C           7.2731    0.9409    7.2263 C.ar    1  UNL1       -0.0596
     26 C           7.0511   -0.3829    6.8495 C.ar    1  UNL1       -0.0597
     27 C           6.3485   -0.6947    5.6804 C.ar    1  UNL1       -0.0356
     28 C           5.8883    0.3763    4.8963 C.ar    1  UNL1        0.0779
     29 N           4.1268   -0.4439    1.7766 N.ar    1  UNL1       -0.2079
     30 C           3.9328   -1.4442    0.9024 C.ar    1  UNL1        0.1196
     31 H           1.0129   -0.1835   -1.7573 H       1  UNL1        0.0660
     32 H           0.3974   -0.8101   -0.1784 H       1  UNL1        0.0660
     33 H           0.5945    0.9278   -0.4507 H       1  UNL1        0.0660
     34 H           2.0091   -2.1945   -1.8421 H       1  UNL1        0.0655
     35 H           3.2461   -4.3099   -1.6703 H       1  UNL1        0.0619
     36 H           4.9380   -4.6163    0.0836 H       1  UNL1        0.0625
     37 H           6.7649   -4.1277    1.0921 H       1  UNL1        0.1478
     38 H           8.3382   -2.6361    2.1414 H       1  UNL1        0.0511
     39 H           7.6874   -3.1206    3.7144 H       1  UNL1        0.0511
     40 H           9.7966   -4.1584    0.8602 H       1  UNL1        0.0621
     41 H          11.3147   -6.1047    0.9619 H       1  UNL1        0.0618
     42 H          11.1563   -7.7193    2.8365 H       1  UNL1        0.0618
     43 H           9.4456   -7.4002    4.6039 H       1  UNL1        0.0618
     44 H           7.9052   -5.4692    4.5095 H       1  UNL1        0.0621
     45 H           3.5628    1.7004    1.9464 H       1  UNL1        0.1451
     46 H           4.0100    3.2799    2.4508 H       1  UNL1        0.1451
     47 H           6.9016    3.0273    6.7620 H       1  UNL1        0.0639
     48 H           7.8445    1.1607    8.1243 H       1  UNL1        0.0618
     49 H           7.4367   -1.1891    7.4700 H       1  UNL1        0.0618
     50 H           6.1742   -1.7291    5.3985 H       1  UNL1        0.0639
@<TRIPOS>BOND
     1     1    31    1
     2     1    32    1
     3     1    33    1
     4     2     1    1
     5     3     2    1
     6     4     3   ar
     7     4    34    1
     8     5     4   ar
     9     5    35    1
    10     6     5   ar
    11     6    36    1
    12     7     6   ar
    13     8     7   ar
    14     9     8    1
    15     9    37    1
    16    10     9    1
    17    10    38    1
    18    10    39    1
    19    11    10    1
    20    12    11   ar
    21    12    40    1
    22    13    12   ar
    23    13    41    1
    24    14    13   ar
    25    14    42    1
    26    15    14   ar
    27    15    43    1
    28    16    15   ar
    29    16    11   ar
    30    16    44    1
    31    17     8   ar
    32    18    17   ar
    33    19    18    1
    34    20    19   ar
    35    21    20    1
    36    21    45    1
    37    21    46    1
    38    22    20   ar
    39    23    22   ar
    40    24    23   ar
    41    24    47    1
    42    25    24   ar
    43    25    48    1
    44    26    25   ar
    45    26    49    1
    46    27    26   ar
    47    27    50    1
    48    28    27   ar
    49    28    23   ar
    50    28    19   ar
    51    29    18   ar
    52    30    29   ar
    53    30     3   ar
    54    30     7   ar
