@<TRIPOS>MOLECULE
mol_187_akc_jejmech201608048
>182.sdf
 55 60 0 0 0
SMALL
GASTEIGER

@<TRIPOS>ATOM
      1 O           2.6722    1.2213   -0.0597 O.2     1  UNL1       -0.2667
      2 C           2.3952    0.0354   -0.1882 C.2     1  UNL1        0.2840
      3 N           1.3663   -0.4831   -0.9574 N.am    1  UNL1       -0.2016
      4 N           0.5373    0.3881   -1.6152 N.2     1  UNL1       -0.1869
      5 C          -0.4313   -0.1057   -2.3169 C.2     1  UNL1        0.0594
      6 C          -1.3565    0.7723   -2.9994 C.ar    1  UNL1        0.0323
      7 C          -1.3599    2.1505   -3.0610 C.ar    1  UNL1       -0.0454
      8 C          -2.4625    2.6572   -3.8126 C.ar    1  UNL1       -0.0458
      9 C          -3.2818    1.6558   -4.3025 C.ar    1  UNL1        0.0265
     10 S          -2.6732    0.1076   -3.8608 S.2     1  UNL1       -0.0868
     11 C          -4.4911    1.8010   -5.0838 C.ar    1  UNL1        0.0259
     12 C          -5.6000    0.9718   -5.0932 C.ar    1  UNL1       -0.0464
     13 C          -6.6134    1.4075   -5.9977 C.ar    1  UNL1       -0.0541
     14 C          -6.2530    2.5609   -6.6546 C.ar    1  UNL1       -0.0237
     15 S          -4.7115    3.1170   -6.1695 S.2     1  UNL1       -0.0961
     16 C           3.2294   -1.0080    0.5653 C.ar    1  UNL1        0.1586
     17 N           2.9196   -2.2776    0.4475 N.ar    1  UNL1       -0.1578
     18 N           3.6432   -3.2559    1.1868 N.ar    1  UNL1       -0.1943
     19 C           3.0773   -4.5801    1.1444 C.ar    1  UNL1        0.0693
     20 C           3.3296   -5.5307    2.1514 C.ar    1  UNL1       -0.0361
     21 C           2.7626   -6.8072    2.1199 C.ar    1  UNL1       -0.0598
     22 C           1.9224   -7.1635    1.0756 C.ar    1  UNL1       -0.0616
     23 C           1.6563   -6.2440    0.0637 C.ar    1  UNL1       -0.0598
     24 C           2.2239   -4.9631    0.0998 C.ar    1  UNL1       -0.0361
     25 C           4.7882   -2.9628    1.9801 C.ar    1  UNL1        0.2981
     26 O           5.4429   -3.8032    2.5853 O.2     1  UNL1       -0.2635
     27 C           5.1077   -1.5697    2.0274 C.ar    1  UNL1        0.1429
     28 C           4.3308   -0.6192    1.4130 C.ar    1  UNL1        0.0577
     29 C           4.8395    0.6027    1.8680 C.ar    1  UNL1        0.0600
     30 N           5.8504    0.4380    2.7258 N.ar    1  UNL1       -0.1734
     31 N           6.0928   -0.9060    2.7271 N.ar    1  UNL1       -0.2267
     32 C           7.2439   -1.4136    3.3910 C.ar    1  UNL1        0.0662
     33 C           7.7449   -0.7419    4.5144 C.ar    1  UNL1       -0.0362
     34 C           8.8423   -1.2621    5.2075 C.ar    1  UNL1       -0.0598
     35 C           9.4621   -2.4317    4.7674 C.ar    1  UNL1       -0.0616
     36 C           8.9964   -3.0764    3.6253 C.ar    1  UNL1       -0.0598
     37 C           7.8987   -2.5633    2.9319 C.ar    1  UNL1       -0.0362
     38 H           1.2011   -1.4848   -0.9802 H       1  UNL1        0.1776
     39 H          -0.5793   -1.1968   -2.4028 H       1  UNL1        0.0857
     40 H          -0.6102    2.7704   -2.5805 H       1  UNL1        0.0629
     41 H          -2.6492    3.7146   -3.9643 H       1  UNL1        0.0629
     42 H          -5.6918    0.0880   -4.4736 H       1  UNL1        0.0629
     43 H          -7.5567    0.8990   -6.1569 H       1  UNL1        0.0623
     44 H          -6.8226    3.1077   -7.3941 H       1  UNL1        0.0693
     45 H           3.9433   -5.3062    3.0188 H       1  UNL1        0.0639
     46 H           2.9785   -7.5096    2.9218 H       1  UNL1        0.0618
     47 H           1.4767   -8.1548    1.0546 H       1  UNL1        0.0618
     48 H           1.0069   -6.5282   -0.7599 H       1  UNL1        0.0618
     49 H           2.0136   -4.2829   -0.7197 H       1  UNL1        0.0639
     50 H           4.5036    1.6098    1.6480 H       1  UNL1        0.0855
     51 H           7.2650    0.1619    4.8848 H       1  UNL1        0.0639
     52 H           9.2090   -0.7585    6.0983 H       1  UNL1        0.0618
     53 H          10.3109   -2.8384    5.3105 H       1  UNL1        0.0618
     54 H           9.4827   -3.9818    3.2704 H       1  UNL1        0.0618
     55 H           7.5914   -3.0740    2.0238 H       1  UNL1        0.0639
@<TRIPOS>BOND
     1     2     1    2
     2     3     2   am
     3     3    38    1
     4     4     3    1
     5     5     4    2
     6     5    39    1
     7     6     5    1
     8     7     6   ar
     9     7    40    1
    10     8     7   ar
    11     8    41    1
    12     9     8   ar
    13    10     9   ar
    14    10     6   ar
    15    11     9    1
    16    12    11   ar
    17    12    42    1
    18    13    12   ar
    19    13    43    1
    20    14    13   ar
    21    14    44    1
    22    15    14   ar
    23    15    11   ar
    24    16     2    1
    25    17    16   ar
    26    18    17   ar
    27    19    18    1
    28    20    19   ar
    29    20    45    1
    30    21    20   ar
    31    21    46    1
    32    22    21   ar
    33    22    47    1
    34    23    22   ar
    35    23    48    1
    36    24    23   ar
    37    24    19   ar
    38    24    49    1
    39    25    18   ar
    40    26    25    2
    41    27    25   ar
    42    28    27   ar
    43    28    16   ar
    44    29    28   ar
    45    29    50    1
    46    30    29   ar
    47    31    30   ar
    48    31    27   ar
    49    32    31    1
    50    33    32   ar
    51    33    51    1
    52    34    33   ar
    53    34    52    1
    54    35    34   ar
    55    35    53    1
    56    36    35   ar
    57    36    54    1
    58    37    36   ar
    59    37    32   ar
    60    37    55    1
