@<TRIPOS>MOLECULE
mol_188_akc_jhet3990
>183.sdf
 40 43 0 0 0
SMALL
GASTEIGER

@<TRIPOS>ATOM
      1 N           1.0419   -0.4028   -0.4469 N.1     1  UNL1       -0.1908
      2 C           2.1852   -0.2868   -0.3384 C.1     1  UNL1        0.1021
      3 C           3.6050   -0.1319   -0.1645 C.ar    1  UNL1        0.0877
      4 C           4.2463    1.0961   -0.2598 C.ar    1  UNL1        0.1190
      5 S           5.9408    0.8890   -0.0380 S.2     1  UNL1       -0.0727
      6 C           5.8173   -0.8041    0.1347 C.ar    1  UNL1       -0.0037
      7 C           4.5007   -1.2375    0.0790 C.ar    1  UNL1       -0.0177
      8 C           4.0621   -2.6776    0.1959 C.3     1  UNL1       -0.0256
      9 C           4.9538   -3.6261   -0.5997 C.3     1  UNL1       -0.0490
     10 C           6.2440   -4.0204    0.1205 C.3     1  UNL1       -0.0524
     11 C           6.9105   -2.9384    0.9728 C.3     1  UNL1       -0.0486
     12 C           7.0903   -1.6000    0.2646 C.3     1  UNL1       -0.0211
     13 N           3.8392    2.3599   -0.5548 N.2     1  UNL1       -0.2451
     14 C           2.7055    2.7633   -0.0842 C.2     1  UNL1        0.0522
     15 C           2.2626    4.0953   -0.3810 C.ar    1  UNL1        0.0586
     16 C           0.9975    4.6343   -0.2850 C.ar    1  UNL1       -0.0278
     17 C           1.1189    6.0424   -0.4283 C.ar    1  UNL1        0.0003
     18 C           0.2142    7.1099   -0.3094 C.ar    1  UNL1       -0.0526
     19 C           0.7291    8.4010   -0.1606 C.ar    1  UNL1       -0.0611
     20 C           2.0971    8.6434   -0.2832 C.ar    1  UNL1       -0.0598
     21 C           2.9875    7.6162   -0.6097 C.ar    1  UNL1       -0.0378
     22 C           2.4703    6.3181   -0.6272 C.ar    1  UNL1        0.0469
     23 N           3.1018    5.1061   -0.7873 N.ar    1  UNL1       -0.3534
     24 H           3.0419   -2.7812   -0.1910 H       1  UNL1        0.0314
     25 H           4.0189   -2.9655    1.2532 H       1  UNL1        0.0314
     26 H           5.1972   -3.1830   -1.5736 H       1  UNL1        0.0268
     27 H           4.3948   -4.5449   -0.8164 H       1  UNL1        0.0268
     28 H           6.0352   -4.8783    0.7726 H       1  UNL1        0.0265
     29 H           6.9584   -4.3820   -0.6316 H       1  UNL1        0.0265
     30 H           6.3532   -2.8014    1.9067 H       1  UNL1        0.0269
     31 H           7.9012   -3.3115    1.2610 H       1  UNL1        0.0269
     32 H           7.5186   -1.7546   -0.7332 H       1  UNL1        0.0318
     33 H           7.8203   -1.0178    0.8392 H       1  UNL1        0.0318
     34 H           2.0496    2.1589    0.5644 H       1  UNL1        0.0851
     35 H           0.0966    4.0980   -0.0149 H       1  UNL1        0.0645
     36 H          -0.8537    6.9283   -0.2367 H       1  UNL1        0.0624
     37 H           0.0547    9.2167    0.0859 H       1  UNL1        0.0618
     38 H           2.4796    9.6477   -0.1179 H       1  UNL1        0.0618
     39 H           4.0442    7.8129   -0.7543 H       1  UNL1        0.0638
     40 H           4.0869    4.9784   -0.9729 H       1  UNL1        0.1659
@<TRIPOS>BOND
     1     2     1    3
     2     3     2    1
     3     4     3   ar
     4     5     4   ar
     5     6     5   ar
     6     7     6   ar
     7     7     3   ar
     8     8     7    1
     9     8    24    1
    10     8    25    1
    11     9     8    1
    12     9    26    1
    13     9    27    1
    14    10     9    1
    15    10    28    1
    16    10    29    1
    17    11    10    1
    18    11    30    1
    19    11    31    1
    20    12    11    1
    21    12     6    1
    22    12    32    1
    23    12    33    1
    24    13     4    1
    25    14    13    2
    26    14    34    1
    27    15    14    1
    28    16    15   ar
    29    16    35    1
    30    17    16   ar
    31    18    17   ar
    32    18    36    1
    33    19    18   ar
    34    19    37    1
    35    20    19   ar
    36    20    38    1
    37    21    20   ar
    38    21    39    1
    39    22    21   ar
    40    22    17   ar
    41    23    22   ar
    42    23    15   ar
    43    23    40    1
