@<TRIPOS>MOLECULE
mol_18_akc_aac02529_15
>18.sdf
 24 25 0 0 0
SMALL
GASTEIGER

@<TRIPOS>ATOM
      1 BR          5.8021    0.4322    2.3319 Br      1  UNL1        0.0000
      2 C           3.9496    0.0065    2.5472 C.ar    1  UNL1        0.0000
      3 C           2.8533    0.8273    2.2791 C.ar    1  UNL1        0.0000
      4 C           2.9607    2.2393    1.7807 C.3     1  UNL1        0.0000
      5 SE          2.2095    2.4258   -0.0122 Se      1  UNL1        0.0000
      6 SE          2.5137    4.8042   -0.0150 Se      1  UNL1        0.0000
      7 C           4.4456    4.6490   -0.2554 C.3     1  UNL1        0.0000
      8 C           5.0872    5.9938   -0.4384 C.ar    1  UNL1        0.0000
      9 C           5.9967    6.5539    0.4604 C.ar    1  UNL1        0.0000
     10 BR          6.6180    5.8051    2.1076 Br      1  UNL1        0.0000
     11 S           6.4908    8.0460   -0.1299 S.2     1  UNL1        0.0000
     12 C           5.5619    8.0039   -1.5300 C.ar    1  UNL1        0.0000
     13 C           4.8430    6.8157   -1.5493 C.ar    1  UNL1        0.0000
     14 C           1.6239    0.1989    2.5418 C.ar    1  UNL1        0.0000
     15 C           1.7572   -1.0978    3.0212 C.ar    1  UNL1        0.0000
     16 S           3.3926   -1.4738    3.1082 S.2     1  UNL1        0.0000
     17 H           2.4347    2.9093    2.4903 H       1  UNL1        0.0000
     18 H           4.0269    2.5129    1.7300 H       1  UNL1        0.0000
     19 H           4.8620    4.1816    0.6509 H       1  UNL1        0.0000
     20 H           4.6745    4.0211   -1.1404 H       1  UNL1        0.0000
     21 H           5.5319    8.7724   -2.2898 H       1  UNL1        0.0000
     22 H           4.1730    6.5466   -2.3567 H       1  UNL1        0.0000
     23 H           0.6657    0.6789    2.4023 H       1  UNL1        0.0000
     24 H           0.9441   -1.7554    3.2965 H       1  UNL1        0.0000
@<TRIPOS>BOND
     1     2     1    1
     2     3     2   ar
     3     4     3    1
     4     4    17    1
     5     4    18    1
     6     5     4    1
     7     6     5    1
     8     7     6    1
     9     7    19    1
    10     7    20    1
    11     8     7    1
    12     9     8   ar
    13    10     9    1
    14    11     9   ar
    15    12    11   ar
    16    12    21    1
    17    13    12   ar
    18    13     8   ar
    19    13    22    1
    20    14     3   ar
    21    14    23    1
    22    15    14   ar
    23    15    24    1
    24    16    15   ar
    25    16     2   ar
