@<TRIPOS>MOLECULE
mol_190_akc_0103_505320200003
>185.sdf
 39 43 0 0 0
SMALL
GASTEIGER

@<TRIPOS>ATOM
      1 CL          2.4840    2.3733   -1.2996 Cl      1  UNL1       -0.0829
      2 C           1.5598    1.0518   -0.6617 C.ar    1  UNL1        0.0502
      3 C           0.2736    1.2006   -0.0987 C.ar    1  UNL1        0.0207
      4 C          -0.3338    0.0228    0.3987 C.ar    1  UNL1       -0.0511
      5 C           0.3161   -1.2159    0.3939 C.ar    1  UNL1       -0.0610
      6 C           1.5813   -1.3292   -0.1623 C.ar    1  UNL1       -0.0603
      7 C           2.1944   -0.2023   -0.7019 C.ar    1  UNL1       -0.0427
      8 C          -0.4539    2.4848   -0.0335 C.ar    1  UNL1        0.0970
      9 C          -1.2955    2.8739    1.0250 C.ar    1  UNL1        0.0739
     10 N          -1.5724    2.2695    2.2332 N.ar    1  UNL1       -0.3525
     11 C          -2.5555    2.9391    2.9160 C.ar    1  UNL1        0.0475
     12 C          -2.8492    4.0850    2.1855 C.ar    1  UNL1        0.0075
     13 C          -3.8218    4.9709    2.6901 C.ar    1  UNL1       -0.0520
     14 C          -4.4735    4.6658    3.8940 C.ar    1  UNL1       -0.0611
     15 C          -4.1635    3.5034    4.5943 C.ar    1  UNL1       -0.0598
     16 C          -3.1921    2.6165    4.1228 C.ar    1  UNL1       -0.0378
     17 C          -2.0388    4.0580    1.0053 C.ar    1  UNL1        0.0117
     18 C          -1.8916    4.9212   -0.0905 C.ar    1  UNL1       -0.0213
     19 C          -1.0298    4.5097   -1.0965 C.ar    1  UNL1        0.1262
     20 N          -0.3612    3.3296   -1.0919 N.ar    1  UNL1       -0.2398
     21 C          -0.8187    5.3983   -2.2656 C.2     1  UNL1        0.2366
     22 N          -1.4003    6.5416   -2.4747 N.2     1  UNL1       -0.2456
     23 C          -0.8870    6.9458   -3.7898 C.3     1  UNL1        0.0775
     24 C           0.2685    6.0145   -4.0731 C.3     1  UNL1        0.1108
     25 O           0.0813    4.9380   -3.1711 O.2     1  UNL1       -0.4733
     26 H          -1.3528    0.0459    0.7809 H       1  UNL1        0.0625
     27 H          -0.1771   -2.0909    0.8094 H       1  UNL1        0.0618
     28 H           2.0867   -2.2911   -0.1866 H       1  UNL1        0.0618
     29 H           3.1797   -0.3004   -1.1538 H       1  UNL1        0.0632
     30 H          -1.1385    1.4208    2.5628 H       1  UNL1        0.1660
     31 H          -4.0821    5.8761    2.1480 H       1  UNL1        0.0624
     32 H          -5.2319    5.3430    4.2803 H       1  UNL1        0.0618
     33 H          -4.6831    3.2810    5.5235 H       1  UNL1        0.0618
     34 H          -2.9511    1.7121    4.6705 H       1  UNL1        0.0638
     35 H          -2.4273    5.8619   -0.1515 H       1  UNL1        0.0647
     36 H          -0.5679    7.9928   -3.7908 H       1  UNL1        0.0543
     37 H          -1.6782    6.8317   -4.5393 H       1  UNL1        0.0543
     38 H           0.2607    5.6492   -5.1044 H       1  UNL1        0.0716
     39 H           1.2367    6.4861   -3.8726 H       1  UNL1        0.0716
@<TRIPOS>BOND
     1     2     1    1
     2     3     2   ar
     3     4     3   ar
     4     4    26    1
     5     5     4   ar
     6     5    27    1
     7     6     5   ar
     8     6    28    1
     9     7     6   ar
    10     7     2   ar
    11     7    29    1
    12     8     3    1
    13     9     8   ar
    14    10     9   ar
    15    10    30    1
    16    11    10   ar
    17    12    11   ar
    18    13    12   ar
    19    13    31    1
    20    14    13   ar
    21    14    32    1
    22    15    14   ar
    23    15    33    1
    24    16    15   ar
    25    16    11   ar
    26    16    34    1
    27    17    12   ar
    28    17     9   ar
    29    18    17   ar
    30    18    35    1
    31    19    18   ar
    32    20    19   ar
    33    20     8   ar
    34    21    19    1
    35    22    21    2
    36    23    22    1
    37    23    36    1
    38    23    37    1
    39    24    23    1
    40    24    38    1
    41    24    39    1
    42    25    24    1
    43    25    21    1
