@<TRIPOS>MOLECULE
mol_191_akc_cbdv202000142
>186.sdf
 36 38 0 0 0
SMALL
GASTEIGER

@<TRIPOS>ATOM
      1 C          -2.8296    0.6074    1.3144 C.3     1  UNL1       -0.0527
      2 C          -2.5345   -0.8380    0.9275 C.3     1  UNL1       -0.0480
      3 C          -1.0492   -1.1623    1.0743 C.3     1  UNL1        0.0069
      4 C          -0.1608   -0.1952    0.2760 C.3     1  UNL1        0.2349
      5 C          -0.4608    1.2517    0.6979 C.3     1  UNL1        0.0069
      6 C          -1.9447    1.5942    0.5570 C.3     1  UNL1       -0.0480
      7 O           1.1972   -0.5696    0.5745 O.3     1  UNL1       -0.1937
      8 O           2.0952    0.2265   -0.2729 O.3     1  UNL1       -0.1937
      9 C           1.7901   -0.0788   -1.6446 C.3     1  UNL1        0.2349
     10 C           2.7390    0.7551   -2.5122 C.3     1  UNL1        0.0069
     11 C           2.5902    0.4972   -4.0154 C.3     1  UNL1       -0.0480
     12 C           1.7398   -0.7214   -4.3633 C.3     1  UNL1       -0.0527
     13 C           2.0217   -1.9080   -3.4521 C.3     1  UNL1       -0.0480
     14 C           2.0120   -1.5701   -1.9578 C.3     1  UNL1        0.0069
     15 O           0.4541    0.3672   -1.9259 O.3     1  UNL1       -0.1937
     16 O          -0.4651   -0.4309   -1.1120 O.3     1  UNL1       -0.1937
     17 H          -3.8842    0.8325    1.1193 H       1  UNL1        0.0265
     18 H          -2.6711    0.7324    2.3929 H       1  UNL1        0.0265
     19 H          -3.1224   -1.5164    1.5558 H       1  UNL1        0.0267
     20 H          -2.8523   -1.0125   -0.1078 H       1  UNL1        0.0267
     21 H          -0.7666   -1.1395    2.1348 H       1  UNL1        0.0319
     22 H          -0.8751   -2.1914    0.7341 H       1  UNL1        0.0319
     23 H          -0.1412    1.4047    1.7361 H       1  UNL1        0.0319
     24 H           0.1193    1.9610    0.0965 H       1  UNL1        0.0319
     25 H          -2.2231    1.5942   -0.5040 H       1  UNL1        0.0267
     26 H          -2.1243    2.6084    0.9315 H       1  UNL1        0.0267
     27 H           2.5863    1.8248   -2.3176 H       1  UNL1        0.0319
     28 H           3.7767    0.5526   -2.2135 H       1  UNL1        0.0319
     29 H           3.5905    0.3763   -4.4498 H       1  UNL1        0.0267
     30 H           2.1570    1.3810   -4.4994 H       1  UNL1        0.0267
     31 H           1.9127   -1.0055   -5.4078 H       1  UNL1        0.0265
     32 H           0.6770   -0.4581   -4.2985 H       1  UNL1        0.0265
     33 H           3.0020   -2.3287   -3.7092 H       1  UNL1        0.0267
     34 H           1.2916   -2.7006   -3.6532 H       1  UNL1        0.0267
     35 H           2.9628   -1.8940   -1.5149 H       1  UNL1        0.0319
     36 H           1.2501   -2.1900   -1.4710 H       1  UNL1        0.0319
@<TRIPOS>BOND
     1     1    17    1
     2     1    18    1
     3     2     1    1
     4     2    19    1
     5     2    20    1
     6     3     2    1
     7     3    21    1
     8     3    22    1
     9     4     3    1
    10     5     4    1
    11     5    23    1
    12     5    24    1
    13     6     5    1
    14     6     1    1
    15     6    25    1
    16     6    26    1
    17     7     4    1
    18     8     7    1
    19     9     8    1
    20    10     9    1
    21    10    27    1
    22    10    28    1
    23    11    10    1
    24    11    29    1
    25    11    30    1
    26    12    11    1
    27    12    31    1
    28    12    32    1
    29    13    12    1
    30    13    33    1
    31    13    34    1
    32    14    13    1
    33    14     9    1
    34    14    35    1
    35    14    36    1
    36    15     9    1
    37    16    15    1
    38    16     4    1
