@<TRIPOS>MOLECULE
mol_192_akc_s0031182021002079
>187.sdf
 33 35 0 0 0
SMALL
GASTEIGER

@<TRIPOS>ATOM
      1 C          -2.4805    1.0258   -0.8210 C.3     1  UNL1        0.0135
      2 N          -1.1432    0.6253   -1.1903 N.ar    1  UNL1       -0.3275
      3 C          -0.8668   -0.4514   -1.9973 C.ar    1  UNL1        0.0554
      4 C           0.4976   -0.4208   -2.1793 C.ar    1  UNL1        0.2333
      5 N           1.0550    0.6522   -1.5173 N.ar    1  UNL1       -0.1999
      6 C           0.0466    1.2552   -0.8952 C.ar    1  UNL1        0.1987
      7 C           0.2595    2.4632   -0.1001 C.2     1  UNL1        0.2839
      8 O          -0.5902    2.9526    0.6349 O.2     1  UNL1       -0.2665
      9 N           1.5046    3.0015   -0.3679 N.am    1  UNL1       -0.2784
     10 C           1.9729    4.2873   -0.0234 C.ar    1  UNL1        0.0444
     11 C           2.9244    4.9264   -0.8667 C.ar    1  UNL1        0.0216
     12 C           3.4540    4.3704   -2.0629 C.ar    1  UNL1       -0.0508
     13 C           4.3241    5.0911   -2.8785 C.ar    1  UNL1       -0.0610
     14 C           4.6888    6.3775   -2.5165 C.ar    1  UNL1       -0.0597
     15 C           4.1889    6.9297   -1.3358 C.ar    1  UNL1       -0.0357
     16 C           3.3168    6.2351   -0.5062 C.ar    1  UNL1        0.0727
     17 N           2.8660    6.8576    0.5935 N.ar    1  UNL1       -0.2549
     18 C           1.9811    6.2086    1.3758 C.ar    1  UNL1        0.0300
     19 C           1.5013    4.9437    1.1092 C.ar    1  UNL1       -0.0217
     20 N           1.3124   -1.3240   -2.9600 N.pl3   1  UNL1        0.0767
     21 O           0.7235   -2.2612   -3.5218 O.2     1  UNL1       -0.1246
     22 O           2.5273   -1.0966   -3.0164 O.2     1  UNL1       -0.1246
     23 H          -3.0925    1.0455   -1.7281 H       1  UNL1        0.0456
     24 H          -2.8745    0.2899   -0.1167 H       1  UNL1        0.0456
     25 H          -2.4887    2.0191   -0.3761 H       1  UNL1        0.0456
     26 H          -1.6340   -1.1153   -2.3734 H       1  UNL1        0.0849
     27 H           2.0227    2.4726   -1.0624 H       1  UNL1        0.1552
     28 H           3.1824    3.3726   -2.3950 H       1  UNL1        0.0625
     29 H           4.7035    4.6494   -3.7969 H       1  UNL1        0.0618
     30 H           5.3549    6.9578   -3.1491 H       1  UNL1        0.0618
     31 H           4.4741    7.9426   -1.0612 H       1  UNL1        0.0639
     32 H           1.6544    6.7554    2.2562 H       1  UNL1        0.0830
     33 H           0.7990    4.4893    1.7979 H       1  UNL1        0.0651
@<TRIPOS>BOND
     1     1    23    1
     2     1    24    1
     3     1    25    1
     4     2     1    1
     5     3     2   ar
     6     3    26    1
     7     4     3   ar
     8     5     4   ar
     9     6     5   ar
    10     6     2   ar
    11     7     6    1
    12     8     7    2
    13     9     7   am
    14     9    27    1
    15    10     9    1
    16    11    10   ar
    17    12    11   ar
    18    12    28    1
    19    13    12   ar
    20    13    29    1
    21    14    13   ar
    22    14    30    1
    23    15    14   ar
    24    15    31    1
    25    16    15   ar
    26    16    11   ar
    27    17    16   ar
    28    18    17   ar
    29    18    32    1
    30    19    18   ar
    31    19    10   ar
    32    19    33    1
    33    20     4    1
    34    21    20    2
    35    22    20    2
