@<TRIPOS>MOLECULE
mol_193_akc_s0031182021002079
>188.sdf
 40 42 0 0 0
SMALL
GASTEIGER

@<TRIPOS>ATOM
      1 C           2.8601    0.9347    1.1771 C.3     1  UNL1       -0.0424
      2 C           2.4499   -0.0268    0.0507 C.3     1  UNL1        0.0465
      3 N           2.9727   -1.3659    0.3082 N.am    1  UNL1       -0.3023
      4 C           2.1833   -2.4323    0.6909 C.2     1  UNL1        0.2801
      5 O           0.9692   -2.3422    0.8153 O.2     1  UNL1       -0.2668
      6 C           2.9434   -3.6577    0.9416 C.ar    1  UNL1        0.1984
      7 N           4.2719   -3.6959    0.8973 N.ar    1  UNL1       -0.1999
      8 C           4.6214   -4.9946    1.2145 C.ar    1  UNL1        0.2333
      9 C           3.5016   -5.7594    1.4515 C.ar    1  UNL1        0.0554
     10 N           2.4439   -4.9060    1.2642 N.ar    1  UNL1       -0.3275
     11 C           1.0676   -5.3218    1.3939 C.3     1  UNL1        0.0135
     12 N           6.0018   -5.4229    1.2756 N.pl3   1  UNL1        0.0767
     13 O           6.2043   -6.6083    1.5779 O.2     1  UNL1       -0.1246
     14 O           6.8743   -4.5782    1.0251 O.2     1  UNL1       -0.1246
     15 C           2.8938    0.4642   -1.3274 C.ar    1  UNL1       -0.0198
     16 C           1.9784    0.7770   -2.3847 C.ar    1  UNL1       -0.0130
     17 C           0.5648    0.7716   -2.2693 C.ar    1  UNL1       -0.0537
     18 C          -0.2734    1.0561   -3.3546 C.ar    1  UNL1       -0.0612
     19 C           0.2708    1.3491   -4.5955 C.ar    1  UNL1       -0.0612
     20 C           1.6535    1.3892   -4.7429 C.ar    1  UNL1       -0.0540
     21 C           2.5078    1.1255   -3.6586 C.ar    1  UNL1       -0.0176
     22 C           3.8921    1.2118   -3.8507 C.ar    1  UNL1       -0.0540
     23 C           4.7743    0.9573   -2.8091 C.ar    1  UNL1       -0.0609
     24 C           4.2816    0.5786   -1.5665 C.ar    1  UNL1       -0.0562
     25 H           1.9931    1.5250    1.4960 H       1  UNL1        0.0251
     26 H           3.2297    0.3991    2.0587 H       1  UNL1        0.0251
     27 H           3.6293    1.6530    0.8749 H       1  UNL1        0.0251
     28 H           1.3629   -0.1027    0.0954 H       1  UNL1        0.0546
     29 H           3.9707   -1.5419    0.2578 H       1  UNL1        0.1497
     30 H           3.3790   -6.7991    1.7226 H       1  UNL1        0.0849
     31 H           0.9433   -6.2636    0.8507 H       1  UNL1        0.0456
     32 H           0.8574   -5.4745    2.4558 H       1  UNL1        0.0456
     33 H           0.3861   -4.5861    0.9722 H       1  UNL1        0.0456
     34 H           0.0766    0.5546   -1.3238 H       1  UNL1        0.0624
     35 H          -1.3527    1.0434   -3.2249 H       1  UNL1        0.0618
     36 H          -0.3748    1.5530   -5.4455 H       1  UNL1        0.0618
     37 H           2.0645    1.6301   -5.7216 H       1  UNL1        0.0624
     38 H           4.2983    1.4882   -4.8216 H       1  UNL1        0.0624
     39 H           5.8457    1.0421   -2.9700 H       1  UNL1        0.0618
     40 H           4.9957    0.3668   -0.7729 H       1  UNL1        0.0621
@<TRIPOS>BOND
     1     1    25    1
     2     1    26    1
     3     1    27    1
     4     3     2    1
     5     3    29    1
     6     4     3   am
     7     5     4    2
     8     6     4    1
     9     7     6   ar
    10     8     7   ar
    11     9     8   ar
    12     9    30    1
    13    10     9   ar
    14    10     6   ar
    15    11    10    1
    16    11    31    1
    17    11    32    1
    18    11    33    1
    19    12     8    1
    20    13    12    2
    21    14    12    2
    22    15     2    1
    23    16    15   ar
    24    17    16   ar
    25    17    34    1
    26    18    17   ar
    27    18    35    1
    28    19    18   ar
    29    19    36    1
    30    20    19   ar
    31    20    37    1
    32    21    20   ar
    33    21    16   ar
    34    22    21   ar
    35    22    38    1
    36    23    22   ar
    37    23    39    1
    38    24    23   ar
    39    24    15   ar
    40    24    40    1
    41     2    28    1
    42     2     1    1
