@<TRIPOS>MOLECULE
mol_194_akc
>189.sdf
 64 68 0 0 0
SMALL
GASTEIGER

@<TRIPOS>ATOM
      1 O           3.1856    0.2792   -2.8935 O.2     1  UNL1       -0.2754
      2 C           3.4808    0.2250   -1.7053 C.2     1  UNL1        0.2178
      3 C           2.9415    1.1878   -0.6519 C.3     1  UNL1        0.0491
      4 C           1.9982    2.2565   -1.1609 C.ar    1  UNL1       -0.0384
      5 C           0.7390    1.9114   -1.6675 C.ar    1  UNL1       -0.0547
      6 C          -0.1592    2.8974   -2.0922 C.ar    1  UNL1       -0.0197
      7 C           0.1829    4.2476   -2.0076 C.ar    1  UNL1        0.1210
      8 O          -0.6227    5.2909   -2.3888 O.3     1  UNL1       -0.4879
      9 C          -2.0209    5.0473   -2.2481 C.3     1  UNL1        0.1093
     10 C          -2.7658    6.2909   -2.6263 C.2     1  UNL1       -0.0292
     11 C          -3.5825    6.9535   -1.7904 C.2     1  UNL1        0.0566
     12 S          -4.5767    8.2549   -2.3674 S.O2    1  UNL1        0.0182
     13 O          -4.8615    8.0736   -3.7778 O.2     1  UNL1       -0.1649
     14 O          -5.6667    8.4335   -1.4243 O.2     1  UNL1       -0.1649
     15 C          -3.5249    9.6813   -2.2169 C.ar    1  UNL1        0.0929
     16 C          -2.7686   10.0998   -3.3162 C.ar    1  UNL1       -0.0365
     17 C          -2.0190   11.2728   -3.2263 C.ar    1  UNL1       -0.0599
     18 C          -2.0342   12.0239   -2.0497 C.ar    1  UNL1       -0.0616
     19 C          -2.7950   11.6050   -0.9568 C.ar    1  UNL1       -0.0599
     20 C          -3.5475   10.4333   -1.0381 C.ar    1  UNL1       -0.0365
     21 C           1.4484    4.5982   -1.5369 C.ar    1  UNL1       -0.0197
     22 C           2.3474    3.6134   -1.1091 C.ar    1  UNL1       -0.0547
     23 N           4.3614   -0.7113   -1.1759 N.am    1  UNL1       -0.3095
     24 C           5.2204   -1.5856   -1.9912 C.3     1  UNL1        0.0353
     25 C           6.2098   -0.7347   -2.8259 C.3     1  UNL1       -0.0287
     26 C           7.1469   -1.6330   -3.6471 C.3     1  UNL1       -0.0386
     27 C           7.9584   -2.5238   -2.6941 C.3     1  UNL1       -0.0472
     28 C           7.0097   -3.4008   -1.8611 C.3     1  UNL1       -0.0386
     29 C           6.1856   -4.2873   -2.8073 C.3     1  UNL1       -0.0472
     30 C           5.3584   -3.4081   -3.7577 C.3     1  UNL1       -0.0386
     31 C           6.3050   -2.5173   -4.5813 C.3     1  UNL1       -0.0472
     32 C           4.4121   -2.5149   -2.9331 C.3     1  UNL1       -0.0287
     33 C           6.0592   -2.4983   -1.0516 C.3     1  UNL1       -0.0287
     34 H           2.4248    0.6078    0.1226 H       1  UNL1        0.0407
     35 H           3.8060    1.6649   -0.1726 H       1  UNL1        0.0407
     36 H           0.4517    0.8650   -1.7523 H       1  UNL1        0.0622
     37 H          -1.1078    2.5711   -2.5042 H       1  UNL1        0.0654
     38 H          -2.3490    4.2583   -2.9335 H       1  UNL1        0.0742
     39 H          -2.2484    4.7534   -1.2156 H       1  UNL1        0.0742
     40 H          -2.6717    6.5965   -3.6669 H       1  UNL1        0.0618
     41 H          -3.7240    6.6613   -0.7591 H       1  UNL1        0.0821
     42 H          -2.7729    9.5347   -4.2455 H       1  UNL1        0.0637
     43 H          -1.4361   11.6119   -4.0793 H       1  UNL1        0.0618
     44 H          -1.4620   12.9469   -1.9892 H       1  UNL1        0.0618
     45 H          -2.8150   12.2022   -0.0483 H       1  UNL1        0.0618
     46 H          -4.1607   10.1293   -0.1925 H       1  UNL1        0.0637
     47 H           1.7343    5.6462   -1.4898 H       1  UNL1        0.0654
     48 H           3.3207    3.9211   -0.7339 H       1  UNL1        0.0622
     49 H           4.6171   -0.6022   -0.2028 H       1  UNL1        0.1492
     50 H           5.6695   -0.0633   -3.5038 H       1  UNL1        0.0288
     51 H           6.7999   -0.0891   -2.1619 H       1  UNL1        0.0288
     52 H           7.8266   -1.0101   -4.2390 H       1  UNL1        0.0302
     53 H           8.6468   -3.1555   -3.2692 H       1  UNL1        0.0271
     54 H           8.5745   -1.9033   -2.0319 H       1  UNL1        0.0271
     55 H           7.5934   -4.0311   -1.1806 H       1  UNL1        0.0302
     56 H           6.8515   -4.9403   -3.3855 H       1  UNL1        0.0271
     57 H           5.5234   -4.9419   -2.2281 H       1  UNL1        0.0271
     58 H           4.7726   -4.0439   -4.4310 H       1  UNL1        0.0302
     59 H           5.7244   -1.8893   -5.2683 H       1  UNL1        0.0271
     60 H           6.9636   -3.1401   -5.1989 H       1  UNL1        0.0271
     61 H           3.7251   -3.1400   -2.3473 H       1  UNL1        0.0288
     62 H           3.7882   -1.9388   -3.6240 H       1  UNL1        0.0288
     63 H           5.3955   -3.1188   -0.4348 H       1  UNL1        0.0288
     64 H           6.6440   -1.8862   -0.3519 H       1  UNL1        0.0288
@<TRIPOS>BOND
     1     2     1    2
     2     3     2    1
     3     3    34    1
     4     3    35    1
     5     4     3    1
     6     5     4   ar
     7     5    36    1
     8     6     5   ar
     9     6    37    1
    10     7     6   ar
    11     8     7    1
    12     9     8    1
    13     9    38    1
    14     9    39    1
    15    10     9    1
    16    10    40    1
    17    11    10    2
    18    11    41    1
    19    12    11    1
    20    13    12    2
    21    14    12    2
    22    15    12    1
    23    16    15   ar
    24    16    42    1
    25    17    16   ar
    26    17    43    1
    27    18    17   ar
    28    18    44    1
    29    19    18   ar
    30    19    45    1
    31    20    19   ar
    32    20    15   ar
    33    20    46    1
    34    21     7   ar
    35    21    47    1
    36    22    21   ar
    37    22     4   ar
    38    22    48    1
    39    23     2   am
    40    23    49    1
    41    24    23    1
    42    25    24    1
    43    25    50    1
    44    25    51    1
    45    26    25    1
    46    26    52    1
    47    27    26    1
    48    27    53    1
    49    27    54    1
    50    28    27    1
    51    28    55    1
    52    29    28    1
    53    29    56    1
    54    29    57    1
    55    30    29    1
    56    30    58    1
    57    31    30    1
    58    31    26    1
    59    31    59    1
    60    31    60    1
    61    32    30    1
    62    32    24    1
    63    32    61    1
    64    32    62    1
    65    33    28    1
    66    33    24    1
    67    33    63    1
    68    33    64    1
