@<TRIPOS>MOLECULE
mol_196_akc
>191.sdf
 35 38 0 0 0
SMALL
GASTEIGER

@<TRIPOS>ATOM
      1 CL         -2.0681   -0.2817    0.0165 Cl      1  UNL1       -0.0828
      2 C          -0.3568   -0.0317   -0.0138 C.ar    1  UNL1        0.0533
      3 C           0.2338    1.2390   -0.0456 C.ar    1  UNL1        0.0569
      4 C           1.6422    1.3206   -0.0197 C.ar    1  UNL1       -0.0268
      5 C           2.4510    0.1823    0.0204 C.ar    1  UNL1        0.0345
      6 N           3.8595    0.2247    0.0415 N.am    1  UNL1       -0.2811
      7 C           4.6792    1.3449    0.0119 C.2     1  UNL1        0.2549
      8 O           4.2717    2.4994   -0.0729 O.2     1  UNL1       -0.2693
      9 C           6.1108    1.0669    0.0918 C.ar    1  UNL1        0.0742
     10 C           7.1254    2.0097    0.0785 C.ar    1  UNL1       -0.0425
     11 C           8.4189    1.4288    0.1959 C.ar    1  UNL1       -0.0540
     12 C           8.3566    0.0573    0.2870 C.ar    1  UNL1       -0.0236
     13 S           6.7480   -0.5190    0.2254 S.2     1  UNL1       -0.0921
     14 C           1.8386   -1.0726    0.0408 C.ar    1  UNL1       -0.0391
     15 C           0.4451   -1.1788    0.0276 C.ar    1  UNL1       -0.0409
     16 C          -0.5344    2.4772   -0.1471 C.ar    1  UNL1        0.2299
     17 N          -1.6989    2.7059   -0.7261 N.ar    1  UNL1       -0.2089
     18 C          -1.8800    4.0565   -0.5831 C.ar    1  UNL1        0.1099
     19 C          -0.8062    4.6074    0.0930 C.ar    1  UNL1        0.1557
     20 O           0.0603    3.5980    0.3835 O.2     1  UNL1       -0.4352
     21 C          -0.6655    5.9556    0.3968 C.ar    1  UNL1       -0.0171
     22 C          -1.7129    6.7824   -0.0284 C.ar    1  UNL1       -0.0582
     23 C          -2.8194    6.2644   -0.7151 C.ar    1  UNL1       -0.0595
     24 C          -2.9195    4.8950   -1.0033 C.ar    1  UNL1       -0.0326
     25 H           2.0883    2.3103   -0.0474 H       1  UNL1        0.0644
     26 H           4.3437   -0.6641    0.0873 H       1  UNL1        0.1551
     27 H           6.9332    3.0742   -0.0044 H       1  UNL1        0.0630
     28 H           9.3446    1.9909    0.2156 H       1  UNL1        0.0623
     29 H           9.1806   -0.6360    0.3868 H       1  UNL1        0.0693
     30 H           2.4295   -1.9849    0.0673 H       1  UNL1        0.0636
     31 H          -0.0147   -2.1648    0.0499 H       1  UNL1        0.0633
     32 H           0.2005    6.3365    0.9232 H       1  UNL1        0.0655
     33 H          -1.6647    7.8502    0.1775 H       1  UNL1        0.0619
     34 H          -3.6162    6.9337   -1.0334 H       1  UNL1        0.0618
     35 H          -3.7693    4.4881   -1.5388 H       1  UNL1        0.0640
@<TRIPOS>BOND
     1     2     1    1
     2     3     2   ar
     3     4     3   ar
     4     4    25    1
     5     5     4   ar
     6     6     5    1
     7     6    26    1
     8     7     6   am
     9     8     7    2
    10     9     7    1
    11    10     9   ar
    12    10    27    1
    13    11    10   ar
    14    11    28    1
    15    12    11   ar
    16    12    29    1
    17    13    12   ar
    18    13     9   ar
    19    14     5   ar
    20    14    30    1
    21    15    14   ar
    22    15     2   ar
    23    15    31    1
    24    16     3    1
    25    17    16   ar
    26    18    17   ar
    27    19    18   ar
    28    20    19   ar
    29    20    16   ar
    30    21    19   ar
    31    21    32    1
    32    22    21   ar
    33    22    33    1
    34    23    22   ar
    35    23    34    1
    36    24    23   ar
    37    24    18   ar
    38    24    35    1
