@<TRIPOS>MOLECULE
mol_197_akc_d0ra00287a
>192.sdf
 40 41 0 0 0
SMALL
GASTEIGER

@<TRIPOS>ATOM
      1 F           4.1032   -0.3617    2.6997 F       1  UNL1       -0.1659
      2 C           3.2621   -1.4283    2.7949 C.3     1  UNL1        0.4174
      3 F           3.3772   -1.8872    4.0687 F       1  UNL1       -0.1659
      4 F           2.0040   -0.9320    2.6731 F       1  UNL1       -0.1659
      5 C           3.5585   -2.5045    1.7679 C.ar    1  UNL1        0.0549
      6 C           4.5758   -2.3384    0.8217 C.ar    1  UNL1       -0.0481
      7 C           4.8322   -3.3286   -0.1374 C.ar    1  UNL1       -0.0339
      8 C           4.0896   -4.5244   -0.1750 C.ar    1  UNL1        0.0890
      9 C           3.0734   -4.6816    0.7770 C.ar    1  UNL1       -0.0339
     10 C           2.8088   -3.6895    1.7359 C.ar    1  UNL1       -0.0481
     11 N           4.3140   -5.5781   -1.1095 N.2     1  UNL1       -0.1187
     12 N           5.3974   -5.4510   -1.7032 N.2     1  UNL1       -0.0028
     13 N           5.6885   -6.5751   -2.4942 N.pl3   1  UNL1       -0.1394
     14 C           6.8485   -6.8544   -3.0671 C.cat   1  UNL1        0.3588
     15 N           7.7002   -5.9613   -2.9742 N.pl3   1  UNL1       -0.3912
     16 N           7.2203   -7.9811   -3.6703 N.pl3   1  UNL1       -0.1863
     17 N           6.4199   -8.9992   -4.0528 N.am    1  UNL1       -0.1738
     18 C           5.2249   -8.7256   -4.7105 C.2     1  UNL1        0.2738
     19 O           4.7849   -7.5803   -4.7349 O.2     1  UNL1       -0.2674
     20 C           4.5534   -9.8515   -5.4303 C.ar    1  UNL1        0.0576
     21 C           4.5894  -11.1929   -5.0096 C.ar    1  UNL1        0.0545
     22 CL          5.4428  -11.7103   -3.5977 Cl      1  UNL1       -0.0827
     23 C           3.8982  -12.1791   -5.7216 C.ar    1  UNL1       -0.0243
     24 C           3.1697  -11.8347   -6.8570 C.ar    1  UNL1        0.0424
     25 CL          2.3017  -13.0455   -7.7106 Cl      1  UNL1       -0.0835
     26 C           3.1345  -10.5137   -7.2955 C.ar    1  UNL1       -0.0426
     27 C           3.8211   -9.5226   -6.5842 C.ar    1  UNL1       -0.0468
     28 H           5.1713   -1.4235    0.8229 H       1  UNL1        0.0624
     29 H           5.6213   -3.1233   -0.8515 H       1  UNL1        0.0639
     30 H           2.4661   -5.5864    0.7892 H       1  UNL1        0.0639
     31 H           2.0076   -3.8405    2.4603 H       1  UNL1        0.0624
     32 H           4.9319   -7.2456   -2.6320 H       1  UNL1        0.2938
     33 H           8.5844   -6.1038   -3.4281 H       1  UNL1        0.2156
     34 H           8.2124   -8.1424   -3.8408 H       1  UNL1        0.2875
     35 H           6.8613   -9.9048   -4.2459 H       1  UNL1        0.1915
     36 H           3.9116  -13.2162   -5.3885 H       1  UNL1        0.0647
     37 H           2.5634  -10.2508   -8.1858 H       1  UNL1        0.0632
     38 H           3.7700   -8.4967   -6.9487 H       1  UNL1        0.0626
     39 H           7.2660   -5.1369   -3.3735 H       1  UNL1        0.2156
     40 H           7.8063   -5.7055   -2.0024 H       1  UNL1        0.2156
@<TRIPOS>BOND
     1     2     1    1
     2     3     2    1
     3     4     2    1
     4     5     2    1
     5     6     5   ar
     6     6    28    1
     7     7     6   ar
     8     7    29    1
     9     8     7   ar
    10     9     8   ar
    11     9    30    1
    12    10     9   ar
    13    10     5   ar
    14    10    31    1
    15    11     8    1
    16    12    11    2
    17    13    12    1
    18    13    32    1
    19    14    13    1
    20    15    14    2
    21    15    33    1
    22    15    39    1
    23    16    14    1
    24    16    34    1
    25    17    16    1
    26    17    35    1
    27    18    17   am
    28    19    18    2
    29    20    18    1
    30    21    20   ar
    31    22    21    1
    32    23    21   ar
    33    23    36    1
    34    24    23   ar
    35    25    24    1
    36    26    24   ar
    37    26    37    1
    38    27    26   ar
    39    27    20   ar
    40    27    38    1
    41    15    40    1
