@<TRIPOS>MOLECULE
mol_198_akc_s11686_019_00146_5
>193.sdf
 43 45 0 0 0
SMALL
GASTEIGER

@<TRIPOS>ATOM
      1 C           2.2804   -0.8393    0.0645 C.3     1  UNL1       -0.0587
      2 C           0.9079   -0.3826   -0.4664 C.3     1  UNL1       -0.0212
      3 C           0.6668   -1.1581   -1.7787 C.3     1  UNL1       -0.0587
      4 C           0.7578    1.1614   -0.5971 C.3     1  UNL1       -0.0299
      5 C           0.8720    1.6460    0.8688 C.3     1  UNL1       -0.0485
      6 C           0.1461    0.5378    1.6621 C.3     1  UNL1       -0.0417
      7 C          -0.2529   -0.4784    0.5641 C.3     1  UNL1        0.0134
      8 C          -0.6221   -1.8476    1.0866 C.3     1  UNL1       -0.0539
      9 C          -1.3397    0.2458   -0.2308 C.2     1  UNL1        0.0478
     10 C          -0.7159    1.3707   -1.0310 C.3     1  UNL1       -0.0087
     11 N          -2.5866   -0.1003   -0.2033 N.2     1  UNL1       -0.1580
     12 N          -3.3910    0.6811   -1.0237 N.2     1  UNL1       -0.1571
     13 C          -4.6217    0.2767   -0.9583 C.2     1  UNL1        0.0592
     14 C          -5.6943    0.9374   -1.7290 C.ar    1  UNL1        0.0250
     15 C          -5.3522    1.5843   -2.9251 C.ar    1  UNL1       -0.0509
     16 C          -6.3351    2.1979   -3.7088 C.ar    1  UNL1       -0.0610
     17 C          -7.6712    2.1751   -3.3082 C.ar    1  UNL1       -0.0596
     18 C          -8.0269    1.5569   -2.1103 C.ar    1  UNL1       -0.0308
     19 C          -7.0339    0.9460   -1.3276 C.ar    1  UNL1        0.1348
     20 N          -7.4451    0.3952   -0.0523 N.pl3   1  UNL1        0.0571
     21 O          -7.2312   -0.8070    0.1459 O.2     1  UNL1       -0.1261
     22 O          -8.0229    1.1574    0.7311 O.2     1  UNL1       -0.1261
     23 H           2.2907   -1.9235    0.2253 H       1  UNL1        0.0235
     24 H           3.0675   -0.6038   -0.6609 H       1  UNL1        0.0235
     25 H           2.5727   -0.3810    1.0117 H       1  UNL1        0.0235
     26 H           1.4418   -0.9149   -2.5144 H       1  UNL1        0.0235
     27 H           0.7026   -2.2391   -1.6012 H       1  UNL1        0.0235
     28 H          -0.2979   -0.9532   -2.2503 H       1  UNL1        0.0235
     29 H           1.4725    1.6477   -1.2654 H       1  UNL1        0.0310
     30 H           1.9183    1.7276    1.1824 H       1  UNL1        0.0268
     31 H           0.4091    2.6260    1.0249 H       1  UNL1        0.0268
     32 H          -0.7252    0.9431    2.1893 H       1  UNL1        0.0274
     33 H           0.8150    0.0981    2.4100 H       1  UNL1        0.0274
     34 H           0.2211   -2.3178    1.6026 H       1  UNL1        0.0239
     35 H          -1.4520   -1.7832    1.7992 H       1  UNL1        0.0239
     36 H          -0.9407   -2.5138    0.2784 H       1  UNL1        0.0239
     37 H          -0.8616    1.2148   -2.1023 H       1  UNL1        0.0329
     38 H          -1.1177    2.3424   -0.7322 H       1  UNL1        0.0329
     39 H          -4.8872   -0.5860   -0.3242 H       1  UNL1        0.0855
     40 H          -4.3159    1.6068   -3.2618 H       1  UNL1        0.0625
     41 H          -6.0545    2.6934   -4.6365 H       1  UNL1        0.0618
     42 H          -8.4318    2.6493   -3.9254 H       1  UNL1        0.0618
     43 H          -9.0679    1.5592   -1.7920 H       1  UNL1        0.0640
@<TRIPOS>BOND
     1     1    23    1
     2     1    24    1
     3     1    25    1
     4     2     1    1
     5     3     2    1
     6     3    26    1
     7     3    27    1
     8     3    28    1
     9     4     2    1
    10     4    29    1
    11     5     4    1
    12     5    30    1
    13     5    31    1
    14     6     5    1
    15     6    32    1
    16     6    33    1
    17     7     6    1
    18     7     2    1
    19     7     8    1
    20     8    34    1
    21     8    35    1
    22     8    36    1
    23     9     7    1
    24    10     9    1
    25    10     4    1
    26    10    37    1
    27    10    38    1
    28    11     9    2
    29    12    11    1
    30    13    12    2
    31    13    39    1
    32    14    13    1
    33    15    14   ar
    34    15    40    1
    35    16    15   ar
    36    16    41    1
    37    17    16   ar
    38    17    42    1
    39    18    17   ar
    40    18    43    1
    41    19    18   ar
    42    19    14   ar
    43    20    19    1
    44    21    20    2
    45    22    20    2
