@<TRIPOS>MOLECULE
mol_199_akc_ardp201900241
>194.sdf
 41 42 0 0 0
SMALL
GASTEIGER

@<TRIPOS>ATOM
      1 C           0.9896    0.0057    0.0336 C.3     1  UNL1       -0.0653
      2 C           2.5083    0.0264    0.0403 C.3     1  UNL1       -0.0559
      3 C           3.0445    1.1102   -0.8899 C.3     1  UNL1       -0.0533
      4 C           4.5703    1.1344   -0.8840 C.3     1  UNL1       -0.0531
      5 C           5.0951    2.2213   -1.8167 C.3     1  UNL1       -0.0530
      6 C           6.6205    2.2522   -1.8193 C.3     1  UNL1       -0.0527
      7 C           7.1325    3.3463   -2.7510 C.3     1  UNL1       -0.0461
      8 C           8.6592    3.3936   -2.7591 C.3     1  UNL1        0.0082
      9 C           9.1585    4.4353   -3.6842 C.ar    1  UNL1        0.1380
     10 C           9.9261    4.4054   -4.8215 C.ar    1  UNL1        0.0112
     11 C           9.9590    5.7469   -5.2484 C.ar    1  UNL1        0.1485
     12 N           9.3030    6.5520   -4.4034 N.ar    1  UNL1       -0.0749
     13 O           8.7987    5.7203   -3.4175 O.2     1  UNL1       -0.3590
     14 C          10.5980    6.2402   -6.4980 C.ar    1  UNL1        0.1592
     15 C          10.6547    7.5601   -6.9148 C.ar    1  UNL1       -0.0118
     16 C          11.2865    7.5690   -8.1826 C.ar    1  UNL1        0.0086
     17 C          11.5772    6.2550   -8.4493 C.ar    1  UNL1        0.2803
     18 O          11.1902    5.4349   -7.4377 O.2     1  UNL1       -0.4323
     19 N          12.1745    5.6295   -9.5887 N.pl3   1  UNL1        0.0926
     20 O          12.4747    6.3799  -10.5296 O.2     1  UNL1       -0.1231
     21 O          12.3399    4.4058   -9.5571 O.2     1  UNL1       -0.1231
     22 H           0.6180   -0.7749    0.7038 H       1  UNL1        0.0230
     23 H           0.5850    0.9660    0.3690 H       1  UNL1        0.0230
     24 H           0.6067   -0.1957   -0.9720 H       1  UNL1        0.0230
     25 H           2.8647    0.2020    1.0620 H       1  UNL1        0.0263
     26 H           2.8865   -0.9538   -0.2723 H       1  UNL1        0.0263
     27 H           2.6835    0.9330   -1.9105 H       1  UNL1        0.0265
     28 H           2.6601    2.0890   -0.5773 H       1  UNL1        0.0265
     29 H           4.9344    1.3147    0.1347 H       1  UNL1        0.0265
     30 H           4.9580    0.1581   -1.1993 H       1  UNL1        0.0265
     31 H           4.7285    2.0426   -2.8350 H       1  UNL1        0.0265
     32 H           4.7069    3.1974   -1.5006 H       1  UNL1        0.0265
     33 H           6.9891    2.4301   -0.8017 H       1  UNL1        0.0265
     34 H           7.0101    1.2787   -2.1408 H       1  UNL1        0.0265
     35 H           6.7589    3.1691   -3.7678 H       1  UNL1        0.0269
     36 H           6.7278    4.3154   -2.4321 H       1  UNL1        0.0269
     37 H           9.0393    3.5859   -1.7491 H       1  UNL1        0.0344
     38 H           9.0513    2.4169   -3.0696 H       1  UNL1        0.0344
     39 H          10.3675    3.5399   -5.2911 H       1  UNL1        0.0675
     40 H          10.2628    8.4076   -6.3673 H       1  UNL1        0.0657
     41 H          11.4859    8.4194   -8.8227 H       1  UNL1        0.0673
@<TRIPOS>BOND
     1     1    22    1
     2     1    23    1
     3     1    24    1
     4     2     1    1
     5     2    25    1
     6     2    26    1
     7     3     2    1
     8     3    27    1
     9     3    28    1
    10     4     3    1
    11     4    29    1
    12     4    30    1
    13     5     4    1
    14     5    31    1
    15     5    32    1
    16     6     5    1
    17     6    33    1
    18     6    34    1
    19     7     6    1
    20     7    35    1
    21     7    36    1
    22     8     7    1
    23     8    37    1
    24     8    38    1
    25     9     8    1
    26    10     9   ar
    27    10    39    1
    28    11    10   ar
    29    12    11   ar
    30    13    12   ar
    31    13     9   ar
    32    14    11    1
    33    15    14   ar
    34    15    40    1
    35    16    15   ar
    36    16    41    1
    37    17    16   ar
    38    18    17   ar
    39    18    14   ar
    40    19    17    1
    41    20    19    2
    42    21    19    2
