@<TRIPOS>MOLECULE
mol_1_akc_1573406414666180226163222
>1.sdf
 43 47 0 0 0
SMALL
GASTEIGER

@<TRIPOS>ATOM
      1 C           1.2660    0.5779   -0.0032 C.3     1  UNL1        0.0788
      2 O           2.4624   -0.1918    0.0354 O.3     1  UNL1       -0.4950
      3 C           3.0588   -0.4739   -1.1608 C.ar    1  UNL1        0.1221
      4 C           4.1899   -1.2867   -1.0781 C.ar    1  UNL1        0.0060
      5 C           4.9079   -1.6852   -2.2003 C.ar    1  UNL1        0.0757
      6 N           5.9883   -2.4492   -1.9918 N.ar    1  UNL1       -0.2458
      7 C           6.7162   -2.8695   -3.0483 C.ar    1  UNL1        0.0839
      8 C           6.3473   -2.5665   -4.3593 C.ar    1  UNL1        0.0598
      9 C           7.1969   -3.1788   -5.3995 C.2     1  UNL1        0.2356
     10 O           6.7673   -3.6421   -6.4463 O.2     1  UNL1       -0.2831
     11 C           8.6634   -3.3199   -5.0569 C.2     1  UNL1        0.2336
     12 O           9.5367   -3.0233   -5.8541 O.2     1  UNL1       -0.2832
     13 C           8.9346   -3.8248   -3.7047 C.ar    1  UNL1        0.0347
     14 C           7.9376   -3.6414   -2.7298 C.ar    1  UNL1        0.0120
     15 C           8.1829   -4.1883   -1.4596 C.ar    1  UNL1       -0.0519
     16 C           9.3729   -4.8787   -1.1867 C.ar    1  UNL1       -0.0611
     17 C          10.3526   -5.0140   -2.1700 C.ar    1  UNL1       -0.0610
     18 C          10.1404   -4.4794   -3.4350 C.ar    1  UNL1       -0.0502
     19 C           5.2143   -1.7623   -4.6230 C.ar    1  UNL1        0.0043
     20 C           4.7988   -1.4414   -6.0209 C.ar    1  UNL1       -0.0164
     21 C           3.4812   -1.6751   -6.4624 C.ar    1  UNL1       -0.0526
     22 C           3.0889   -1.4037   -7.7786 C.ar    1  UNL1       -0.0428
     23 C           4.0255   -0.9462   -8.6980 C.ar    1  UNL1        0.0410
     24 CL          3.5602   -0.6674  -10.3299 Cl      1  UNL1       -0.0835
     25 C           5.3382   -0.7212   -8.3013 C.ar    1  UNL1       -0.0428
     26 C           5.7115   -0.9365   -6.9686 C.ar    1  UNL1       -0.0526
     27 C           4.4829   -1.2766   -3.4870 C.ar    1  UNL1        0.0090
     28 C           3.3662   -0.4027   -3.5462 C.ar    1  UNL1       -0.0485
     29 C           2.6535   -0.0205   -2.4049 C.ar    1  UNL1       -0.0192
     30 H           1.4467    1.5700   -0.4291 H       1  UNL1        0.0660
     31 H           0.4766    0.0507   -0.5495 H       1  UNL1        0.0660
     32 H           0.9237    0.7173    1.0270 H       1  UNL1        0.0660
     33 H           4.5239   -1.6231   -0.0989 H       1  UNL1        0.0676
     34 H           7.4453   -4.0823   -0.6650 H       1  UNL1        0.0624
     35 H           9.5349   -5.3032   -0.1989 H       1  UNL1        0.0618
     36 H          11.2777   -5.5434   -1.9502 H       1  UNL1        0.0618
     37 H          10.8963   -4.5858   -4.2105 H       1  UNL1        0.0625
     38 H           2.7352   -2.0807   -5.7809 H       1  UNL1        0.0624
     39 H           2.0588   -1.5726   -8.0806 H       1  UNL1        0.0632
     40 H           6.0845   -0.3973   -9.0222 H       1  UNL1        0.0632
     41 H           6.7500   -0.7513   -6.7002 H       1  UNL1        0.0624
     42 H           3.0287    0.0066   -4.4961 H       1  UNL1        0.0625
     43 H           1.7949    0.6315   -2.5288 H       1  UNL1        0.0654
@<TRIPOS>BOND
     1     1    30    1
     2     1    31    1
     3     1    32    1
     4     2     1    1
     5     3     2    1
     6     4     3   ar
     7     4    33    1
     8     5     4   ar
     9     6     5   ar
    10     7     6   ar
    11     8     7   ar
    12     9     8    1
    13    10     9    2
    14    11     9    1
    15    12    11    2
    16    13    11    1
    17    14    13   ar
    18    14     7    1
    19    15    14   ar
    20    15    34    1
    21    16    15   ar
    22    16    35    1
    23    17    16   ar
    24    17    36    1
    25    18    17   ar
    26    18    13   ar
    27    18    37    1
    28    19     8   ar
    29    20    19    1
    30    21    20   ar
    31    21    38    1
    32    22    21   ar
    33    22    39    1
    34    23    22   ar
    35    24    23    1
    36    25    23   ar
    37    25    40    1
    38    26    25   ar
    39    26    20   ar
    40    26    41    1
    41    27    19   ar
    42    27     5   ar
    43    28    27   ar
    44    28    42    1
    45    29    28   ar
    46    29     3   ar
    47    29    43    1
