@<TRIPOS>MOLECULE
mol_201_akc_jcbi2019108850
>196.sdf
 54 55 0 0 0
SMALL
GASTEIGER

@<TRIPOS>ATOM
      1 C          29.5079   -1.2630   -8.8888 C.3     1  UNL1       -0.0653
      2 C          28.3703   -0.3141   -9.2268 C.3     1  UNL1       -0.0559
      3 C          27.0409   -0.8379   -8.6900 C.3     1  UNL1       -0.0533
      4 C          25.8951    0.1134   -9.0258 C.3     1  UNL1       -0.0531
      5 C          24.5709   -0.4184   -8.4833 C.3     1  UNL1       -0.0531
      6 C          23.4227    0.5290   -8.8184 C.3     1  UNL1       -0.0531
      7 C          22.1010   -0.0056   -8.2754 C.3     1  UNL1       -0.0530
      8 C          20.9515    0.9405   -8.6105 C.3     1  UNL1       -0.0514
      9 C          19.6334    0.4023   -8.0683 C.3     1  UNL1       -0.0332
     10 C          18.4778    1.3398   -8.3937 C.3     1  UNL1        0.0469
     11 N          17.2219    0.7976   -7.8697 N.ar    1  UNL1       -0.2115
     12 C          16.3511   -0.0438   -8.5384 C.ar    1  UNL1        0.1005
     13 C          15.3558   -0.3314   -7.6371 C.ar    1  UNL1        0.2550
     14 C          14.1599   -1.1810   -7.7663 C.3     1  UNL1        0.1359
     15 O          13.0035   -0.3763   -7.5715 O.3     1  UNL1       -0.3664
     16 C          11.7988   -1.1410   -7.6848 C.3     1  UNL1        0.0767
     17 C          10.6396   -0.2276   -7.4616 C.3     1  UNL1        0.1052
     18 C           9.2078   -0.7008   -7.5147 C.3     1  UNL1        0.0766
     19 O           9.8978   -0.5240   -6.2712 O.3     1  UNL1       -0.3694
     20 N          15.7426    0.3945   -6.4980 N.ar    1  UNL1       -0.0674
     21 C          15.0503    0.4728   -5.2106 C.3     1  UNL1        0.1683
     22 N          16.8653    1.0874   -6.6306 N.ar    1  UNL1        0.0946
     23 H          30.4537   -0.8767   -9.2798 H       1  UNL1        0.0230
     24 H          29.6090   -1.3810   -7.8051 H       1  UNL1        0.0230
     25 H          29.3352   -2.2513   -9.3269 H       1  UNL1        0.0230
     26 H          28.5826    0.6728   -8.7994 H       1  UNL1        0.0263
     27 H          28.3115   -0.1916  -10.3145 H       1  UNL1        0.0263
     28 H          26.8345   -1.8266   -9.1178 H       1  UNL1        0.0265
     29 H          27.1066   -0.9642   -7.6024 H       1  UNL1        0.0265
     30 H          26.0979    1.1029   -8.5982 H       1  UNL1        0.0265
     31 H          25.8243    0.2386  -10.1131 H       1  UNL1        0.0265
     32 H          24.3682   -1.4086   -8.9096 H       1  UNL1        0.0265
     33 H          24.6406   -0.5429   -7.3957 H       1  UNL1        0.0265
     34 H          23.6236    1.5189   -8.3909 H       1  UNL1        0.0265
     35 H          23.3517    0.6537   -9.9058 H       1  UNL1        0.0265
     36 H          21.9004   -0.9966   -8.7010 H       1  UNL1        0.0265
     37 H          22.1720   -0.1297   -7.1878 H       1  UNL1        0.0265
     38 H          21.1504    1.9301   -8.1818 H       1  UNL1        0.0266
     39 H          20.8808    1.0659   -9.6978 H       1  UNL1        0.0266
     40 H          19.4325   -0.5892   -8.4928 H       1  UNL1        0.0283
     41 H          19.7024    0.2680   -6.9820 H       1  UNL1        0.0283
     42 H          18.6412    2.3356   -7.9664 H       1  UNL1        0.0510
     43 H          18.3716    1.4585   -9.4784 H       1  UNL1        0.0510
     44 H          16.5635   -0.3289   -9.5500 H       1  UNL1        0.0893
     45 H          14.1401   -1.6259   -8.7667 H       1  UNL1        0.0672
     46 H          14.2043   -1.9775   -7.0143 H       1  UNL1        0.0672
     47 H          11.7490   -1.5905   -8.6821 H       1  UNL1        0.0586
     48 H          11.8101   -1.9402   -6.9338 H       1  UNL1        0.0586
     49 H          10.8417    0.8090   -7.7009 H       1  UNL1        0.0642
     50 H           8.4309    0.0200   -7.7461 H       1  UNL1        0.0586
     51 H           8.9894   -1.7109   -7.8395 H       1  UNL1        0.0586
     52 H          15.7140    0.0840   -4.4310 H       1  UNL1        0.1018
     53 H          14.8027    1.5163   -4.9944 H       1  UNL1        0.1018
     54 H          14.1361   -0.1210   -5.2199 H       1  UNL1        0.1018
@<TRIPOS>UNITY_ATOM_ATTR
20 1
charge 1
@<TRIPOS>BOND
     1     1    23    1
     2     1    24    1
     3     1    25    1
     4     2     1    1
     5     2    26    1
     6     2    27    1
     7     3     2    1
     8     3    28    1
     9     3    29    1
    10     4     3    1
    11     4    30    1
    12     4    31    1
    13     5     4    1
    14     5    32    1
    15     5    33    1
    16     6     5    1
    17     6    34    1
    18     6    35    1
    19     7     6    1
    20     7    36    1
    21     7    37    1
    22     8     7    1
    23     8    38    1
    24     8    39    1
    25     9     8    1
    26     9    40    1
    27     9    41    1
    28    10     9    1
    29    10    42    1
    30    10    43    1
    31    11    10    1
    32    12    11   ar
    33    12    44    1
    34    13    12   ar
    35    14    13    1
    36    14    45    1
    37    14    46    1
    38    15    14    1
    39    16    15    1
    40    16    47    1
    41    16    48    1
    42    18    17    1
    43    18    50    1
    44    18    51    1
    45    19    18    1
    46    19    17    1
    47    20    13   ar
    48    21    20    1
    49    21    52    1
    50    21    53    1
    51    21    54    1
    52    22    20   ar
    53    22    11   ar
    54    17    49    1
    55    17    16    1
