@<TRIPOS>MOLECULE
mol_203_akc_1568026620666200616142120
>198.sdf
 47 50 0 0 0
SMALL
GASTEIGER

@<TRIPOS>ATOM
      1 C          -1.5506    2.0423    2.4163 C.3     1  UNL1        0.0788
      2 O          -0.2644    1.5888    2.0000 O.3     1  UNL1       -0.4944
      3 C           0.4061    0.8016    2.9065 C.ar    1  UNL1        0.1298
      4 C           1.8243    0.7562    2.8436 C.ar    1  UNL1        0.0499
      5 C           2.5059   -0.0504    3.7619 C.ar    1  UNL1        0.0506
      6 N           3.8508    0.0670    3.5001 N.ar    1  UNL1       -0.3599
      7 C           4.0533    0.8933    2.4342 C.ar    1  UNL1        0.0115
      8 C           2.8247    1.3569    2.0012 C.ar    1  UNL1        0.0216
      9 C           2.6347    2.2797    0.8994 C.2     1  UNL1        0.0381
     10 N           3.5686    2.3767    0.0096 N.2     1  UNL1       -0.2465
     11 C           3.4353    3.2521   -1.0307 C.ar    1  UNL1        0.1189
     12 C           4.4557    3.7694   -1.8150 C.ar    1  UNL1        0.0877
     13 C           5.8304    3.3991   -1.5949 C.1     1  UNL1        0.1021
     14 N           6.9527    3.1404   -1.4600 N.1     1  UNL1       -0.1908
     15 C           4.0214    4.7226   -2.8223 C.ar    1  UNL1       -0.0177
     16 C           2.6450    4.8849   -2.7536 C.ar    1  UNL1       -0.0037
     17 C           1.7352    5.8288   -3.4850 C.3     1  UNL1       -0.0211
     18 C           1.8670    7.2667   -2.9827 C.3     1  UNL1       -0.0486
     19 C           3.2845    7.8386   -2.9091 C.3     1  UNL1       -0.0527
     20 C           4.0748    7.8010   -4.2150 C.3     1  UNL1       -0.0528
     21 C           4.4956    6.4296   -4.7580 C.3     1  UNL1       -0.0490
     22 C           5.0174    5.4314   -3.7271 C.3     1  UNL1       -0.0256
     23 S           1.9292    3.8240   -1.6209 S.2     1  UNL1       -0.0727
     24 C           1.8584   -0.8159    4.7366 C.ar    1  UNL1       -0.0376
     25 C           0.4663   -0.7863    4.7610 C.ar    1  UNL1       -0.0563
     26 C          -0.2486    0.0001    3.8597 C.ar    1  UNL1       -0.0192
     27 H          -2.2816    1.2271    2.4031 H       1  UNL1        0.0660
     28 H          -1.5059    2.5137    3.4046 H       1  UNL1        0.0660
     29 H          -1.8916    2.7961    1.7005 H       1  UNL1        0.0660
     30 H           4.5798   -0.4075    4.0150 H       1  UNL1        0.1654
     31 H           5.0524    1.0990    2.0703 H       1  UNL1        0.0813
     32 H           1.6961    2.8589    0.8958 H       1  UNL1        0.0836
     33 H           1.8918    5.7686   -4.5641 H       1  UNL1        0.0318
     34 H           0.6857    5.5255   -3.3575 H       1  UNL1        0.0318
     35 H           1.4311    7.3314   -1.9767 H       1  UNL1        0.0269
     36 H           1.2539    7.9151   -3.6208 H       1  UNL1        0.0269
     37 H           3.8526    7.3566   -2.1051 H       1  UNL1        0.0265
     38 H           3.1991    8.8879   -2.5979 H       1  UNL1        0.0265
     39 H           3.5112    8.3290   -4.9945 H       1  UNL1        0.0265
     40 H           4.9885    8.3890   -4.0577 H       1  UNL1        0.0265
     41 H           3.7048    5.9850   -5.3674 H       1  UNL1        0.0268
     42 H           5.3066    6.6187   -5.4757 H       1  UNL1        0.0268
     43 H           5.5531    4.6482   -4.2817 H       1  UNL1        0.0314
     44 H           5.7665    5.9335   -3.1009 H       1  UNL1        0.0314
     45 H           2.4138   -1.4309    5.4376 H       1  UNL1        0.0638
     46 H          -0.0699   -1.3924    5.4874 H       1  UNL1        0.0619
     47 H          -1.3321   -0.0438    3.9096 H       1  UNL1        0.0654
@<TRIPOS>BOND
     1     1    27    1
     2     1    28    1
     3     1    29    1
     4     2     1    1
     5     3     2    1
     6     4     3   ar
     7     5     4   ar
     8     6     5   ar
     9     6    30    1
    10     7     6   ar
    11     7    31    1
    12     8     7   ar
    13     8     4   ar
    14     9     8    1
    15     9    32    1
    16    10     9    2
    17    11    10    1
    18    12    11   ar
    19    13    12    1
    20    14    13    3
    21    15    12   ar
    22    16    15   ar
    23    17    16    1
    24    17    33    1
    25    17    34    1
    26    18    17    1
    27    18    35    1
    28    18    36    1
    29    19    18    1
    30    19    37    1
    31    19    38    1
    32    20    19    1
    33    20    39    1
    34    20    40    1
    35    21    20    1
    36    21    41    1
    37    21    42    1
    38    22    21    1
    39    22    15    1
    40    22    43    1
    41    22    44    1
    42    23    16   ar
    43    23    11   ar
    44    24     5   ar
    45    24    45    1
    46    25    24   ar
    47    25    46    1
    48    26    25   ar
    49    26     3   ar
    50    26    47    1
