@<TRIPOS>MOLECULE
mol_204_akc_cbdd12112
>199.sdf
 36 38 0 0 0
SMALL
GASTEIGER

@<TRIPOS>ATOM
      1 C           2.2820    4.2329   -2.5871 C.3     1  UNL1        0.0788
      2 O           2.7084    2.8732   -2.5126 O.3     1  UNL1       -0.4945
      3 C           2.5546    2.2356   -1.3110 C.ar    1  UNL1        0.1287
      4 C           2.0902    2.8634   -0.1430 C.ar    1  UNL1       -0.0193
      5 C           1.9586    2.1444    1.0482 C.ar    1  UNL1       -0.0583
      6 C           2.2848    0.7932    1.0927 C.ar    1  UNL1       -0.0609
      7 C           2.7479    0.1554   -0.0543 C.ar    1  UNL1       -0.0496
      8 C           2.8908    0.8694   -1.2525 C.ar    1  UNL1        0.0362
      9 C           3.4136    0.1654   -2.4470 C.2     1  UNL1        0.0562
     10 N           3.7241   -1.0982   -2.4385 N.2     1  UNL1       -0.1898
     11 N           4.2253   -1.5440   -3.6210 N.pl3   1  UNL1       -0.2371
     12 C           4.5528   -2.9260   -3.7904 C.ar    1  UNL1        0.0589
     13 C           5.6077   -3.2073   -4.6741 C.ar    1  UNL1       -0.0204
     14 C           5.9176   -4.5190   -4.9635 C.ar    1  UNL1        0.0301
     15 N           5.2191   -5.5659   -4.4993 N.ar    1  UNL1       -0.2548
     16 C           4.1630   -5.3203   -3.7149 C.ar    1  UNL1        0.0742
     17 C           3.3679   -6.4080   -3.3951 C.ar    1  UNL1       -0.0173
     18 C           2.2130   -6.2589   -2.6349 C.ar    1  UNL1        0.0430
     19 CL          1.1607   -7.5994   -2.4021 Cl      1  UNL1       -0.0835
     20 C           1.8813   -5.0211   -2.1077 C.ar    1  UNL1       -0.0426
     21 C           2.6733   -3.9154   -2.4169 C.ar    1  UNL1       -0.0494
     22 C           3.7973   -4.0218   -3.2744 C.ar    1  UNL1        0.0230
     23 H           1.2185    4.3305   -2.3545 H       1  UNL1        0.0660
     24 H           2.8881    4.8718   -1.9384 H       1  UNL1        0.0660
     25 H           2.4271    4.5774   -3.6178 H       1  UNL1        0.0660
     26 H           1.8268    3.9163   -0.1239 H       1  UNL1        0.0654
     27 H           1.6006    2.6450    1.9447 H       1  UNL1        0.0619
     28 H           2.1822    0.2351    2.0202 H       1  UNL1        0.0618
     29 H           3.0118   -0.9000   -0.0090 H       1  UNL1        0.0625
     30 H           3.5353    0.7640   -3.3684 H       1  UNL1        0.0852
     31 H           4.9359   -0.9399   -4.0397 H       1  UNL1        0.1744
     32 H           6.1746   -2.4151   -5.1479 H       1  UNL1        0.0652
     33 H           6.7449   -4.7676   -5.6216 H       1  UNL1        0.0830
     34 H           3.6342   -7.3853   -3.7894 H       1  UNL1        0.0653
     35 H           0.9966   -4.8970   -1.4908 H       1  UNL1        0.0632
     36 H           2.3783   -2.9524   -2.0092 H       1  UNL1        0.0625
@<TRIPOS>BOND
     1     1    23    1
     2     1    24    1
     3     1    25    1
     4     2     1    1
     5     3     2    1
     6     4     3   ar
     7     4    26    1
     8     5     4   ar
     9     5    27    1
    10     6     5   ar
    11     6    28    1
    12     7     6   ar
    13     7    29    1
    14     8     7   ar
    15     8     3   ar
    16     9     8    1
    17     9    30    1
    18    10     9    2
    19    11    10    1
    20    11    31    1
    21    12    11    1
    22    13    12   ar
    23    13    32    1
    24    14    13   ar
    25    14    33    1
    26    15    14   ar
    27    16    15   ar
    28    17    16   ar
    29    17    34    1
    30    18    17   ar
    31    19    18    1
    32    20    18   ar
    33    20    35    1
    34    21    20   ar
    35    21    36    1
    36    22    21   ar
    37    22    12   ar
    38    22    16   ar
