@<TRIPOS>MOLECULE
mol_205_akc_jejmech2019111742
>200.sdf
 26 27 0 0 0
SMALL
GASTEIGER

@<TRIPOS>ATOM
      1 O           1.4555   -0.2580    0.2428 O.co2   1  UNL1       -0.5756
      2 N           2.4626    0.3322   -0.1696 N.pl3   1  UNL1        0.0870
      3 O           2.9302    0.2394   -1.3128 O.2     1  UNL1        0.0420
      4 C           3.1315    1.1915    0.7727 C.ar    1  UNL1        0.3116
      5 C           2.7716    1.3926    2.0868 C.ar    1  UNL1        0.0241
      6 C           3.6522    2.3110    2.7261 C.ar    1  UNL1       -0.0393
      7 C           4.6427    2.7765    1.8785 C.ar    1  UNL1        0.0382
      8 S           4.5062    2.0906    0.3187 S.2     1  UNL1       -0.0138
      9 C           5.6933    3.7203    2.1883 C.2     1  UNL1        0.0596
     10 N           5.7249    4.2118    3.3822 N.2     1  UNL1       -0.1869
     11 N           6.7033    5.0990    3.7086 N.am    1  UNL1       -0.2004
     12 C           6.7236    5.6006    5.0098 C.2     1  UNL1        0.3005
     13 O           5.8963    5.3096    5.8719 O.2     1  UNL1       -0.2650
     14 C           7.8590    6.5394    5.3065 C.ar    1  UNL1        0.2173
     15 N           8.7092    6.8257    4.2904 N.ar    1  UNL1       -0.2318
     16 C           9.7256    7.6510    4.6144 C.ar    1  UNL1        0.0315
     17 C           9.9192    8.1763    5.8746 C.ar    1  UNL1       -0.0254
     18 C           8.9928    7.8177    6.8245 C.ar    1  UNL1        0.0315
     19 N           7.9562    7.0058    6.5694 N.ar    1  UNL1       -0.2318
     20 H           1.9269    0.9146    2.5708 H       1  UNL1        0.0691
     21 H           3.5687    2.6259    3.7624 H       1  UNL1        0.0631
     22 H           6.4303    3.9941    1.4118 H       1  UNL1        0.0857
     23 H           7.4239    5.3802    3.0480 H       1  UNL1        0.1777
     24 H          10.4115    7.8890    3.8056 H       1  UNL1        0.0831
     25 H          10.7487    8.8304    6.1071 H       1  UNL1        0.0648
     26 H           9.0580    8.1786    7.8474 H       1  UNL1        0.0831
@<TRIPOS>UNITY_ATOM_ATTR
1 1
charge -1
2 1
charge 1
@<TRIPOS>BOND
     1     2     1    1
     2     3     2    2
     3     4     2    1
     4     5     4   ar
     5     5    20    1
     6     6     5   ar
     7     6    21    1
     8     7     6   ar
     9     8     7   ar
    10     8     4   ar
    11     9     7    1
    12     9    22    1
    13    10     9    2
    14    11    10    1
    15    11    23    1
    16    12    11   am
    17    13    12    2
    18    14    12    1
    19    15    14   ar
    20    16    15   ar
    21    16    24    1
    22    17    16   ar
    23    17    25    1
    24    18    17   ar
    25    18    26    1
    26    19    18   ar
    27    19    14   ar
