@<TRIPOS>MOLECULE
mol_206_akc_jphp1316
>201.sdf
 45 44 0 0 0
SMALL
GASTEIGER

@<TRIPOS>ATOM
      1 C           3.9277   -0.3727   -3.6946 C.3     1  UNL1       -0.0653
      2 C           5.4006    0.0069   -3.6668 C.3     1  UNL1       -0.0559
      3 C           5.5630    1.5151   -3.8332 C.3     1  UNL1       -0.0533
      4 C           7.0282    1.9493   -3.8170 C.3     1  UNL1       -0.0529
      5 C           7.1794    3.4672   -3.9710 C.3     1  UNL1       -0.0479
      6 C           6.5357    4.3046   -2.8500 C.3     1  UNL1       -0.0089
      7 C           6.9812    3.9556   -1.4094 C.3     1  UNL1       -0.0118
      8 C           6.3169    4.8204   -0.3386 C.3     1  UNL1        0.0559
      9 S           4.5218    4.6346   -0.2832 S.3     1  UNL1       -0.0210
     10 S           4.1947    5.8655    1.3950 S.3     1  UNL1       -0.0638
     11 O           4.9321    5.1325    2.4146 O.co2   1  UNL1       -0.2817
     12 O           4.8216    7.1039    0.9525 O.2     1  UNL1       -0.3610
     13 O           2.7450    5.8697    1.5092 O.2     1  UNL1       -0.3610
     14 N           8.4917    4.1600   -1.3510 N.4     1  UNL1        0.2317
     15 C           9.2520    3.7134   -0.1304 C.3     1  UNL1       -0.0255
     16 C           9.0316    2.2259    0.1172 C.3     1  UNL1       -0.0216
     17 C          10.7411    4.0537   -0.3414 C.3     1  UNL1       -0.0128
     18 C          11.4032    3.3968   -1.5494 C.3     1  UNL1       -0.0602
     19 H           3.8064   -1.4515   -3.5596 H       1  UNL1        0.0230
     20 H           3.3785    0.1347   -2.8938 H       1  UNL1        0.0230
     21 H           3.4715   -0.0935   -4.6494 H       1  UNL1        0.0230
     22 H           5.8394   -0.3134   -2.7145 H       1  UNL1        0.0263
     23 H           5.9301   -0.5225   -4.4667 H       1  UNL1        0.0263
     24 H           5.1053    1.8318   -4.7781 H       1  UNL1        0.0265
     25 H           5.0146    2.0121   -3.0258 H       1  UNL1        0.0265
     26 H           7.5172    1.6064   -2.8985 H       1  UNL1        0.0265
     27 H           7.5590    1.4612   -4.6444 H       1  UNL1        0.0265
     28 H           8.2435    3.7122   -4.0604 H       1  UNL1        0.0267
     29 H           6.7311    3.7720   -4.9250 H       1  UNL1        0.0267
     30 H           6.7476    5.3633   -3.0495 H       1  UNL1        0.0320
     31 H           5.4490    4.2016   -2.9385 H       1  UNL1        0.0320
     32 H           6.7975    2.8970   -1.2087 H       1  UNL1        0.0859
     33 H           6.7024    4.5342    0.6436 H       1  UNL1        0.0447
     34 H           6.5699    5.8729   -0.5017 H       1  UNL1        0.0447
     35 H           8.9034    3.6845   -2.1579 H       1  UNL1        0.2019
     36 H           8.6686    5.1662   -1.4897 H       1  UNL1        0.2019
     37 H           8.8819    4.2996    0.7163 H       1  UNL1        0.0848
     38 H           9.1667    1.6323   -0.7929 H       1  UNL1        0.0284
     39 H           9.7303    1.8519    0.8734 H       1  UNL1        0.0284
     40 H           8.0214    2.0360    0.4938 H       1  UNL1        0.0284
     41 H          10.8540    5.1414   -0.4344 H       1  UNL1        0.0317
     42 H          11.2974    3.7631    0.5581 H       1  UNL1        0.0317
     43 H          11.2775    2.3103   -1.5423 H       1  UNL1        0.0232
     44 H          11.0015    3.7858   -2.4901 H       1  UNL1        0.0232
     45 H          12.4779    3.6058   -1.5456 H       1  UNL1        0.0232
@<TRIPOS>UNITY_ATOM_ATTR
11 1
charge -1
14 1
charge 1
@<TRIPOS>BOND
     1     1    19    1
     2     1    20    1
     3     1    21    1
     4     2     1    1
     5     2    22    1
     6     2    23    1
     7     3     2    1
     8     3    24    1
     9     3    25    1
    10     4     3    1
    11     4    26    1
    12     4    27    1
    13     5     4    1
    14     5    28    1
    15     5    29    1
    16     6     5    1
    17     6    30    1
    18     6    31    1
    19     8     7    1
    20     8    33    1
    21     8    34    1
    22     9     8    1
    23    10     9    1
    24    11    10    1
    25    12    10    2
    26    13    10    2
    27    14     7    1
    28    14    35    1
    29    14    36    1
    30    15    14    1
    31    15    37    1
    32    16    15    1
    33    16    38    1
    34    16    39    1
    35    16    40    1
    36    17    15    1
    37    17    41    1
    38    17    42    1
    39    18    17    1
    40    18    43    1
    41    18    44    1
    42    18    45    1
    43     7    32    1
    44     7     6    1
