@<TRIPOS>MOLECULE
mol_208_akc_biom9110643
>203.sdf
 35 36 0 0 0
SMALL
GASTEIGER

@<TRIPOS>ATOM
      1 N           3.4499    0.4296    1.1800 N.am    1  UNL1       -0.3394
      2 C           2.6225   -0.0561    0.2277 C.2     1  UNL1        0.1473
      3 S           0.9816   -0.1482    0.4498 S.2     1  UNL1       -0.0174
      4 N           3.2322   -0.4636   -0.9289 N.am    1  UNL1       -0.2180
      5 N           4.5908   -0.4440   -1.0415 N.2     1  UNL1       -0.1806
      6 C           5.1445   -0.8128   -2.1594 C.2     1  UNL1        0.0890
      7 C           4.4201   -1.1856   -3.4231 C.2     1  UNL1       -0.0337
      8 C           4.8460   -2.1927   -4.2042 C.2     1  UNL1       -0.0525
      9 C           4.3077   -2.5776   -5.5205 C.ar    1  UNL1       -0.0250
     10 C           3.4947   -1.7415   -6.2968 C.ar    1  UNL1       -0.0546
     11 C           3.0890   -2.1306   -7.5786 C.ar    1  UNL1       -0.0612
     12 C           3.4971   -3.3547   -8.1031 C.ar    1  UNL1       -0.0617
     13 C           4.3103   -4.1932   -7.3471 C.ar    1  UNL1       -0.0612
     14 C           4.7133   -3.8059   -6.0665 C.ar    1  UNL1       -0.0546
     15 C           6.6468   -0.8406   -2.1967 C.ar    1  UNL1        0.0019
     16 C           7.3412   -1.1736   -1.0256 C.ar    1  UNL1       -0.0525
     17 C           8.7346   -1.2522   -1.0327 C.ar    1  UNL1       -0.0611
     18 C           9.4421   -0.9961   -2.2067 C.ar    1  UNL1       -0.0617
     19 C           8.7609   -0.6358   -3.3680 C.ar    1  UNL1       -0.0611
     20 C           7.3677   -0.5414   -3.3610 C.ar    1  UNL1       -0.0525
     21 H           3.1090    0.7389    2.0795 H       1  UNL1        0.1440
     22 H           4.4418    0.4264    0.9713 H       1  UNL1        0.1440
     23 H           2.6559   -0.8831   -1.6501 H       1  UNL1        0.1762
     24 H           3.5480   -0.5887   -3.6604 H       1  UNL1        0.0640
     25 H           5.7013   -2.7870   -3.8845 H       1  UNL1        0.0624
     26 H           3.1797   -0.7672   -5.9348 H       1  UNL1        0.0623
     27 H           2.4623   -1.4700   -8.1727 H       1  UNL1        0.0618
     28 H           3.1884   -3.6511   -9.1023 H       1  UNL1        0.0618
     29 H           4.6400   -5.1454   -7.7548 H       1  UNL1        0.0618
     30 H           5.3606   -4.4751   -5.5032 H       1  UNL1        0.0623
     31 H           6.7999   -1.3863   -0.1064 H       1  UNL1        0.0624
     32 H           9.2674   -1.5171   -0.1228 H       1  UNL1        0.0618
     33 H          10.5268   -1.0707   -2.2143 H       1  UNL1        0.0618
     34 H           9.3138   -0.4293   -4.2813 H       1  UNL1        0.0618
     35 H           6.8617   -0.2390   -4.2739 H       1  UNL1        0.0624
@<TRIPOS>BOND
     1     1    21    1
     2     1    22    1
     3     2     1    1
     4     3     2    2
     5     4     2    1
     6     4    23    1
     7     5     4    1
     8     6     5    2
     9     7     6    1
    10     7    24    1
    11     8     7    2
    12     8    25    1
    13     9     8    1
    14    10     9   ar
    15    10    26    1
    16    11    10   ar
    17    11    27    1
    18    12    11   ar
    19    12    28    1
    20    13    12   ar
    21    13    29    1
    22    14    13   ar
    23    14     9   ar
    24    14    30    1
    25    15     6    1
    26    16    15   ar
    27    16    31    1
    28    17    16   ar
    29    17    32    1
    30    18    17   ar
    31    18    33    1
    32    19    18   ar
    33    19    34    1
    34    20    19   ar
    35    20    15   ar
    36    20    35    1
