@<TRIPOS>MOLECULE
mol_209_akc_jbjp201908002
>204.sdf
 30 32 0 0 0
SMALL
GASTEIGER

@<TRIPOS>ATOM
      1 O           1.9852    0.7428   -0.5719 O.3     1  UNL1       -0.4806
      2 C           3.2717    0.9994   -0.8803 C.2     1  UNL1        0.3051
      3 O           3.8263    2.0499   -0.5951 O.2     1  UNL1       -0.2510
      4 C           3.9696   -0.1406   -1.5653 C.3     1  UNL1        0.0502
      5 C           4.7304   -0.9586   -0.5325 C.3     1  UNL1        0.0017
      6 C           5.4370   -2.1202   -1.1694 C.ar    1  UNL1        0.0656
      7 C           6.5437   -2.0125   -2.0205 C.ar    1  UNL1        0.0691
      8 N           7.2426   -0.9039   -2.4426 N.ar    1  UNL1       -0.3527
      9 C           8.2247   -1.2493   -3.3384 C.ar    1  UNL1        0.0475
     10 C           8.1972   -2.6370   -3.4598 C.ar    1  UNL1        0.0075
     11 C           9.1229   -3.2540   -4.3264 C.ar    1  UNL1       -0.0520
     12 C          10.0295   -2.4620   -5.0412 C.ar    1  UNL1       -0.0611
     13 C          10.0274   -1.0762   -4.8997 C.ar    1  UNL1       -0.0598
     14 C           9.1259   -0.4415   -4.0413 C.ar    1  UNL1       -0.0378
     15 C           7.1434   -3.1192   -2.6191 C.ar    1  UNL1        0.0106
     16 C           6.6360   -4.3927   -2.3267 C.ar    1  UNL1       -0.0338
     17 C           5.5464   -4.4440   -1.4737 C.ar    1  UNL1        0.0286
     18 N           4.9468   -3.3651   -0.9228 N.ar    1  UNL1       -0.2578
     19 H           3.2474   -0.7496   -2.1211 H       1  UNL1        0.0381
     20 H           4.6377    0.2910   -2.3180 H       1  UNL1        0.0381
     21 H           5.4618   -0.3365   -0.0029 H       1  UNL1        0.0334
     22 H           4.0344   -1.3311    0.2302 H       1  UNL1        0.0334
     23 H           7.0484    0.0443   -2.1543 H       1  UNL1        0.1660
     24 H           9.1296   -4.3329   -4.4482 H       1  UNL1        0.0624
     25 H          10.7396   -2.9346   -5.7154 H       1  UNL1        0.0618
     26 H          10.7376   -0.4774   -5.4656 H       1  UNL1        0.0618
     27 H           9.1272    0.6385   -3.9331 H       1  UNL1        0.0638
     28 H           7.0649   -5.2934   -2.7480 H       1  UNL1        0.0639
     29 H           5.1051   -5.3999   -1.2034 H       1  UNL1        0.0830
     30 H           1.6753   -0.1450   -0.8351 H       1  UNL1        0.2951
@<TRIPOS>BOND
     1     2     1    1
     2     3     2    2
     3     4     2    1
     4     4    19    1
     5     4    20    1
     6     5     4    1
     7     5    21    1
     8     5    22    1
     9     6     5    1
    10     7     6   ar
    11     8     7   ar
    12     8    23    1
    13     9     8   ar
    14    10     9   ar
    15    11    10   ar
    16    11    24    1
    17    12    11   ar
    18    12    25    1
    19    13    12   ar
    20    13    26    1
    21    14    13   ar
    22    14     9   ar
    23    14    27    1
    24    15    10   ar
    25    15     7   ar
    26    16    15   ar
    27    16    28    1
    28    17    16   ar
    29    17    29    1
    30    18    17   ar
    31    18     6   ar
    32     1    30    1
