@<TRIPOS>MOLECULE
mol_20_akc_aac02529_15
>20.sdf
 54 59 0 0 0
SMALL
GASTEIGER

@<TRIPOS>ATOM
      1 O           3.0030   -5.5269    3.6775 O.2     1  UNL1        0.0000
      2 C           3.6420   -5.5170    2.6344 C.2     1  UNL1        0.0000
      3 C           3.5320   -6.6571    1.6911 C.ar    1  UNL1        0.0000
      4 C           2.6996   -7.7524    1.9886 C.ar    1  UNL1        0.0000
      5 C           2.6024   -8.8271    1.1049 C.ar    1  UNL1        0.0000
      6 C           3.3325   -8.8227   -0.0830 C.ar    1  UNL1        0.0000
      7 C           4.1604   -7.7413   -0.3949 C.ar    1  UNL1        0.0000
      8 C           4.2692   -6.6489    0.4871 C.ar    1  UNL1        0.0000
      9 C           5.1501   -5.4925    0.1651 C.2     1  UNL1        0.0000
     10 O           5.7838   -5.4822   -0.8811 O.2     1  UNL1        0.0000
     11 C           5.2693   -4.3549    1.1178 C.ar    1  UNL1        0.0000
     12 C           6.1191   -3.2639    0.8421 C.ar    1  UNL1        0.0000
     13 C           6.2364   -2.1977    1.7516 C.ar    1  UNL1        0.0000
     14 C           7.1821   -1.0562    1.4832 C.3     1  UNL1        0.0000
     15 SE          6.7972   -0.1416   -0.2020 Se      1  UNL1        0.0000
     16 SE          8.4304    1.5739    0.2035 Se      1  UNL1        0.0000
     17 C           9.9270    0.3541   -0.0870 C.3     1  UNL1        0.0000
     18 C          11.2550    1.0632   -0.0796 C.ar    1  UNL1        0.0000
     19 C          12.2065    0.7723    0.9104 C.ar    1  UNL1        0.0000
     20 C          13.4627    1.3807    0.8876 C.ar    1  UNL1        0.0000
     21 C          13.7976    2.2856   -0.1341 C.ar    1  UNL1        0.0000
     22 C          15.1545    2.8943   -0.1939 C.2     1  UNL1        0.0000
     23 O          15.9824    2.6266    0.6630 O.2     1  UNL1        0.0000
     24 C          15.5140    3.7976   -1.3185 C.ar    1  UNL1        0.0000
     25 C          16.8117    4.3331   -1.4271 C.ar    1  UNL1        0.0000
     26 C          17.1430    5.1737   -2.4931 C.ar    1  UNL1        0.0000
     27 C          16.1861    5.4946   -3.4556 C.ar    1  UNL1        0.0000
     28 C          14.8956    4.9729   -3.3601 C.ar    1  UNL1        0.0000
     29 C          14.5488    4.1187   -2.2980 C.ar    1  UNL1        0.0000
     30 C          13.1831    3.5442   -2.2122 C.2     1  UNL1        0.0000
     31 O          12.3468    3.8302   -3.0578 O.2     1  UNL1        0.0000
     32 C          12.8399    2.5976   -1.1228 C.ar    1  UNL1        0.0000
     33 C          11.5720    1.9875   -1.0833 C.ar    1  UNL1        0.0000
     34 C           5.4961   -2.2274    2.9404 C.ar    1  UNL1        0.0000
     35 C           4.6544   -3.3018    3.2227 C.ar    1  UNL1        0.0000
     36 C           4.5325   -4.3717    2.3209 C.ar    1  UNL1        0.0000
     37 H           2.1265   -7.7782    2.9063 H       1  UNL1        0.0000
     38 H           1.9626   -9.6671    1.3460 H       1  UNL1        0.0000
     39 H           3.2554   -9.6619   -0.7635 H       1  UNL1        0.0000
     40 H           4.7163   -7.7625   -1.3241 H       1  UNL1        0.0000
     41 H           6.6980   -3.2445   -0.0738 H       1  UNL1        0.0000
     42 H           7.1404   -0.3124    2.3077 H       1  UNL1        0.0000
     43 H           8.1932   -1.4972    1.4278 H       1  UNL1        0.0000
     44 H           9.9181   -0.3879    0.7306 H       1  UNL1        0.0000
     45 H           9.8109   -0.1645   -1.0624 H       1  UNL1        0.0000
     46 H          11.9827    0.0627    1.6975 H       1  UNL1        0.0000
     47 H          14.1784    1.1265    1.6599 H       1  UNL1        0.0000
     48 H          17.5727    4.0969   -0.6940 H       1  UNL1        0.0000
     49 H          18.1444    5.5762   -2.5753 H       1  UNL1        0.0000
     50 H          16.4443    6.1456   -4.2808 H       1  UNL1        0.0000
     51 H          14.1704    5.2312   -4.1213 H       1  UNL1        0.0000
     52 H          10.8384    2.2067   -1.8494 H       1  UNL1        0.0000
     53 H           5.5805   -1.4246    3.6622 H       1  UNL1        0.0000
     54 H           4.1047   -3.3000    4.1553 H       1  UNL1        0.0000
@<TRIPOS>BOND
     1     2     1    2
     2     3     2    1
     3     4     3   ar
     4     4    37    1
     5     5     4   ar
     6     5    38    1
     7     6     5   ar
     8     6    39    1
     9     7     6   ar
    10     7    40    1
    11     8     7   ar
    12     8     3   ar
    13     9     8    1
    14    10     9    2
    15    11     9    1
    16    12    11   ar
    17    12    41    1
    18    13    12   ar
    19    14    13    1
    20    14    42    1
    21    14    43    1
    22    15    14    1
    23    16    15    1
    24    17    16    1
    25    17    44    1
    26    17    45    1
    27    18    17    1
    28    19    18   ar
    29    19    46    1
    30    20    19   ar
    31    20    47    1
    32    21    20   ar
    33    22    21    1
    34    23    22    2
    35    24    22    1
    36    25    24   ar
    37    25    48    1
    38    26    25   ar
    39    26    49    1
    40    27    26   ar
    41    27    50    1
    42    28    27   ar
    43    28    51    1
    44    29    28   ar
    45    29    24   ar
    46    30    29    1
    47    31    30    2
    48    32    30    1
    49    32    21   ar
    50    33    32   ar
    51    33    18   ar
    52    33    52    1
    53    34    13   ar
    54    34    53    1
    55    35    34   ar
    56    35    54    1
    57    36    35   ar
    58    36     2    1
    59    36    11   ar
