@<TRIPOS>MOLECULE
mol_211_akc_jejmech201907010
>206.sdf
 57 61 0 0 0
SMALL
GASTEIGER

@<TRIPOS>ATOM
      1 F           0.6075   -0.2529    1.1819 F       1  UNL1       -0.2055
      2 C           1.9344   -0.1760    1.1371 C.ar    1  UNL1        0.1240
      3 C           2.5538    1.0430    1.3726 C.ar    1  UNL1       -0.0254
      4 C           3.9336    1.1455    1.3372 C.ar    1  UNL1       -0.0447
      5 C           4.6927   -0.0045    1.0749 C.ar    1  UNL1        0.0201
      6 S           6.4038   -0.1006    1.0074 S.2     1  UNL1       -0.0960
      7 C           6.3832   -1.7708    0.6854 C.ar    1  UNL1       -0.0155
      8 C           5.1085   -2.2984    0.5816 C.ar    1  UNL1       -0.0031
      9 C           4.1036   -1.2703    0.8267 C.ar    1  UNL1       -0.0004
     10 C           2.6881   -1.3105    0.8559 C.ar    1  UNL1       -0.0176
     11 C           4.9182   -3.7394    0.3061 C.ar    1  UNL1       -0.0168
     12 C           3.9138   -4.4854    0.8892 C.ar    1  UNL1       -0.0536
     13 C           3.7795   -5.8581    0.6270 C.ar    1  UNL1       -0.0530
     14 C           4.6804   -6.5245   -0.2160 C.ar    1  UNL1       -0.0029
     15 C           4.5719   -8.0042   -0.4580 C.3     1  UNL1       -0.0077
     16 N           3.7554   -8.3126   -1.6763 N.4     1  UNL1        0.2303
     17 C           3.6776   -9.7742   -2.0044 C.3     1  UNL1       -0.0319
     18 C           2.8628  -10.0182   -3.2643 C.3     1  UNL1        0.0029
     19 C           3.5277   -9.4976   -4.5629 C.3     1  UNL1        0.0139
     20 N           2.7138   -9.9070   -5.6732 N.pl3   1  UNL1       -0.3431
     21 C           2.8726   -9.5499   -7.0088 C.ar    1  UNL1        0.0378
     22 C           3.9767   -8.9209   -7.6433 C.ar    1  UNL1        0.0213
     23 C           5.2420   -8.6274   -7.1075 C.ar    1  UNL1       -0.0494
     24 C           6.0314   -7.6247   -7.6788 C.ar    1  UNL1       -0.0426
     25 C           5.5458   -6.9211   -8.7682 C.ar    1  UNL1        0.0430
     26 CL          6.3151   -5.4695   -9.2695 Cl      1  UNL1       -0.0835
     27 C           4.4410   -7.3846   -9.4482 C.ar    1  UNL1       -0.0173
     28 C           3.7194   -8.4621   -8.9574 C.ar    1  UNL1        0.0741
     29 N           2.8171   -9.0153   -9.7662 N.ar    1  UNL1       -0.2548
     30 C           1.9623   -9.8687   -9.1877 C.ar    1  UNL1        0.0300
     31 C           1.7963   -9.8621   -7.8330 C.ar    1  UNL1       -0.0221
     32 C           5.6919   -5.7741   -0.8316 C.ar    1  UNL1       -0.0530
     33 C           5.8091   -4.3983   -0.5899 C.ar    1  UNL1       -0.0536
     34 H           1.9599    1.9314    1.5976 H       1  UNL1        0.0646
     35 H           4.4270    2.0944    1.5134 H       1  UNL1        0.0630
     36 H           7.3319   -2.2791    0.5875 H       1  UNL1        0.0700
     37 H           2.1535   -2.2366    0.6523 H       1  UNL1        0.0653
     38 H           3.2379   -4.0255    1.6009 H       1  UNL1        0.0624
     39 H           2.9799   -6.3978    1.1315 H       1  UNL1        0.0622
     40 H           5.5648   -8.4429   -0.6097 H       1  UNL1        0.0866
     41 H           4.0984   -8.5104    0.3908 H       1  UNL1        0.0866
     42 H           2.8143   -7.9291   -1.5275 H       1  UNL1        0.2017
     43 H           4.1562   -7.7727   -2.4541 H       1  UNL1        0.2017
     44 H           4.6982  -10.1494   -2.1028 H       1  UNL1        0.0814
     45 H           3.1937  -10.2583   -1.1475 H       1  UNL1        0.0814
     46 H           2.7042  -11.0997   -3.3581 H       1  UNL1        0.0332
     47 H           1.8683   -9.5717   -3.1637 H       1  UNL1        0.0332
     48 H           3.6358   -8.4297   -4.5282 H       1  UNL1        0.0463
     49 H           4.5279   -9.9714   -4.6336 H       1  UNL1        0.0463
     50 H           1.7256  -10.0382   -5.4531 H       1  UNL1        0.1461
     51 H           5.6269   -9.1776   -6.2626 H       1  UNL1        0.0625
     52 H           6.9963   -7.3741   -7.2506 H       1  UNL1        0.0632
     53 H           4.0912   -6.8975  -10.3619 H       1  UNL1        0.0653
     54 H           1.4768  -10.5913   -9.8398 H       1  UNL1        0.0830
     55 H           0.7893   -9.7176   -7.4554 H       1  UNL1        0.0651
     56 H           6.4263   -6.2401   -1.4843 H       1  UNL1        0.0622
     57 H           6.6096   -3.8503   -1.0840 H       1  UNL1        0.0624
@<TRIPOS>UNITY_ATOM_ATTR
16 1
charge 1
@<TRIPOS>BOND
     1     2     1    1
     2     3     2   ar
     3     3    34    1
     4     4     3   ar
     5     4    35    1
     6     5     4   ar
     7     6     5   ar
     8     7     6   ar
     9     7    36    1
    10     8     7   ar
    11     9     8   ar
    12     9     5   ar
    13    10     9   ar
    14    10     2   ar
    15    10    37    1
    16    11     8    1
    17    12    11   ar
    18    12    38    1
    19    13    12   ar
    20    13    39    1
    21    14    13   ar
    22    15    14    1
    23    15    40    1
    24    15    41    1
    25    16    15    1
    26    16    42    1
    27    16    43    1
    28    17    16    1
    29    17    44    1
    30    17    45    1
    31    18    17    1
    32    18    46    1
    33    18    47    1
    34    19    18    1
    35    19    48    1
    36    19    49    1
    37    20    19    1
    38    20    50    1
    39    21    20    1
    40    22    21   ar
    41    23    22   ar
    42    23    51    1
    43    24    23   ar
    44    24    52    1
    45    25    24   ar
    46    26    25    1
    47    27    25   ar
    48    27    53    1
    49    28    27   ar
    50    28    22   ar
    51    29    28   ar
    52    30    29   ar
    53    30    54    1
    54    31    30   ar
    55    31    21   ar
    56    31    55    1
    57    32    14   ar
    58    32    56    1
    59    33    32   ar
    60    33    11   ar
    61    33    57    1
