@<TRIPOS>MOLECULE
mol_212_akc_jijantimicag201907013
>207.sdf
 42 44 0 0 0
SMALL
GASTEIGER

@<TRIPOS>ATOM
      1 C           3.0495    1.3467   -0.6354 C.3     1  UNL1        0.0672
      2 N           2.5952    0.0445   -0.1666 N.pl3   1  UNL1       -0.2356
      3 C           3.2002   -0.4521    1.0103 C.2     1  UNL1        0.3283
      4 N           4.0840    0.3201    1.6548 N.2     1  UNL1        0.0212
      5 C           4.7295   -0.1533    2.7008 C.cat   1  UNL1        0.3939
      6 N           5.6993    0.5619    3.3357 N.pl3   1  UNL1       -0.2268
      7 C           6.1309    1.8079    2.7169 C.3     1  UNL1        0.0841
      8 C           7.2722    1.6343    1.7316 C.ar    1  UNL1       -0.0157
      9 C           7.1163    0.8909    0.5537 C.ar    1  UNL1       -0.0523
     10 C           8.1613    0.7699   -0.3650 C.ar    1  UNL1       -0.0196
     11 C           9.3767    1.4133   -0.1455 C.ar    1  UNL1        0.1201
     12 O          10.3268    1.1892   -1.1024 O.3     1  UNL1       -0.4951
     13 C          11.3271    2.1882   -1.2458 C.3     1  UNL1        0.0788
     14 C           9.5452    2.1694    1.0133 C.ar    1  UNL1       -0.0196
     15 C           8.5010    2.2776    1.9441 C.ar    1  UNL1       -0.0523
     16 N           4.4623   -1.3187    3.2382 N.2     1  UNL1       -0.3477
     17 C           3.5420   -2.1071    2.6459 C.ar    1  UNL1        0.0852
     18 C           3.2385   -3.3533    3.1924 C.ar    1  UNL1       -0.0251
     19 C           2.2838   -4.2067    2.6229 C.ar    1  UNL1       -0.0586
     20 C           1.6125   -3.8245    1.4699 C.ar    1  UNL1       -0.0607
     21 C           1.8978   -2.5843    0.9058 C.ar    1  UNL1       -0.0436
     22 C           2.8592   -1.7197    1.4912 C.ar    1  UNL1        0.1012
     23 H           3.6445    1.2264   -1.5472 H       1  UNL1        0.0687
     24 H           2.1735    1.9527   -0.8873 H       1  UNL1        0.0687
     25 H           3.6417    1.9287    0.0771 H       1  UNL1        0.0687
     26 H           2.6950   -0.6615   -0.8903 H       1  UNL1        0.2911
     27 H           6.4439   -0.0165    3.6870 H       1  UNL1        0.2456
     28 H           5.3121    2.3631    2.2416 H       1  UNL1        0.0684
     29 H           6.4708    2.4580    3.5325 H       1  UNL1        0.0684
     30 H           6.1759    0.3962    0.3292 H       1  UNL1        0.0622
     31 H           8.0172    0.1773   -1.2647 H       1  UNL1        0.0654
     32 H          10.8794    3.1464   -1.5291 H       1  UNL1        0.0660
     33 H          11.9403    2.2882   -0.3458 H       1  UNL1        0.0660
     34 H          11.9915    1.8743   -2.0572 H       1  UNL1        0.0660
     35 H          10.4803    2.6724    1.2332 H       1  UNL1        0.0654
     36 H           8.6584    2.8765    2.8390 H       1  UNL1        0.0622
     37 H           3.7424   -3.6774    4.0990 H       1  UNL1        0.0651
     38 H           2.0654   -5.1645    3.0878 H       1  UNL1        0.0619
     39 H           0.8690   -4.4738    1.0212 H       1  UNL1        0.0618
     40 H           1.3559   -2.2755    0.0160 H       1  UNL1        0.0627
     41 H           5.2648   -1.7982    3.5137 H       1  UNL1        0.2241
     42 H           4.1546   -1.1029    4.1479 H       1  UNL1        0.2241
@<TRIPOS>BOND
     1     1    23    1
     2     1    24    1
     3     1    25    1
     4     2     1    1
     5     2    26    1
     6     3     2    1
     7     4     3    2
     8     5     4    1
     9     6     5    1
    10     6    27    1
    11     7     6    1
    12     7    28    1
    13     7    29    1
    14     8     7    1
    15     9     8   ar
    16     9    30    1
    17    10     9   ar
    18    10    31    1
    19    11    10   ar
    20    12    11    1
    21    13    12    1
    22    13    32    1
    23    13    33    1
    24    13    34    1
    25    14    11   ar
    26    14    35    1
    27    15    14   ar
    28    15     8   ar
    29    15    36    1
    30    16     5    2
    31    16    41    1
    32    17    16    1
    33    18    17   ar
    34    18    37    1
    35    19    18   ar
    36    19    38    1
    37    20    19   ar
    38    20    39    1
    39    21    20   ar
    40    21    40    1
    41    22    21   ar
    42    22     3    1
    43    22    17   ar
    44    16    42    1
