@<TRIPOS>MOLECULE
mol_214_akc_jejmech201906051
>209.sdf
 56 58 0 0 0
SMALL
GASTEIGER

@<TRIPOS>ATOM
      1 C           2.6815    4.5527    1.4340 C.3     1  UNL1        0.0790
      2 O           3.0004    3.3924    0.6752 O.3     1  UNL1       -0.4913
      3 C           3.3947    2.2780    1.3706 C.ar    1  UNL1        0.1658
      4 C           3.0387    2.0541    2.7094 C.ar    1  UNL1       -0.0069
      5 C           3.3730    0.8647    3.3837 C.ar    1  UNL1        0.0075
      6 C           4.0990   -0.1037    2.6723 C.ar    1  UNL1       -0.0069
      7 C           4.4378    0.0827    1.3277 C.ar    1  UNL1        0.1658
      8 O           5.1427   -0.8518    0.6058 O.3     1  UNL1       -0.4913
      9 C           4.8693   -2.2104    0.9308 C.3     1  UNL1        0.0790
     10 C           4.1101    1.2859    0.6769 C.ar    1  UNL1        0.2035
     11 O           4.4674    1.3546   -0.6501 O.3     1  UNL1       -0.4885
     12 C           4.9320    2.6197   -1.1046 C.3     1  UNL1        0.0791
     13 C           2.9399    0.6433    4.7790 C.ar    1  UNL1        0.0715
     14 C           2.6303   -0.6200    5.2749 C.ar    1  UNL1       -0.0350
     15 C           2.1937   -0.7462    6.5890 C.ar    1  UNL1       -0.0458
     16 C           2.0726    0.3910    7.3915 C.ar    1  UNL1        0.0592
     17 C           1.5406    0.2280    8.7622 C.2     1  UNL1        0.2618
     18 O           0.6309    0.9362    9.1745 O.2     1  UNL1       -0.2686
     19 N           2.0938   -0.8164    9.4837 N.am    1  UNL1       -0.2311
     20 N           1.3352   -1.3412   10.5280 N.am    1  UNL1       -0.2453
     21 C           1.7224   -2.4479   11.2459 C.2     1  UNL1        0.1510
     22 S           3.2552   -3.1170   11.2102 S.2     1  UNL1       -0.0171
     23 N           0.7690   -2.9910   12.0676 N.am    1  UNL1       -0.2958
     24 C          -0.6271   -3.0302   11.8541 C.ar    1  UNL1        0.0326
     25 C          -1.2012   -2.8643   10.5869 C.ar    1  UNL1       -0.0405
     26 C          -2.5828   -2.9438   10.4200 C.ar    1  UNL1       -0.0600
     27 C          -3.4039   -3.1883   11.5181 C.ar    1  UNL1       -0.0616
     28 C          -2.8384   -3.3798   12.7781 C.ar    1  UNL1       -0.0600
     29 C          -1.4515   -3.3203   12.9439 C.ar    1  UNL1       -0.0405
     30 C           2.3798    1.6317    6.8384 C.ar    1  UNL1        0.0510
     31 C           2.2223    2.9262    7.5796 C.3     1  UNL1       -0.0216
     32 N           2.8109    1.7546    5.5493 N.ar    1  UNL1       -0.2511
     33 H           1.7455    4.4226    1.9856 H       1  UNL1        0.0660
     34 H           3.5040    4.8275    2.1030 H       1  UNL1        0.0660
     35 H           2.5328    5.3774    0.7302 H       1  UNL1        0.0660
     36 H           2.4558    2.7917    3.2552 H       1  UNL1        0.0662
     37 H           4.4200   -1.0061    3.1824 H       1  UNL1        0.0662
     38 H           5.4171   -2.5100    1.8300 H       1  UNL1        0.0660
     39 H           3.7952   -2.3940    1.0497 H       1  UNL1        0.0660
     40 H           5.2242   -2.8322    0.1035 H       1  UNL1        0.0660
     41 H           4.0984    3.2129   -1.4919 H       1  UNL1        0.0660
     42 H           5.4872    3.1684   -0.3357 H       1  UNL1        0.0660
     43 H           5.6161    2.4414   -1.9402 H       1  UNL1        0.0660
     44 H           2.6842   -1.5035    4.6472 H       1  UNL1        0.0639
     45 H           1.9079   -1.7282    6.9574 H       1  UNL1        0.0626
     46 H           2.8266   -1.4171    9.1134 H       1  UNL1        0.1731
     47 H           0.4954   -0.8192   10.7860 H       1  UNL1        0.1718
     48 H           1.1252   -3.5624   12.8253 H       1  UNL1        0.1539
     49 H          -0.5884   -2.7275    9.7021 H       1  UNL1        0.0636
     50 H          -3.0162   -2.8237    9.4314 H       1  UNL1        0.0618
     51 H          -4.4818   -3.2395   11.3887 H       1  UNL1        0.0618
     52 H          -3.4797   -3.5747   13.6336 H       1  UNL1        0.0618
     53 H          -1.0326   -3.4692   13.9349 H       1  UNL1        0.0636
     54 H           2.9494    3.6586    7.2117 H       1  UNL1        0.0293
     55 H           1.2182    3.3286    7.4151 H       1  UNL1        0.0293
     56 H           2.3989    2.8140    8.6527 H       1  UNL1        0.0293
@<TRIPOS>BOND
     1     1    33    1
     2     1    34    1
     3     1    35    1
     4     2     1    1
     5     3     2    1
     6     4     3   ar
     7     4    36    1
     8     5     4   ar
     9     6     5   ar
    10     6    37    1
    11     7     6   ar
    12     8     7    1
    13     9     8    1
    14     9    38    1
    15     9    39    1
    16     9    40    1
    17    10     7   ar
    18    10     3   ar
    19    11    10    1
    20    12    11    1
    21    12    41    1
    22    12    42    1
    23    12    43    1
    24    13     5    1
    25    14    13   ar
    26    14    44    1
    27    15    14   ar
    28    15    45    1
    29    16    15   ar
    30    17    16    1
    31    18    17    2
    32    19    17   am
    33    19    46    1
    34    20    19    1
    35    20    47    1
    36    21    20    1
    37    22    21    2
    38    23    21    1
    39    23    48    1
    40    24    23    1
    41    25    24   ar
    42    25    49    1
    43    26    25   ar
    44    26    50    1
    45    27    26   ar
    46    27    51    1
    47    28    27   ar
    48    28    52    1
    49    29    28   ar
    50    29    24   ar
    51    29    53    1
    52    30    16   ar
    53    31    30    1
    54    31    54    1
    55    31    55    1
    56    31    56    1
    57    32    30   ar
    58    32    13   ar
