@<TRIPOS>MOLECULE
mol_215_akc_acsjnatprod9b00632
>210.sdf
 51 54 0 0 0
SMALL
GASTEIGER

@<TRIPOS>ATOM
      1 O           1.0847   -0.2713    0.0827 O.3     1  UNL1       -0.5065
      2 C           2.4453   -0.1746    0.0412 C.ar    1  UNL1        0.1238
      3 C           3.1690   -1.3556   -0.0749 C.ar    1  UNL1        0.0218
      4 C           4.5563   -1.2940   -0.1600 C.ar    1  UNL1        0.1271
      5 O           5.2939   -2.4397   -0.2625 O.3     1  UNL1       -0.5063
      6 C           5.2265   -0.0657   -0.1385 C.ar    1  UNL1        0.0395
      7 C           6.7230   -0.0142   -0.3187 C.3     1  UNL1        0.0204
      8 C           7.1970    1.4231   -0.5367 C.3     1  UNL1        0.1483
      9 O           6.8582    1.8744   -1.8767 O.3     1  UNL1       -0.4534
     10 C           7.6422    1.4609   -2.8947 C.2     1  UNL1        0.3398
     11 O           8.5561    0.6527   -2.8134 O.2     1  UNL1       -0.2449
     12 C           7.3188    2.2087   -4.1392 C.ar    1  UNL1        0.0661
     13 C           8.0361    1.8870   -5.3076 C.ar    1  UNL1       -0.0023
     14 C           7.8537    2.6489   -6.4581 C.ar    1  UNL1        0.1628
     15 O           8.5427    2.3996   -7.6116 O.3     1  UNL1       -0.5032
     16 C           6.9713    3.7226   -6.4530 C.ar    1  UNL1        0.2006
     17 O           6.8126    4.5018   -7.5663 O.3     1  UNL1       -0.5009
     18 C           6.2510    4.0304   -5.3073 C.ar    1  UNL1        0.1628
     19 O           5.4107    5.1053   -5.2960 O.3     1  UNL1       -0.5032
     20 C           6.4007    3.2732   -4.1531 C.ar    1  UNL1       -0.0023
     21 C           6.4540    2.2949    0.5027 C.3     1  UNL1        0.1624
     22 O           5.0496    2.3550    0.1953 O.3     1  UNL1       -0.4800
     23 C           4.4805    1.1077    0.0615 C.ar    1  UNL1        0.1318
     24 C           3.0876    1.0582    0.1208 C.ar    1  UNL1        0.0221
     25 C           7.0114    3.7031    0.6796 C.ar    1  UNL1        0.0034
     26 C           7.4179    4.5012   -0.4065 C.ar    1  UNL1       -0.0095
     27 C           8.0324    5.7298   -0.1864 C.ar    1  UNL1        0.1623
     28 O           8.5109    6.4917   -1.2181 O.3     1  UNL1       -0.5032
     29 C           8.2038    6.2065    1.1039 C.ar    1  UNL1        0.2006
     30 O           8.8223    7.4069    1.3260 O.3     1  UNL1       -0.5009
     31 C           7.7575    5.4613    2.1831 C.ar    1  UNL1        0.1623
     32 O           7.9199    5.9319    3.4539 O.3     1  UNL1       -0.5032
     33 C           7.1639    4.2182    1.9836 C.ar    1  UNL1       -0.0095
     34 H           0.7115    0.6261    0.0905 H       1  UNL1        0.2921
     35 H           2.6401   -2.3025   -0.1112 H       1  UNL1        0.0691
     36 H           4.6997   -3.2025   -0.1663 H       1  UNL1        0.2921
     37 H           7.0095   -0.6457   -1.1668 H       1  UNL1        0.0353
     38 H           7.1904   -0.4177    0.5874 H       1  UNL1        0.0353
     39 H           8.2819    1.4942   -0.3957 H       1  UNL1        0.0778
     40 H           8.7400    1.0585   -5.2945 H       1  UNL1        0.0663
     41 H           9.1356    1.6416   -7.4614 H       1  UNL1        0.2923
     42 H           7.4061    4.0983   -8.2332 H       1  UNL1        0.2924
     43 H           5.4834    5.4914   -6.1931 H       1  UNL1        0.2923
     44 H           5.8185    3.5367   -3.2749 H       1  UNL1        0.0663
     45 H           6.5586    1.8098    1.4859 H       1  UNL1        0.0822
     46 H           2.5276    1.9800    0.2379 H       1  UNL1        0.0691
     47 H           7.2657    4.1615   -1.4212 H       1  UNL1        0.0659
     48 H           8.3927    5.9905   -2.0449 H       1  UNL1        0.2923
     49 H           9.0516    7.7236    0.4290 H       1  UNL1        0.2924
     50 H           8.3531    6.8019    3.3374 H       1  UNL1        0.2923
     51 H           6.8389    3.6505    2.8519 H       1  UNL1        0.0659
@<TRIPOS>BOND
     1     1    34    1
     2     2     1    1
     3     3     2   ar
     4     3    35    1
     5     4     3   ar
     6     5     4    1
     7     5    36    1
     8     6     4   ar
     9     7     6    1
    10     7    37    1
    11     7    38    1
    12     8     7    1
    13    10     9    1
    14    11    10    2
    15    12    10    1
    16    13    12   ar
    17    13    40    1
    18    14    13   ar
    19    15    14    1
    20    15    41    1
    21    16    14   ar
    22    17    16    1
    23    17    42    1
    24    18    16   ar
    25    19    18    1
    26    19    43    1
    27    20    18   ar
    28    20    12   ar
    29    20    44    1
    30    21     8    1
    31    21    45    1
    32    22    21    1
    33    23    22    1
    34    23     6   ar
    35    24    23   ar
    36    24     2   ar
    37    24    46    1
    38    25    21    1
    39    26    25   ar
    40    26    47    1
    41    27    26   ar
    42    28    27    1
    43    28    48    1
    44    29    27   ar
    45    30    29    1
    46    30    49    1
    47    31    29   ar
    48    32    31    1
    49    32    50    1
    50    33    31   ar
    51    33    25   ar
    52    33    51    1
    53     8     9    1
    54     8    39    1
