@<TRIPOS>MOLECULE
mol_217_akc_jbmc201907009
>212.sdf
 50 53 0 0 0
SMALL
GASTEIGER

@<TRIPOS>ATOM
      1 C          -1.5088    0.8783    1.9702 C.3     1  UNL1        0.0154
      2 N          -1.4117    0.5503    0.5638 N.ar    1  UNL1       -0.3066
      3 C          -1.9950   -0.5157   -0.0793 C.ar    1  UNL1        0.2157
      4 C          -1.7147   -0.3666   -1.4121 C.ar    1  UNL1        0.0774
      5 N          -0.9676    0.7633   -1.6138 N.ar    1  UNL1       -0.2315
      6 C          -0.7673    1.2888   -0.4163 C.ar    1  UNL1        0.1695
      7 C           0.0051    2.4782   -0.2005 C.ar    1  UNL1        0.1689
      8 N           0.7150    2.6973    0.8821 N.ar    1  UNL1       -0.1365
      9 N           1.3048    3.9378    0.8643 N.ar    1  UNL1       -0.1254
     10 C           1.0429    4.6395   -0.2239 C.ar    1  UNL1        0.1845
     11 S           0.0728    3.7468   -1.3461 S.2     1  UNL1       -0.0276
     12 N           1.4752    5.9346   -0.4101 N.pl3   1  UNL1       -0.3078
     13 C           2.5362    6.3701    0.4950 C.3     1  UNL1        0.0191
     14 C           2.4518    7.8704    0.6976 C.3     1  UNL1        0.0062
     15 C           2.3972    8.6710   -0.6021 C.3     1  UNL1       -0.0180
     16 C           1.4122    8.0806   -1.6150 C.3     1  UNL1        0.0062
     17 C           1.4230    6.5546   -1.7282 C.3     1  UNL1        0.0191
     18 N           3.7731    9.0019   -1.2206 N.4     1  UNL1        0.2375
     19 C           4.6508    9.7895   -0.2537 C.3     1  UNL1       -0.0316
     20 C           5.9119   10.2779   -0.9481 C.3     1  UNL1       -0.0123
     21 C           6.6810    9.1149   -1.5563 C.3     1  UNL1       -0.0434
     22 C           5.7986    8.3747   -2.5475 C.3     1  UNL1       -0.0123
     23 C           4.5197    7.8726   -1.8915 C.3     1  UNL1       -0.0316
     24 N          -2.7498   -1.5551    0.5394 N.pl3   1  UNL1        0.0750
     25 O          -2.8772   -1.5232    1.7661 O.2     1  UNL1       -0.1246
     26 O          -3.2168   -2.4108   -0.2149 O.2     1  UNL1       -0.1246
     27 H          -2.5656    0.9152    2.2472 H       1  UNL1        0.0457
     28 H          -0.9715    0.1184    2.5429 H       1  UNL1        0.0457
     29 H          -1.0851    1.8590    2.1814 H       1  UNL1        0.0457
     30 H          -2.0077   -1.0055   -2.2366 H       1  UNL1        0.0869
     31 H           3.5102    6.0615    0.1064 H       1  UNL1        0.0466
     32 H           2.4469    5.9131    1.4884 H       1  UNL1        0.0466
     33 H           3.2449    8.2015    1.3717 H       1  UNL1        0.0335
     34 H           1.5155    8.0708    1.2388 H       1  UNL1        0.0335
     35 H           2.0112    9.6675   -0.3464 H       1  UNL1        0.0852
     36 H           0.4039    8.3629   -1.2773 H       1  UNL1        0.0335
     37 H           1.5327    8.5380   -2.6036 H       1  UNL1        0.0335
     38 H           0.5126    6.2818   -2.2742 H       1  UNL1        0.0466
     39 H           2.2631    6.2023   -2.3333 H       1  UNL1        0.0466
     40 H           3.5587    9.6682   -1.9771 H       1  UNL1        0.2036
     41 H           4.9128    9.1294    0.5772 H       1  UNL1        0.0814
     42 H           4.0594   10.6353    0.1111 H       1  UNL1        0.0814
     43 H           6.5476   10.7981   -0.2228 H       1  UNL1        0.0317
     44 H           5.6541   11.0035   -1.7289 H       1  UNL1        0.0317
     45 H           7.5847    9.4797   -2.0561 H       1  UNL1        0.0269
     46 H           7.0052    8.4278   -0.7642 H       1  UNL1        0.0269
     47 H           5.5506    9.0367   -3.3865 H       1  UNL1        0.0317
     48 H           6.3476    7.5237   -2.9659 H       1  UNL1        0.0317
     49 H           3.8731    7.4636   -2.6680 H       1  UNL1        0.0814
     50 H           4.7480    7.1200   -1.1374 H       1  UNL1        0.0814
@<TRIPOS>UNITY_ATOM_ATTR
18 1
charge 1
@<TRIPOS>BOND
     1     1    27    1
     2     1    28    1
     3     1    29    1
     4     2     1    1
     5     3     2   ar
     6     4     3   ar
     7     4    30    1
     8     5     4   ar
     9     6     5   ar
    10     6     2   ar
    11     7     6    1
    12     8     7   ar
    13     9     8   ar
    14    10     9   ar
    15    11    10   ar
    16    11     7   ar
    17    12    10    1
    18    13    12    1
    19    13    31    1
    20    13    32    1
    21    14    13    1
    22    14    33    1
    23    14    34    1
    24    15    14    1
    25    15    35    1
    26    16    15    1
    27    16    36    1
    28    16    37    1
    29    17    16    1
    30    17    12    1
    31    17    38    1
    32    17    39    1
    33    18    15    1
    34    18    40    1
    35    19    18    1
    36    19    41    1
    37    19    42    1
    38    20    19    1
    39    20    43    1
    40    20    44    1
    41    21    20    1
    42    21    45    1
    43    21    46    1
    44    22    21    1
    45    22    47    1
    46    22    48    1
    47    23    22    1
    48    23    18    1
    49    23    49    1
    50    23    50    1
    51    24     3    1
    52    25    24    2
    53    26    24    2
