@<TRIPOS>MOLECULE
mol_218_akc_acsjmedchem9b00628
>213.sdf
 49 52 0 0 0
SMALL
GASTEIGER

@<TRIPOS>ATOM
      1 C           4.2666   -1.8496   -1.4747 C.3     1  UNL1       -0.0061
      2 C           3.6963   -0.8056   -0.5823 C.ar    1  UNL1        0.1116
      3 N           3.9789    0.4763   -0.6741 N.ar    1  UNL1       -0.2338
      4 C           3.2792    1.0960    0.3266 C.ar    1  UNL1        0.1255
      5 C           2.5519    0.1706    1.0289 C.ar    1  UNL1        0.3680
      6 N           2.7999   -1.0425    0.4551 N.ar    1  UNL1       -0.2674
      7 C           2.2655   -2.3621    0.8020 C.3     1  UNL1        0.0645
      8 C           0.9341   -2.6465    0.1025 C.3     1  UNL1        0.1076
      9 O           0.3485   -3.8722    0.5784 O.3     1  UNL1       -0.4902
     10 C          -0.9581   -4.0578    0.1861 C.ar    1  UNL1        0.1206
     11 C          -1.4948   -3.5631   -1.0030 C.ar    1  UNL1       -0.0193
     12 C          -2.8687   -3.6492   -1.2548 C.ar    1  UNL1       -0.0491
     13 C          -3.7455   -4.2207   -0.3186 C.ar    1  UNL1        0.0006
     14 C          -3.1763   -4.8410    0.8110 C.ar    1  UNL1       -0.0491
     15 C          -1.7930   -4.7608    1.0583 C.ar    1  UNL1       -0.0193
     16 C          -5.1611   -3.7945   -0.2968 C.ar    1  UNL1        0.0719
     17 N          -6.1737   -4.6980   -0.2833 N.ar    1  UNL1       -0.2467
     18 C          -7.4238   -4.2394    0.0191 C.ar    1  UNL1        0.0719
     19 C          -8.5661   -5.0288   -0.1272 C.ar    1  UNL1       -0.0357
     20 C          -9.8581   -4.5403    0.1421 C.ar    1  UNL1       -0.0597
     21 C         -10.0333   -3.2440    0.6043 C.ar    1  UNL1       -0.0611
     22 C          -8.9162   -2.4528    0.8301 C.ar    1  UNL1       -0.0523
     23 C          -7.6280   -2.9450    0.5367 C.ar    1  UNL1        0.0033
     24 C          -6.4954   -2.1622    0.7454 C.ar    1  UNL1       -0.0393
     25 C          -6.2352   -1.5741    2.1174 C.3     1  UNL1       -0.0390
     26 C          -5.3468   -2.4624    0.0412 C.ar    1  UNL1       -0.0322
     27 N           1.6839    0.4164    2.1362 N.pl3   1  UNL1        0.1004
     28 O           1.7131    1.5645    2.6102 O.co2   1  UNL1       -0.5747
     29 O           0.9656   -0.4971    2.5225 O.2     1  UNL1        0.0431
     30 H           4.8899   -2.5457   -0.9057 H       1  UNL1        0.0307
     31 H           3.4735   -2.4074   -1.9817 H       1  UNL1        0.0307
     32 H           4.8953   -1.3875   -2.2428 H       1  UNL1        0.0307
     33 H           3.3315    2.1658    0.4798 H       1  UNL1        0.0917
     34 H           3.0035   -3.1223    0.5208 H       1  UNL1        0.0528
     35 H           2.1908   -2.4377    1.8909 H       1  UNL1        0.0528
     36 H           0.2427   -1.8116    0.2720 H       1  UNL1        0.0714
     37 H           1.1280   -2.7347   -0.9733 H       1  UNL1        0.0714
     38 H          -0.8812   -3.0536   -1.7364 H       1  UNL1        0.0654
     39 H          -3.2721   -3.1555   -2.1368 H       1  UNL1        0.0625
     40 H          -3.8247   -5.2829    1.5668 H       1  UNL1        0.0625
     41 H          -1.3898   -5.1807    1.9763 H       1  UNL1        0.0654
     42 H          -8.4525   -6.0506   -0.4764 H       1  UNL1        0.0639
     43 H         -10.7252   -5.1741   -0.0215 H       1  UNL1        0.0618
     44 H         -11.0302   -2.8429    0.7832 H       1  UNL1        0.0618
     45 H          -9.0489   -1.4286    1.1729 H       1  UNL1        0.0624
     46 H          -5.8763   -2.4058    2.7463 H       1  UNL1        0.0278
     47 H          -5.4406   -0.8236    2.0881 H       1  UNL1        0.0278
     48 H          -7.1234   -1.1558    2.5873 H       1  UNL1        0.0278
     49 H          -4.4959   -1.7888    0.0838 H       1  UNL1        0.0642
@<TRIPOS>UNITY_ATOM_ATTR
27 1
charge 1
28 1
charge -1
@<TRIPOS>BOND
     1     1    30    1
     2     1    31    1
     3     1    32    1
     4     2     1    1
     5     3     2   ar
     6     4     3   ar
     7     4    33    1
     8     5     4   ar
     9     6     5   ar
    10     6     2   ar
    11     7     6    1
    12     7    34    1
    13     7    35    1
    14     8     7    1
    15     8    36    1
    16     8    37    1
    17     9     8    1
    18    10     9    1
    19    11    10   ar
    20    11    38    1
    21    12    11   ar
    22    12    39    1
    23    13    12   ar
    24    14    13   ar
    25    14    40    1
    26    15    14   ar
    27    15    10   ar
    28    15    41    1
    29    16    13    1
    30    17    16   ar
    31    18    17   ar
    32    19    18   ar
    33    19    42    1
    34    20    19   ar
    35    20    43    1
    36    21    20   ar
    37    21    44    1
    38    22    21   ar
    39    22    45    1
    40    23    22   ar
    41    23    18   ar
    42    24    23   ar
    43    25    24    1
    44    25    46    1
    45    25    47    1
    46    25    48    1
    47    26    24   ar
    48    26    16   ar
    49    26    49    1
    50    27     5    1
    51    28    27    1
    52    29    27    2
