@<TRIPOS>MOLECULE
mol_219_akc_jexppara201904003
>214.sdf
 30 31 0 0 0
SMALL
GASTEIGER

@<TRIPOS>ATOM
      1 CL         -1.9721   -0.3255   -0.0713 Cl      1  UNL1       -0.0835
      2 C          -0.2654   -0.1204   -0.0360 C.ar    1  UNL1        0.0411
      3 C           0.2731    1.1555    0.0463 C.ar    1  UNL1       -0.0416
      4 C           1.6605    1.3222    0.0784 C.ar    1  UNL1       -0.0391
      5 C           2.5279    0.2230    0.0299 C.ar    1  UNL1        0.0349
      6 N           3.9418    0.3367    0.0632 N.am    1  UNL1       -0.2681
      7 C           4.6518    1.5230    0.1304 C.2     1  UNL1        0.3233
      8 O           4.1528    2.6433    0.1771 O.2     1  UNL1       -0.2507
      9 N           6.0358    1.3456    0.1350 N.am    1  UNL1       -0.1904
     10 N           6.7748    2.4899    0.1358 N.2     1  UNL1       -0.1834
     11 C           8.0628    2.4536    0.1137 C.2     1  UNL1        0.0880
     12 C           8.7465    3.7212    0.0769 C.ar    1  UNL1        0.1501
     13 C           8.2418    5.0136    0.0825 C.ar    1  UNL1       -0.0125
     14 C           9.3449    5.8935   -0.0038 C.ar    1  UNL1        0.0086
     15 C          10.4508    5.0794   -0.0511 C.ar    1  UNL1        0.2802
     16 O          10.1132    3.7577    0.0017 O.2     1  UNL1       -0.4330
     17 N          11.8422    5.3878   -0.1526 N.pl3   1  UNL1        0.0926
     18 O          12.1342    6.5886   -0.2319 O.2     1  UNL1       -0.1231
     19 O          12.6438    4.4445   -0.1538 O.2     1  UNL1       -0.1231
     20 C           1.9680   -1.0587   -0.0557 C.ar    1  UNL1       -0.0391
     21 C           0.5759   -1.2292   -0.0884 C.ar    1  UNL1       -0.0416
     22 H          -0.3680    2.0322    0.0874 H       1  UNL1        0.0633
     23 H           2.0229    2.3427    0.1435 H       1  UNL1        0.0636
     24 H           4.4695   -0.5208    0.0245 H       1  UNL1        0.1564
     25 H           6.4795    0.4412    0.0657 H       1  UNL1        0.1788
     26 H           8.6503    1.5207    0.1117 H       1  UNL1        0.0883
     27 H           7.1895    5.2701    0.1314 H       1  UNL1        0.0656
     28 H           9.3319    6.9751   -0.0348 H       1  UNL1        0.0673
     29 H           2.5975   -1.9431   -0.0988 H       1  UNL1        0.0636
     30 H           0.1539   -2.2283   -0.1545 H       1  UNL1        0.0633
@<TRIPOS>BOND
     1     2     1    1
     2     3     2   ar
     3     3    22    1
     4     4     3   ar
     5     4    23    1
     6     5     4   ar
     7     6     5    1
     8     6    24    1
     9     7     6   am
    10     8     7    2
    11     9     7   am
    12     9    25    1
    13    10     9    1
    14    11    10    2
    15    11    26    1
    16    12    11    1
    17    13    12   ar
    18    13    27    1
    19    14    13   ar
    20    14    28    1
    21    15    14   ar
    22    16    15   ar
    23    16    12   ar
    24    17    15    1
    25    18    17    2
    26    19    17    2
    27    20     5   ar
    28    20    29    1
    29    21    20   ar
    30    21     2   ar
    31    21    30    1
