@<TRIPOS>MOLECULE
mol_21_akc_jejmech201509002
>21.sdf
 43 46 0 0 0
SMALL
GASTEIGER

@<TRIPOS>ATOM
      1 F           2.0904   -0.2482    0.2257 F       1  UNL1       -0.2055
      2 C           0.7574   -0.1303    0.1907 C.ar    1  UNL1        0.1234
      3 C           0.1844    1.0424   -0.2820 C.ar    1  UNL1       -0.0258
      4 C          -1.2082    1.1654   -0.3214 C.ar    1  UNL1       -0.0498
      5 C          -2.0315    0.1007    0.0731 C.ar    1  UNL1        0.0031
      6 C          -1.4269   -1.0633    0.5787 C.ar    1  UNL1       -0.0498
      7 C          -0.0352   -1.1795    0.6361 C.ar    1  UNL1       -0.0258
      8 C          -3.4867    0.1635   -0.0058 C.ar    1  UNL1        0.1033
      9 C          -4.2841    0.6729   -1.0253 C.ar    1  UNL1        0.1126
     10 I          -3.7245    1.4504   -2.8463 I       1  UNL1       -0.0212
     11 N          -5.5766    0.4193   -0.6402 N.ar    1  UNL1       -0.2900
     12 C          -6.8123    0.6424   -1.2262 C.ar    1  UNL1        0.0304
     13 C          -7.9007    0.1162   -0.6418 C.ar    1  UNL1        0.0464
     14 N          -7.8699   -0.6666    0.5015 N.ar    1  UNL1       -0.2353
     15 C          -6.7191   -0.8159    1.1209 C.ar    1  UNL1        0.1658
     16 N          -6.6756   -1.5886    2.2536 N.pl3   1  UNL1       -0.2883
     17 C          -7.7237   -2.4404    2.6834 C.3     1  UNL1        0.0370
     18 N          -7.8326   -3.5126    1.6636 N.4     1  UNL1        0.2518
     19 C          -6.6049   -4.4048    1.5917 C.3     1  UNL1       -0.0063
     20 C          -6.7875   -5.4517    0.4906 C.3     1  UNL1        0.0878
     21 O          -7.9736   -6.2203    0.7158 O.3     1  UNL1       -0.3693
     22 C          -9.1449   -5.3972    0.6938 C.3     1  UNL1        0.0878
     23 C          -9.0945   -4.3389    1.8041 C.3     1  UNL1       -0.0063
     24 C          -5.5101   -0.2610    0.5447 C.ar    1  UNL1        0.1795
     25 N          -4.2792   -0.4445    0.9649 N.ar    1  UNL1       -0.2234
     26 H           0.8229    1.8552   -0.6149 H       1  UNL1        0.0646
     27 H          -1.6289    2.1079   -0.6605 H       1  UNL1        0.0625
     28 H          -2.0384   -1.8921    0.9269 H       1  UNL1        0.0625
     29 H           0.4351   -2.0793    1.0199 H       1  UNL1        0.0646
     30 H          -6.8578    1.2325   -2.1340 H       1  UNL1        0.0829
     31 H          -8.8857    0.2932   -1.0721 H       1  UNL1        0.0845
     32 H          -5.7979   -1.5856    2.7680 H       1  UNL1        0.1525
     33 H          -7.5106   -2.9033    3.6519 H       1  UNL1        0.1040
     34 H          -8.6839   -1.9131    2.7392 H       1  UNL1        0.1040
     35 H          -7.9097   -2.9854    0.7828 H       1  UNL1        0.2052
     36 H          -6.5048   -4.8792    2.5739 H       1  UNL1        0.0838
     37 H          -5.7312   -3.7811    1.3822 H       1  UNL1        0.0838
     38 H          -5.9364   -6.1398    0.4923 H       1  UNL1        0.0613
     39 H          -6.8373   -4.9839   -0.4997 H       1  UNL1        0.0613
     40 H          -9.2419   -4.9335   -0.2950 H       1  UNL1        0.0613
     41 H         -10.0107   -6.0498    0.8426 H       1  UNL1        0.0613
     42 H          -9.9501   -3.6605    1.7376 H       1  UNL1        0.0838
     43 H          -9.0550   -4.8084    2.7931 H       1  UNL1        0.0838
@<TRIPOS>UNITY_ATOM_ATTR
18 1
charge 1
@<TRIPOS>BOND
     1     2     1    1
     2     3     2   ar
     3     3    26    1
     4     4     3   ar
     5     4    27    1
     6     5     4   ar
     7     6     5   ar
     8     6    28    1
     9     7     6   ar
    10     7     2   ar
    11     7    29    1
    12     8     5    1
    13     9     8   ar
    14    10     9    1
    15    11     9   ar
    16    12    11   ar
    17    12    30    1
    18    13    12   ar
    19    13    31    1
    20    14    13   ar
    21    15    14   ar
    22    16    15    1
    23    16    32    1
    24    17    16    1
    25    17    33    1
    26    17    34    1
    27    18    17    1
    28    18    35    1
    29    19    18    1
    30    19    36    1
    31    19    37    1
    32    20    19    1
    33    20    38    1
    34    20    39    1
    35    21    20    1
    36    22    21    1
    37    22    40    1
    38    22    41    1
    39    23    22    1
    40    23    18    1
    41    23    42    1
    42    23    43    1
    43    24    15   ar
    44    24    11   ar
    45    25    24   ar
    46    25     8   ar
