@<TRIPOS>MOLECULE
mol_220_akc_ardp201800299
>215.sdf
 46 49 0 0 0
SMALL
GASTEIGER

@<TRIPOS>ATOM
      1 F          -8.3487   -6.0894   -0.1249 F       1  UNL1       -0.2055
      2 C          -7.7315   -4.9012   -0.1202 C.ar    1  UNL1        0.1234
      3 C          -8.4911   -3.7374   -0.0846 C.ar    1  UNL1       -0.0258
      4 C          -7.8490   -2.4990   -0.0821 C.ar    1  UNL1       -0.0504
      5 C          -6.4496   -2.4370   -0.1167 C.ar    1  UNL1       -0.0050
      6 C          -5.7608   -1.1308   -0.1190 C.2     1  UNL1        0.0571
      7 N          -6.4255   -0.0194   -0.1191 N.2     1  UNL1       -0.1551
      8 N          -5.5669    1.0857   -0.1049 N.2     1  UNL1       -0.1297
      9 C          -6.2220    2.2114    0.0020 C.ar    1  UNL1        0.1754
     10 N          -7.6013    2.2751    0.0879 N.ar    1  UNL1       -0.2801
     11 N          -8.2731    3.4273   -0.2016 N.ar    1  UNL1       -0.2801
     12 C          -7.6829    4.6608    0.0114 C.ar    1  UNL1        0.1754
     13 N          -8.3679    5.7618    0.1693 N.2     1  UNL1       -0.1297
     14 N          -9.7469    5.5295    0.1593 N.2     1  UNL1       -0.1551
     15 C         -10.4073    6.6363    0.2715 C.2     1  UNL1        0.0571
     16 C         -11.8822    6.6463    0.3371 C.ar    1  UNL1       -0.0050
     17 C         -12.5970    5.4412    0.3240 C.ar    1  UNL1       -0.0504
     18 C         -13.9900    5.4589    0.3909 C.ar    1  UNL1       -0.0258
     19 C         -14.6549    6.6772    0.4703 C.ar    1  UNL1        0.1234
     20 F         -15.9926    6.6930    0.5299 F       1  UNL1       -0.2055
     21 C         -13.9537    7.8797    0.4900 C.ar    1  UNL1       -0.0258
     22 C         -12.5579    7.8682    0.4251 C.ar    1  UNL1       -0.0504
     23 C          -6.1943    4.7047    0.0836 C.ar    1  UNL1        0.0310
     24 C          -5.4742    3.5011    0.0501 C.ar    1  UNL1        0.0310
     25 C          -4.0765    3.5215    0.1177 C.ar    1  UNL1       -0.0503
     26 C          -3.4052    4.7388    0.2526 C.ar    1  UNL1       -0.0610
     27 C          -4.1234    5.9347    0.3094 C.ar    1  UNL1       -0.0610
     28 C          -5.5163    5.9219    0.2161 C.ar    1  UNL1       -0.0503
     29 C          -5.6917   -3.6132   -0.1482 C.ar    1  UNL1       -0.0504
     30 C          -6.3404   -4.8511   -0.1509 C.ar    1  UNL1       -0.0258
     31 H          -9.5742   -3.7998   -0.0597 H       1  UNL1        0.0646
     32 H          -8.4422   -1.5886   -0.0522 H       1  UNL1        0.0625
     33 H          -4.6552   -1.1396   -0.1193 H       1  UNL1        0.0854
     34 H          -8.0174    1.3811   -0.1749 H       1  UNL1        0.1884
     35 H          -9.2697    3.4768    0.0138 H       1  UNL1        0.1884
     36 H          -9.8901    7.6126    0.3283 H       1  UNL1        0.0854
     37 H         -12.0758    4.4893    0.2656 H       1  UNL1        0.0625
     38 H         -14.5562    4.5335    0.3824 H       1  UNL1        0.0646
     39 H         -14.5004    8.8153    0.5567 H       1  UNL1        0.0646
     40 H         -12.0140    8.8091    0.4439 H       1  UNL1        0.0625
     41 H          -3.5092    2.5947    0.0876 H       1  UNL1        0.0625
     42 H          -2.3205    4.7530    0.3274 H       1  UNL1        0.0618
     43 H          -3.5984    6.8790    0.4323 H       1  UNL1        0.0618
     44 H          -6.0672    6.8581    0.2602 H       1  UNL1        0.0625
     45 H          -4.6055   -3.5790   -0.1722 H       1  UNL1        0.0625
     46 H          -5.7737   -5.7767   -0.1775 H       1  UNL1        0.0646
@<TRIPOS>BOND
     1     2     1    1
     2     3     2   ar
     3     3    31    1
     4     4     3   ar
     5     4    32    1
     6     5     4   ar
     7     6     5    1
     8     6    33    1
     9     7     6    2
    10     8     7    1
    11     9     8    2
    12    10     9   ar
    13    10    34    1
    14    11    10   ar
    15    11    35    1
    16    12    11   ar
    17    13    12    2
    18    14    13    1
    19    15    14    2
    20    15    36    1
    21    16    15    1
    22    17    16   ar
    23    17    37    1
    24    18    17   ar
    25    18    38    1
    26    19    18   ar
    27    20    19    1
    28    21    19   ar
    29    21    39    1
    30    22    21   ar
    31    22    16   ar
    32    22    40    1
    33    23    12   ar
    34    24    23   ar
    35    24     9   ar
    36    25    24   ar
    37    25    41    1
    38    26    25   ar
    39    26    42    1
    40    27    26   ar
    41    27    43    1
    42    28    27   ar
    43    28    23   ar
    44    28    44    1
    45    29     5   ar
    46    29    45    1
    47    30    29   ar
    48    30     2   ar
    49    30    46    1
