@<TRIPOS>MOLECULE
mol_222_akc_jejmech201903032
>217.sdf
 46 48 0 0 0
SMALL
GASTEIGER

@<TRIPOS>ATOM
      1 I           5.8009   -5.6790   -1.9064 I       1  UNL1       -0.0438
      2 C           5.6123   -3.6896   -1.3453 C.ar    1  UNL1        0.0136
      3 C           4.8172   -3.3485   -0.2564 C.ar    1  UNL1       -0.0454
      4 C           4.6438   -2.0025    0.0783 C.ar    1  UNL1       -0.0222
      5 C           5.2578   -0.9853   -0.6699 C.ar    1  UNL1        0.0997
      6 N           5.0004    0.3507   -0.3241 N.pl3   1  UNL1       -0.2497
      7 C           5.7475    1.5343   -0.3062 C.2     1  UNL1        0.3209
      8 N           5.1389    2.6877   -0.4215 N.pl3   1  UNL1       -0.2777
      9 C           3.8002    2.9251   -0.9906 C.3     1  UNL1        0.0896
     10 C           2.7025    3.0060    0.0298 C.ar    1  UNL1       -0.0141
     11 C           2.9102    3.3268    1.3776 C.ar    1  UNL1       -0.0556
     12 C           1.8195    3.4929    2.2388 C.ar    1  UNL1       -0.0614
     13 C           0.5156    3.3538    1.7645 C.ar    1  UNL1       -0.0617
     14 C           0.2943    3.0407    0.4287 C.ar    1  UNL1       -0.0614
     15 C           1.3784    2.8680   -0.4309 C.ar    1  UNL1       -0.0556
     16 N           6.9717    1.4310   -0.1396 N.am    1  UNL1       -0.2829
     17 C           7.8233    2.5139    0.1525 C.2     1  UNL1        0.2789
     18 O           7.2490    3.4788    0.6269 O.2     1  UNL1       -0.2545
     19 C           9.2826    2.5208   -0.1292 C.ar    1  UNL1        0.0503
     20 C           9.9672    1.4096   -0.6376 C.ar    1  UNL1       -0.0483
     21 C          11.3355    1.5103   -0.9151 C.ar    1  UNL1       -0.0610
     22 C          12.0195    2.7035   -0.6825 C.ar    1  UNL1       -0.0617
     23 C          11.3448    3.8060   -0.1664 C.ar    1  UNL1       -0.0610
     24 C           9.9810    3.7167    0.1104 C.ar    1  UNL1       -0.0483
     25 C           6.0885   -1.3454   -1.7356 C.ar    1  UNL1       -0.0222
     26 C           6.2551   -2.6936   -2.0795 C.ar    1  UNL1       -0.0454
     27 H           4.3076   -4.1160    0.3250 H       1  UNL1        0.0629
     28 H           3.9993   -1.7675    0.9250 H       1  UNL1        0.0652
     29 H           4.0199    0.4803   -0.0659 H       1  UNL1        0.2645
     30 H           5.6688    3.5371   -0.2073 H       1  UNL1        0.2579
     31 H           3.8462    3.8712   -1.5392 H       1  UNL1        0.0706
     32 H           3.5884    2.1325   -1.7182 H       1  UNL1        0.0706
     33 H           3.9068    3.4868    1.7803 H       1  UNL1        0.0621
     34 H           1.9775    3.7591    3.2827 H       1  UNL1        0.0618
     35 H          -0.3305    3.5094    2.4317 H       1  UNL1        0.0618
     36 H          -0.7236    2.9545    0.0520 H       1  UNL1        0.0618
     37 H           1.1695    2.6557   -1.4794 H       1  UNL1        0.0621
     38 H           9.4980    0.4508   -0.8302 H       1  UNL1        0.0626
     39 H          11.8846    0.6578   -1.3148 H       1  UNL1        0.0618
     40 H          13.0848    2.7754   -0.9007 H       1  UNL1        0.0618
     41 H          11.8842    4.7343    0.0186 H       1  UNL1        0.0618
     42 H           9.4793    4.5975    0.5113 H       1  UNL1        0.0626
     43 H           6.5370   -0.6070   -2.3927 H       1  UNL1        0.0652
     44 H           6.8548   -2.9579   -2.9496 H       1  UNL1        0.0629
     45 H           7.0563    0.7745    0.6214 H       1  UNL1        0.2156
     46 H           7.3383    0.8735   -0.8855 H       1  UNL1        0.2156
@<TRIPOS>BOND
     1     2     1    1
     2     3     2   ar
     3     3    27    1
     4     4     3   ar
     5     4    28    1
     6     5     4   ar
     7     6     5    1
     8     6    29    1
     9     7     6    1
    10     8     7    1
    11     8    30    1
    12     9     8    1
    13     9    31    1
    14     9    32    1
    15    10     9    1
    16    11    10   ar
    17    11    33    1
    18    12    11   ar
    19    12    34    1
    20    13    12   ar
    21    13    35    1
    22    14    13   ar
    23    14    36    1
    24    15    14   ar
    25    15    10   ar
    26    15    37    1
    27    16     7    2
    28    16    45    1
    29    17    16    1
    30    18    17    2
    31    19    17    1
    32    20    19   ar
    33    20    38    1
    34    21    20   ar
    35    21    39    1
    36    22    21   ar
    37    22    40    1
    38    23    22   ar
    39    23    41    1
    40    24    23   ar
    41    24    19   ar
    42    24    42    1
    43    25     5   ar
    44    25    43    1
    45    26    25   ar
    46    26     2   ar
    47    26    44    1
    48    16    46    1
