@<TRIPOS>MOLECULE
mol_223_akc_jejmech201903007
>218.sdf
 55 57 0 0 0
SMALL
GASTEIGER

@<TRIPOS>ATOM
      1 C           8.4022   -4.6999   -1.2511 C.3     1  UNL1       -0.0429
      2 N           8.4641   -4.2804    0.1932 N.4     1  UNL1        0.2374
      3 C           8.9587   -5.3824    1.0749 C.3     1  UNL1       -0.0429
      4 C           9.2257   -2.9695    0.4069 C.3     1  UNL1        0.0454
      5 C           8.5255   -1.7983   -0.2949 C.2     1  UNL1        0.2582
      6 O           7.3201   -1.8540   -0.5205 O.2     1  UNL1       -0.2699
      7 N           9.3340   -0.7593   -0.6848 N.am    1  UNL1       -0.3094
      8 C           8.8497    0.2870   -1.5883 C.3     1  UNL1        0.0272
      9 C           9.1927   -0.0608   -3.0435 C.3     1  UNL1        0.0247
     10 N           8.7843    0.9641   -3.9988 N.pl3   1  UNL1       -0.3418
     11 C           9.4758    1.1114   -5.2224 C.ar    1  UNL1        0.0385
     12 C          10.4870    0.2256   -5.5993 C.ar    1  UNL1       -0.0148
     13 C          11.2067    0.4382   -6.7644 C.ar    1  UNL1        0.0663
     14 C          12.3654   -0.3917   -7.1140 C.2     1  UNL1       -0.0357
     15 C          13.2083   -0.9160   -6.2056 C.2     1  UNL1       -0.0526
     16 C          14.3622   -1.7668   -6.5248 C.ar    1  UNL1       -0.0250
     17 C          15.4674   -1.7661   -5.6614 C.ar    1  UNL1       -0.0546
     18 C          16.5648   -2.5944   -5.9092 C.ar    1  UNL1       -0.0612
     19 C          16.5634   -3.4381   -7.0166 C.ar    1  UNL1       -0.0617
     20 C          15.4634   -3.4620   -7.8716 C.ar    1  UNL1       -0.0612
     21 C          14.3656   -2.6345   -7.6235 C.ar    1  UNL1       -0.0546
     22 N          10.8805    1.3898   -7.6527 N.ar    1  UNL1       -0.2472
     23 C           9.8444    2.1931   -7.3701 C.ar    1  UNL1        0.0734
     24 C           9.4927    3.1410   -8.3210 C.ar    1  UNL1       -0.0357
     25 C           8.4341    4.0279   -8.1247 C.ar    1  UNL1       -0.0597
     26 C           7.7045    3.9716   -6.9472 C.ar    1  UNL1       -0.0610
     27 C           8.0329    3.0222   -5.9758 C.ar    1  UNL1       -0.0508
     28 C           9.1053    2.1140   -6.1621 C.ar    1  UNL1        0.0212
     29 H           7.7820   -5.5979   -1.3145 H       1  UNL1        0.0778
     30 H           7.9428   -3.9025   -1.8385 H       1  UNL1        0.0778
     31 H           9.4193   -4.9004   -1.5971 H       1  UNL1        0.0778
     32 H           7.4888   -4.0587    0.4551 H       1  UNL1        0.2033
     33 H           9.9964   -5.6003    0.8066 H       1  UNL1        0.0778
     34 H           8.8853   -5.0515    2.1136 H       1  UNL1        0.0778
     35 H           8.3248   -6.2589    0.9166 H       1  UNL1        0.0778
     36 H           9.2390   -2.7738    1.4838 H       1  UNL1        0.0913
     37 H          10.2410   -3.1155    0.0269 H       1  UNL1        0.0913
     38 H          10.3272   -0.7608   -0.4802 H       1  UNL1        0.1489
     39 H           7.7713    0.4250   -1.4641 H       1  UNL1        0.0477
     40 H           9.3521    1.2155   -1.2968 H       1  UNL1        0.0477
     41 H          10.2770   -0.2176   -3.0585 H       1  UNL1        0.0476
     42 H           8.7184   -1.0109   -3.3203 H       1  UNL1        0.0476
     43 H           8.5418    1.8681   -3.5982 H       1  UNL1        0.1461
     44 H          10.7555   -0.6240   -4.9888 H       1  UNL1        0.0657
     45 H          12.5219   -0.5185   -8.1813 H       1  UNL1        0.0639
     46 H          13.0795   -0.7070   -5.1467 H       1  UNL1        0.0624
     47 H          15.4936   -1.1092   -4.7945 H       1  UNL1        0.0623
     48 H          17.4237   -2.5748   -5.2432 H       1  UNL1        0.0618
     49 H          17.4197   -4.0776   -7.2169 H       1  UNL1        0.0618
     50 H          15.4585   -4.1221   -8.7343 H       1  UNL1        0.0618
     51 H          13.5136   -2.6850   -8.2973 H       1  UNL1        0.0623
     52 H          10.0568    3.1868   -9.2506 H       1  UNL1        0.0639
     53 H           8.1835    4.7539   -8.8942 H       1  UNL1        0.0618
     54 H           6.8759    4.6557   -6.7858 H       1  UNL1        0.0618
     55 H           7.4255    2.9850   -5.0761 H       1  UNL1        0.0625
@<TRIPOS>UNITY_ATOM_ATTR
2 1
charge 1
@<TRIPOS>BOND
     1     1    29    1
     2     1    30    1
     3     1    31    1
     4     2     1    1
     5     2    32    1
     6     3     2    1
     7     3    33    1
     8     3    34    1
     9     3    35    1
    10     4     2    1
    11     4    36    1
    12     4    37    1
    13     5     4    1
    14     6     5    2
    15     7     5   am
    16     7    38    1
    17     8     7    1
    18     8    39    1
    19     8    40    1
    20     9     8    1
    21     9    41    1
    22     9    42    1
    23    10     9    1
    24    10    43    1
    25    11    10    1
    26    12    11   ar
    27    12    44    1
    28    13    12   ar
    29    14    13    1
    30    14    45    1
    31    15    14    2
    32    15    46    1
    33    16    15    1
    34    17    16   ar
    35    17    47    1
    36    18    17   ar
    37    18    48    1
    38    19    18   ar
    39    19    49    1
    40    20    19   ar
    41    20    50    1
    42    21    20   ar
    43    21    16   ar
    44    21    51    1
    45    22    13   ar
    46    23    22   ar
    47    24    23   ar
    48    24    52    1
    49    25    24   ar
    50    25    53    1
    51    26    25   ar
    52    26    54    1
    53    27    26   ar
    54    27    55    1
    55    28    27   ar
    56    28    11   ar
    57    28    23   ar
