@<TRIPOS>MOLECULE
mol_224_akc_jejmech201903007
>219.sdf
 58 61 0 0 0
SMALL
GASTEIGER

@<TRIPOS>ATOM
      1 CL          7.8425   -7.6907   -9.3397 Cl      1  UNL1       -0.0835
      2 C           8.3174   -7.1434   -7.7802 C.ar    1  UNL1        0.0425
      3 C           7.6893   -6.0432   -7.2102 C.ar    1  UNL1       -0.0232
      4 C           8.0890   -5.6055   -5.9439 C.ar    1  UNL1        0.0631
      5 CL          7.2784   -4.2264   -5.2752 Cl      1  UNL1       -0.0816
      6 C           9.1170   -6.2527   -5.2191 C.ar    1  UNL1        0.0461
      7 N           9.5389   -5.7586   -3.9910 N.pl3   1  UNL1       -0.3343
      8 C          10.6176   -6.3380   -3.1944 C.3     1  UNL1        0.0858
      9 C          10.7981   -5.5581   -1.8609 C.2     1  UNL1        0.2302
     10 O          11.6025   -4.6185   -1.7036 O.2     1  UNL1       -0.2741
     11 N           9.9682   -5.9807   -0.8258 N.am    1  UNL1       -0.3125
     12 C           8.8235   -6.8452   -1.0416 C.3     1  UNL1        0.0271
     13 C           8.0457   -7.1907    0.2259 C.3     1  UNL1        0.0247
     14 N           6.9428   -8.1099   -0.0985 N.pl3   1  UNL1       -0.3418
     15 C           7.2042   -9.5013   -0.1050 C.ar    1  UNL1        0.0385
     16 C           8.1100  -10.0483    0.8096 C.ar    1  UNL1       -0.0148
     17 C           8.3482  -11.4184    0.8323 C.ar    1  UNL1        0.0663
     18 C           9.3631  -11.9650    1.7477 C.2     1  UNL1       -0.0357
     19 C           9.6481  -13.2792    1.8363 C.2     1  UNL1       -0.0526
     20 C          10.6142  -13.8711    2.7786 C.ar    1  UNL1       -0.0250
     21 C          10.8692  -13.3111    4.0379 C.ar    1  UNL1       -0.0546
     22 C          11.7216  -13.9450    4.9464 C.ar    1  UNL1       -0.0612
     23 C          12.3238  -15.1549    4.6120 C.ar    1  UNL1       -0.0617
     24 C          12.0782  -15.7282    3.3665 C.ar    1  UNL1       -0.0612
     25 C          11.2272  -15.0918    2.4568 C.ar    1  UNL1       -0.0546
     26 N           7.6804  -12.2685    0.0440 N.ar    1  UNL1       -0.2472
     27 C           6.7611  -11.7834   -0.8026 C.ar    1  UNL1        0.0734
     28 C           6.0853  -12.7052   -1.5887 C.ar    1  UNL1       -0.0357
     29 C           5.1196  -12.3184   -2.5181 C.ar    1  UNL1       -0.0597
     30 C           4.8404  -10.9724   -2.6907 C.ar    1  UNL1       -0.0610
     31 C           5.5203  -10.0237   -1.9190 C.ar    1  UNL1       -0.0508
     32 C           6.4775  -10.4026   -0.9388 C.ar    1  UNL1        0.0212
     33 C           9.7312   -7.3550   -5.8309 C.ar    1  UNL1       -0.0380
     34 C           9.3336   -7.8025   -7.0967 C.ar    1  UNL1       -0.0416
     35 H           6.9002   -5.5248   -7.7470 H       1  UNL1        0.0647
     36 H           8.9443   -5.0537   -3.5570 H       1  UNL1        0.1466
     37 H          10.3940   -7.3869   -2.9795 H       1  UNL1        0.0557
     38 H          11.5656   -6.3355   -3.7311 H       1  UNL1        0.0557
     39 H          10.0602   -5.4449    0.0214 H       1  UNL1        0.1488
     40 H           8.1581   -6.3571   -1.7566 H       1  UNL1        0.0477
     41 H           9.1719   -7.7837   -1.4856 H       1  UNL1        0.0477
     42 H           8.7376   -7.5846    0.9711 H       1  UNL1        0.0476
     43 H           7.6427   -6.2733    0.6684 H       1  UNL1        0.0476
     44 H           6.4394   -7.8101   -0.9319 H       1  UNL1        0.1461
     45 H           8.6483   -9.4312    1.5152 H       1  UNL1        0.0657
     46 H           9.8855  -11.2458    2.3683 H       1  UNL1        0.0639
     47 H           9.1382  -13.9835    1.1878 H       1  UNL1        0.0624
     48 H          10.3866  -12.3864    4.3414 H       1  UNL1        0.0623
     49 H          11.9006  -13.4992    5.9211 H       1  UNL1        0.0618
     50 H          12.9748  -15.6541    5.3248 H       1  UNL1        0.0618
     51 H          12.5407  -16.6772    3.1068 H       1  UNL1        0.0618
     52 H          11.0425  -15.5644    1.4942 H       1  UNL1        0.0623
     53 H           6.3254  -13.7599   -1.4814 H       1  UNL1        0.0639
     54 H           4.6076  -13.0686   -3.1139 H       1  UNL1        0.0618
     55 H           4.1048  -10.6555   -3.4231 H       1  UNL1        0.0618
     56 H           5.3051   -8.9775   -2.1170 H       1  UNL1        0.0625
     57 H          10.5374   -7.8900   -5.3377 H       1  UNL1        0.0637
     58 H           9.8306   -8.6605   -7.5427 H       1  UNL1        0.0633
@<TRIPOS>BOND
     1     2     1    1
     2     3     2   ar
     3     3    35    1
     4     4     3   ar
     5     5     4    1
     6     6     4   ar
     7     7     6    1
     8     7    36    1
     9     8     7    1
    10     8    37    1
    11     8    38    1
    12     9     8    1
    13    10     9    2
    14    11     9   am
    15    11    39    1
    16    12    11    1
    17    12    40    1
    18    12    41    1
    19    13    12    1
    20    13    42    1
    21    13    43    1
    22    14    13    1
    23    14    44    1
    24    15    14    1
    25    16    15   ar
    26    16    45    1
    27    17    16   ar
    28    18    17    1
    29    18    46    1
    30    19    18    2
    31    19    47    1
    32    20    19    1
    33    21    20   ar
    34    21    48    1
    35    22    21   ar
    36    22    49    1
    37    23    22   ar
    38    23    50    1
    39    24    23   ar
    40    24    51    1
    41    25    24   ar
    42    25    20   ar
    43    25    52    1
    44    26    17   ar
    45    27    26   ar
    46    28    27   ar
    47    28    53    1
    48    29    28   ar
    49    29    54    1
    50    30    29   ar
    51    30    55    1
    52    31    30   ar
    53    31    56    1
    54    32    31   ar
    55    32    15   ar
    56    32    27   ar
    57    33     6   ar
    58    33    57    1
    59    34    33   ar
    60    34     2   ar
    61    34    58    1
