@<TRIPOS>MOLECULE
mol_225_akc_jparint201902006
>220.sdf
 30 31 0 0 0
SMALL
GASTEIGER

@<TRIPOS>ATOM
      1 C           1.4902    0.6783   -2.7995 C.3     1  UNL1        0.0821
      2 O           2.8876    0.5732   -2.5297 O.3     1  UNL1       -0.4623
      3 C           3.1901    0.0333   -1.3161 C.2     1  UNL1        0.3749
      4 O           2.3602   -0.3211   -0.4860 O.2     1  UNL1       -0.2415
      5 C           4.6220   -0.1062   -1.1644 C.ar    1  UNL1        0.2166
      6 C           5.3673   -0.8906   -0.2925 C.ar    1  UNL1        0.0231
      7 C           4.8450   -1.8232    0.7353 C.3     1  UNL1        0.0328
      8 BR          4.5986   -3.5671   -0.0920 Br      1  UNL1       -0.0866
      9 C           6.7410   -0.6232   -0.5962 C.ar    1  UNL1        0.0269
     10 C           6.7484    0.3413   -1.6005 C.ar    1  UNL1        0.1503
     11 O           5.4620    0.6229   -1.9595 O.2     1  UNL1       -0.4471
     12 C           7.9122    0.9033   -2.1468 C.ar    1  UNL1        0.1023
     13 C           7.8040    1.9778   -3.1628 C.2     1  UNL1        0.1672
     14 C           8.8438    2.1021   -4.2466 C.3     1  UNL1       -0.0012
     15 O           6.8638    2.7722   -3.1111 O.2     1  UNL1       -0.2921
     16 C           9.1286    0.4274   -1.6272 C.ar    1  UNL1        0.1448
     17 O          10.3096    0.9757   -2.0641 O.3     1  UNL1       -0.5048
     18 C           9.1536   -0.5696   -0.6423 C.ar    1  UNL1        0.0607
     19 BR         10.8056   -1.2247    0.0293 Br      1  UNL1       -0.0465
     20 C           7.9719   -1.1016   -0.1122 C.ar    1  UNL1       -0.0331
     21 H           0.9524   -0.2334   -2.5166 H       1  UNL1        0.0661
     22 H           1.0792    1.5460   -2.2765 H       1  UNL1        0.0661
     23 H           1.3625    0.8230   -3.8758 H       1  UNL1        0.0661
     24 H           5.5492   -1.9648    1.5592 H       1  UNL1        0.0432
     25 H           3.8821   -1.5181    1.1488 H       1  UNL1        0.0432
     26 H           8.3361    2.1988   -5.2103 H       1  UNL1        0.0309
     27 H           9.4497    2.9945   -4.0625 H       1  UNL1        0.0309
     28 H           9.4902    1.2258   -4.3174 H       1  UNL1        0.0309
     29 H          11.0444    0.5313   -1.5994 H       1  UNL1        0.2922
     30 H           8.0005   -1.8665    0.6591 H       1  UNL1        0.0637
@<TRIPOS>BOND
     1     1    21    1
     2     1    22    1
     3     1    23    1
     4     2     1    1
     5     3     2    1
     6     4     3    2
     7     5     3    1
     8     6     5   ar
     9     7     6    1
    10     7    24    1
    11     7    25    1
    12     8     7    1
    13     9     6   ar
    14    10     9   ar
    15    11    10   ar
    16    11     5   ar
    17    12    10   ar
    18    13    12    1
    19    14    13    1
    20    14    26    1
    21    14    27    1
    22    14    28    1
    23    15    13    2
    24    16    12   ar
    25    17    16    1
    26    17    29    1
    27    18    16   ar
    28    19    18    1
    29    20    18   ar
    30    20     9   ar
    31    20    30    1
