@<TRIPOS>MOLECULE
mol_226_akc_s0031182019000052
>221.sdf
 57 59 0 0 0
SMALL
GASTEIGER

@<TRIPOS>ATOM
      1 C          11.1498   -7.7532    7.1620 C.3     1  UNL1       -0.0440
      2 C          11.0321   -6.2543    7.1198 C.2     1  UNL1       -0.0793
      3 C          10.9308   -5.5708    8.4560 C.3     1  UNL1       -0.0440
      4 C          11.0233   -5.6011    5.9441 C.2     1  UNL1       -0.0809
      5 C          10.9377   -4.1203    5.7466 C.3     1  UNL1       -0.0058
      6 C           9.7298   -3.6803    4.9538 C.ar    1  UNL1       -0.0016
      7 C           8.6661   -3.0795    5.6353 C.ar    1  UNL1       -0.0481
      8 C           7.7438   -2.2953    4.9350 C.ar    1  UNL1       -0.0062
      9 C           7.6539   -2.4528    3.5410 C.ar    1  UNL1       -0.0481
     10 C           8.6478   -3.1444    2.8297 C.ar    1  UNL1       -0.0016
     11 C           8.5808   -3.1695    1.3189 C.3     1  UNL1       -0.0058
     12 C           7.5468   -4.1279    0.7950 C.2     1  UNL1       -0.0809
     13 C           6.4860   -3.8586    0.0041 C.2     1  UNL1       -0.0793
     14 C           6.0741   -2.4999   -0.4769 C.3     1  UNL1       -0.0440
     15 C           5.6170   -4.9957   -0.4832 C.3     1  UNL1       -0.0440
     16 C           9.7148   -3.6893    3.5547 C.ar    1  UNL1        0.1238
     17 O          10.8218   -4.1691    2.9099 O.3     1  UNL1       -0.5062
     18 C           7.1238   -1.0423    5.5897 C.3     1  UNL1        0.1322
     19 C           7.5482    0.2258    4.8322 C.3     1  UNL1        0.0519
     20 C           9.0554    0.2963    4.9002 C.2     1  UNL1        0.1705
     21 O           9.7545    0.6725    3.9668 O.2     1  UNL1       -0.2918
     22 C           9.6403   -0.0611    6.2081 C.ar    1  UNL1        0.0594
     23 C          11.0175    0.0075    6.4327 C.ar    1  UNL1       -0.0443
     24 C          11.5171   -0.2545    7.7094 C.ar    1  UNL1       -0.0193
     25 C          10.6307   -0.5545    8.7434 C.ar    1  UNL1        0.1204
     26 O          11.0761   -0.7485   10.0175 O.3     1  UNL1       -0.5066
     27 C           9.2644   -0.6874    8.5073 C.ar    1  UNL1        0.0223
     28 C           8.7735   -0.4888    7.2191 C.ar    1  UNL1        0.1353
     29 O           7.4600   -0.8429    6.9893 O.3     1  UNL1       -0.4830
     30 H          12.0702   -8.0450    7.6785 H       1  UNL1        0.0274
     31 H          10.2960   -8.1868    7.6919 H       1  UNL1        0.0274
     32 H          11.1784   -8.1926    6.1592 H       1  UNL1        0.0274
     33 H          11.6249   -4.7276    8.5292 H       1  UNL1        0.0274
     34 H           9.9101   -5.2118    8.6224 H       1  UNL1        0.0274
     35 H          11.1813   -6.2565    9.2729 H       1  UNL1        0.0274
     36 H          11.1049   -6.1696    5.0188 H       1  UNL1        0.0575
     37 H          10.9411   -3.5864    6.7061 H       1  UNL1        0.0357
     38 H          11.8471   -3.7697    5.2436 H       1  UNL1        0.0357
     39 H           8.6885   -3.0633    6.7228 H       1  UNL1        0.0625
     40 H           6.8831   -1.9246    2.9809 H       1  UNL1        0.0625
     41 H           8.4339   -2.1459    0.9654 H       1  UNL1        0.0357
     42 H           9.5415   -3.4740    0.8932 H       1  UNL1        0.0357
     43 H           7.7351   -5.1663    1.0675 H       1  UNL1        0.0575
     44 H           6.1086   -2.4596   -1.5721 H       1  UNL1        0.0274
     45 H           5.0488   -2.2832   -0.1524 H       1  UNL1        0.0274
     46 H           6.7042   -1.6914   -0.0984 H       1  UNL1        0.0274
     47 H           6.0989   -5.4983   -1.3249 H       1  UNL1        0.0274
     48 H           5.4404   -5.7264    0.3103 H       1  UNL1        0.0274
     49 H           4.6395   -4.6309   -0.8163 H       1  UNL1        0.0274
     50 H          11.0956   -3.4774    2.2843 H       1  UNL1        0.2922
     51 H           6.0332   -1.1461    5.5478 H       1  UNL1        0.0789
     52 H           7.2339    0.2119    3.7845 H       1  UNL1        0.0385
     53 H           7.1473    1.1301    5.3029 H       1  UNL1        0.0385
     54 H          11.6955    0.2513    5.6180 H       1  UNL1        0.0627
     55 H          12.5890   -0.2159    7.8796 H       1  UNL1        0.0654
     56 H          12.0129   -0.4936   10.0641 H       1  UNL1        0.2921
     57 H           8.5975   -0.9783    9.3134 H       1  UNL1        0.0691
@<TRIPOS>BOND
     1     1    30    1
     2     1    31    1
     3     1    32    1
     4     2     1    1
     5     3     2    1
     6     3    33    1
     7     3    34    1
     8     3    35    1
     9     4     2    2
    10     4    36    1
    11     5     4    1
    12     5    37    1
    13     5    38    1
    14     6     5    1
    15     7     6   ar
    16     7    39    1
    17     8     7   ar
    18     9     8   ar
    19     9    40    1
    20    10     9   ar
    21    11    10    1
    22    11    41    1
    23    11    42    1
    24    12    11    1
    25    12    43    1
    26    13    12    2
    27    14    13    1
    28    14    44    1
    29    14    45    1
    30    14    46    1
    31    15    13    1
    32    15    47    1
    33    15    48    1
    34    15    49    1
    35    16    10   ar
    36    16     6   ar
    37    17    16    1
    38    17    50    1
    39    19    18    1
    40    19    52    1
    41    19    53    1
    42    20    19    1
    43    21    20    2
    44    22    20    1
    45    23    22   ar
    46    23    54    1
    47    24    23   ar
    48    24    55    1
    49    25    24   ar
    50    26    25    1
    51    26    56    1
    52    27    25   ar
    53    27    57    1
    54    28    27   ar
    55    28    22   ar
    56    29    28    1
    57    29    18    1
    58    18    51    1
    59    18     8    1
