@<TRIPOS>MOLECULE
mol_227_akc_s0031182019000052
>222.sdf
 41 44 0 0 0
SMALL
GASTEIGER

@<TRIPOS>ATOM
      1 C          -3.5474    0.1475    1.7061 C.3     1  UNL1       -0.0215
      2 C          -3.3702    0.0189    0.1863 C.3     1  UNL1        0.1235
      3 C          -4.7037    0.3187   -0.5080 C.3     1  UNL1       -0.0215
      4 O          -2.4600    1.0511   -0.2539 O.3     1  UNL1       -0.4814
      5 C          -1.1251    0.7426   -0.2137 C.ar    1  UNL1        0.1359
      6 C          -0.2529    1.8276   -0.1782 C.ar    1  UNL1        0.0231
      7 C           1.1198    1.6055   -0.1052 C.ar    1  UNL1        0.1347
      8 O           1.9540    2.6864   -0.0584 O.3     1  UNL1       -0.5058
      9 C           1.6278    0.2993   -0.0735 C.ar    1  UNL1        0.1061
     10 C           3.0756    0.0157    0.0413 C.ar    1  UNL1        0.1966
     11 O           3.9516    0.8661    0.1238 O.2     1  UNL1       -0.2869
     12 C           3.4678   -1.4004    0.0769 C.ar    1  UNL1        0.0288
     13 C           2.5341   -2.3566    0.0197 C.ar    1  UNL1        0.1393
     14 O           1.1801   -2.0969   -0.1131 O.2     1  UNL1       -0.4538
     15 C           0.7456   -0.7886   -0.1439 C.ar    1  UNL1        0.1534
     16 C          -0.6411   -0.5721   -0.2289 C.ar    1  UNL1        0.0597
     17 C          -1.6095   -1.6614   -0.3569 C.2     1  UNL1       -0.0478
     18 C          -2.9025   -1.3754   -0.1641 C.2     1  UNL1       -0.0408
     19 C           2.8891   -3.7938    0.0736 C.ar    1  UNL1        0.0176
     20 C           3.9914   -4.2524    0.8186 C.ar    1  UNL1       -0.0476
     21 C           4.3317   -5.6092    0.8499 C.ar    1  UNL1       -0.0195
     22 C           3.5580   -6.5232    0.1471 C.ar    1  UNL1        0.1169
     23 O           3.8554   -7.8524    0.1452 O.3     1  UNL1       -0.5068
     24 C           2.4500   -6.1023   -0.5765 C.ar    1  UNL1       -0.0195
     25 C           2.1158   -4.7447   -0.6114 C.ar    1  UNL1       -0.0476
     26 H          -4.2824   -0.5670    2.0919 H       1  UNL1        0.0271
     27 H          -2.6004   -0.0228    2.2327 H       1  UNL1        0.0271
     28 H          -3.8689    1.1598    1.9766 H       1  UNL1        0.0271
     29 H          -4.5969    0.2834   -1.5986 H       1  UNL1        0.0271
     30 H          -5.4873   -0.3880   -0.2136 H       1  UNL1        0.0271
     31 H          -5.0481    1.3313   -0.2651 H       1  UNL1        0.0271
     32 H          -0.6624    2.8331   -0.1939 H       1  UNL1        0.0691
     33 H           1.4451    3.5116   -0.1028 H       1  UNL1        0.2922
     34 H           4.5309   -1.5895    0.1515 H       1  UNL1        0.0693
     35 H          -1.2710   -2.6654   -0.5852 H       1  UNL1        0.0624
     36 H          -3.6424   -2.1692   -0.2190 H       1  UNL1        0.0611
     37 H           4.6024   -3.5609    1.3941 H       1  UNL1        0.0626
     38 H           5.1957   -5.9257    1.4259 H       1  UNL1        0.0654
     39 H           4.6578   -7.9929    0.6742 H       1  UNL1        0.2921
     40 H           1.8485   -6.8279   -1.1170 H       1  UNL1        0.0654
     41 H           1.2479   -4.4385   -1.1921 H       1  UNL1        0.0626
@<TRIPOS>BOND
     1     1    26    1
     2     1    27    1
     3     1    28    1
     4     2     1    1
     5     3     2    1
     6     3    29    1
     7     3    30    1
     8     3    31    1
     9     4     2    1
    10     5     4    1
    11     6     5   ar
    12     6    32    1
    13     7     6   ar
    14     8     7    1
    15     8    33    1
    16     9     7   ar
    17    10     9   ar
    18    11    10    2
    19    12    10   ar
    20    12    34    1
    21    13    12   ar
    22    14    13   ar
    23    15    14   ar
    24    15     9   ar
    25    16    15   ar
    26    16     5   ar
    27    17    16    1
    28    17    35    1
    29    18    17    2
    30    18     2    1
    31    18    36    1
    32    19    13    1
    33    20    19   ar
    34    20    37    1
    35    21    20   ar
    36    21    38    1
    37    22    21   ar
    38    23    22    1
    39    23    39    1
    40    24    22   ar
    41    24    40    1
    42    25    24   ar
    43    25    19   ar
    44    25    41    1
