@<TRIPOS>MOLECULE
mol_228_akc_aac02200_18
>223.sdf
 74 77 0 0 0
SMALL
GASTEIGER

@<TRIPOS>ATOM
      1 N          12.4354    6.7009   -1.1071 N.pl3   1  UNL1        0.3300
      2 C          11.7145    5.6782   -1.4413 C.cat   1  UNL1        0.0000
      3 N          11.2814    5.4888   -2.8034 N.pl3   1  UNL1        0.3300
      4 C          11.1199    6.5721   -3.7706 C.3     1  UNL1        0.0000
      5 C           9.6314    6.6423   -4.1829 C.3     1  UNL1        0.0000
      6 C           9.3949    7.7178   -5.2505 C.3     1  UNL1        0.0000
      7 C          10.2793    7.4474   -6.4746 C.3     1  UNL1        0.0000
      8 C          11.7551    7.4187   -6.0635 C.3     1  UNL1        0.0000
      9 C          12.0004    6.3273   -5.0074 C.3     1  UNL1        0.0000
     10 N          11.2450    4.7910   -0.4114 N.pl3   1  UNL1        0.3300
     11 C          10.8263    3.4401   -0.6120 C.ar    1  UNL1        0.0000
     12 C          11.4229    2.6297   -1.5925 C.ar    1  UNL1        0.0000
     13 C          11.0252    1.3036   -1.7544 C.ar    1  UNL1        0.0000
     14 C          10.0220    0.7592   -0.9521 C.ar    1  UNL1        0.0000
     15 SE          9.5093   -1.0670   -1.2975 Se      1  UNL1        0.0000
     16 SE          9.7672   -1.8614    0.9356 Se      1  UNL1        0.0000
     17 C          11.6866   -1.6837    1.0238 C.ar    1  UNL1        0.0000
     18 C          12.2089   -0.8947    2.0430 C.ar    1  UNL1        0.0000
     19 C          13.5887   -0.7615    2.2116 C.ar    1  UNL1        0.0000
     20 C          14.4984   -1.4201    1.3495 C.ar    1  UNL1        0.0000
     21 N          15.9380   -1.3740    1.5013 N.pl3   1  UNL1        0.3300
     22 C          16.7410   -0.4444    2.2665 C.cat   1  UNL1        0.0000
     23 N          16.2881    0.7195    2.6033 N.pl3   1  UNL1        0.3300
     24 N          18.1193   -0.7322    2.5708 N.pl3   1  UNL1        0.3300
     25 C          18.7407   -2.0532    2.6183 C.3     1  UNL1        0.0000
     26 C          19.2830   -2.2817    4.0503 C.3     1  UNL1        0.0000
     27 C          20.0491   -3.6079    4.1724 C.3     1  UNL1        0.0000
     28 C          21.2107   -3.6452    3.1733 C.3     1  UNL1        0.0000
     29 C          20.6759   -3.4691    1.7462 C.3     1  UNL1        0.0000
     30 C          19.9185   -2.1310    1.6152 C.3     1  UNL1        0.0000
     31 C          13.9497   -2.2189    0.3187 C.ar    1  UNL1        0.0000
     32 C          12.5584   -2.3500    0.1554 C.ar    1  UNL1        0.0000
     33 C           9.4191    1.5513    0.0365 C.ar    1  UNL1        0.0000
     34 C           9.8334    2.8817    0.2161 C.ar    1  UNL1        0.0000
     35 H          12.8578    7.2811   -1.8440 H       1  UNL1        0.0000
     36 H          10.8589    4.5958   -3.0763 H       1  UNL1        0.0000
     37 H          11.3870    7.5556   -3.3369 H       1  UNL1        0.0000
     38 H           9.3124    5.6594   -4.5945 H       1  UNL1        0.0000
     39 H           9.0020    6.8636   -3.2916 H       1  UNL1        0.0000
     40 H           8.3244    7.7149   -5.5512 H       1  UNL1        0.0000
     41 H           9.6358    8.7206   -4.8337 H       1  UNL1        0.0000
     42 H           9.9973    6.4670   -6.9258 H       1  UNL1        0.0000
     43 H          10.1073    8.2375   -7.2382 H       1  UNL1        0.0000
     44 H          12.3839    7.2191   -6.9589 H       1  UNL1        0.0000
     45 H          12.0399    8.4146   -5.6564 H       1  UNL1        0.0000
     46 H          13.0703    6.3376   -4.7100 H       1  UNL1        0.0000
     47 H          11.7625    5.3355   -5.4476 H       1  UNL1        0.0000
     48 H          11.1430    5.1853    0.5353 H       1  UNL1        0.0000
     49 H          12.2151    3.0122   -2.2214 H       1  UNL1        0.0000
     50 H          11.4982    0.6949   -2.5131 H       1  UNL1        0.0000
     51 H          11.5358   -0.3964    2.7290 H       1  UNL1        0.0000
     52 H          13.8895   -0.1673    3.0479 H       1  UNL1        0.0000
     53 H          16.4679   -2.0720    0.9608 H       1  UNL1        0.0000
     54 H          16.9550    1.4125    2.9781 H       1  UNL1        0.0000
     55 H          18.7129    0.0494    2.8856 H       1  UNL1        0.0000
     56 H          18.0120   -2.8542    2.3773 H       1  UNL1        0.0000
     57 H          19.9810   -1.4564    4.3161 H       1  UNL1        0.0000
     58 H          18.4437   -2.2709    4.7766 H       1  UNL1        0.0000
     59 H          20.4487   -3.7125    5.2054 H       1  UNL1        0.0000
     60 H          19.3619   -4.4590    3.9766 H       1  UNL1        0.0000
     61 H          21.9327   -2.8299    3.4055 H       1  UNL1        0.0000
     62 H          21.7499   -4.6139    3.2620 H       1  UNL1        0.0000
     63 H          21.5278   -3.4923    1.0322 H       1  UNL1        0.0000
     64 H          19.9960   -4.3149    1.5023 H       1  UNL1        0.0000
     65 H          19.5398   -2.0232    0.5763 H       1  UNL1        0.0000
     66 H          20.6357   -1.3039    1.8124 H       1  UNL1        0.0000
     67 H          14.6040   -2.7519   -0.3596 H       1  UNL1        0.0000
     68 H          12.1647   -2.9786   -0.6339 H       1  UNL1        0.0000
     69 H           8.6346    1.1458    0.6631 H       1  UNL1        0.0000
     70 H           9.3640    3.4869    0.9828 H       1  UNL1        0.0000
     71 H          12.9745    6.5658   -0.2382 H       1  UNL1        0.0000
     72 H          15.4574    1.0604    2.1058 H       1  UNL1        0.0000
     73 H          11.7937    7.3490   -0.6304 H       1  UNL1        0.0000
     74 H          15.7765    0.5759    3.4827 H       1  UNL1        0.0000
@<TRIPOS>BOND
     1     1    35    1
     2     1    71    1
     3     2     1    2
     4     3     2    1
     5     3    36    1
     6     4     3    1
     7     4    37    1
     8     5     4    1
     9     5    38    1
    10     5    39    1
    11     6     5    1
    12     6    40    1
    13     6    41    1
    14     7     6    1
    15     7    42    1
    16     7    43    1
    17     8     7    1
    18     8    44    1
    19     8    45    1
    20     9     8    1
    21     9     4    1
    22     9    46    1
    23     9    47    1
    24    10     2    1
    25    10    48    1
    26    11    10    1
    27    12    11   ar
    28    12    49    1
    29    13    12   ar
    30    13    50    1
    31    14    13   ar
    32    15    14    1
    33    16    15    1
    34    17    16    1
    35    18    17   ar
    36    18    51    1
    37    19    18   ar
    38    19    52    1
    39    20    19   ar
    40    21    20    1
    41    21    53    1
    42    22    21    1
    43    23    22    2
    44    23    54    1
    45    23    72    1
    46    24    22    1
    47    24    55    1
    48    25    24    1
    49    25    56    1
    50    26    25    1
    51    26    57    1
    52    26    58    1
    53    27    26    1
    54    27    59    1
    55    27    60    1
    56    28    27    1
    57    28    61    1
    58    28    62    1
    59    29    28    1
    60    29    63    1
    61    29    64    1
    62    30    29    1
    63    30    25    1
    64    30    65    1
    65    30    66    1
    66    31    20   ar
    67    31    67    1
    68    32    31   ar
    69    32    17   ar
    70    32    68    1
    71    33    14   ar
    72    33    69    1
    73    34    33   ar
    74    34    11   ar
    75    34    70    1
    76     1    73    1
    77    23    74    1
