@<TRIPOS>MOLECULE
mol_229_akc_ardp201800281
>224.sdf
 58 62 0 0 0
SMALL
GASTEIGER

@<TRIPOS>ATOM
      1 CL         -2.0371   -0.4131    0.0259 Cl      1  UNL1       -0.0835
      2 C          -0.3259   -0.2605    0.0214 C.ar    1  UNL1        0.0410
      3 C           0.2571    1.0018   -0.0807 C.ar    1  UNL1       -0.0428
      4 C           1.6518    1.1358   -0.0859 C.ar    1  UNL1       -0.0526
      5 C           2.4773    0.0100    0.0391 C.ar    1  UNL1       -0.0173
      6 C           1.8617   -1.2568    0.1252 C.ar    1  UNL1       -0.0526
      7 C           0.4705   -1.3951    0.1158 C.ar    1  UNL1       -0.0428
      8 C           3.9515    0.1011    0.0678 C.ar    1  UNL1       -0.0079
      9 C           4.6850    0.7344    1.0995 C.ar    1  UNL1        0.0049
     10 C           4.0945    1.7004    2.1044 C.3     1  UNL1       -0.0053
     11 N           3.1523    1.1185    3.1322 N.4     1  UNL1        0.2385
     12 C           3.8181    0.1185    4.0533 C.3     1  UNL1       -0.0316
     13 C           3.7338    0.4934    5.5227 C.3     1  UNL1       -0.0123
     14 C           3.8933    1.9849    5.7222 C.3     1  UNL1       -0.0434
     15 C           2.6982    2.6912    5.1146 C.3     1  UNL1       -0.0123
     16 C           2.2586    2.1689    3.7515 C.3     1  UNL1       -0.0316
     17 C           6.0747    0.5259    1.1517 C.ar    1  UNL1       -0.0512
     18 C           6.7376   -0.2077    0.1696 C.ar    1  UNL1       -0.0401
     19 C           6.0665   -0.7066   -0.9410 C.ar    1  UNL1        0.0319
     20 N           6.7240   -1.2730   -2.0645 N.pl3   1  UNL1       -0.3139
     21 C           7.9774   -1.9546   -2.0508 C.ar    1  UNL1        0.0420
     22 C           7.9509   -3.3477   -2.1688 C.ar    1  UNL1       -0.0218
     23 C           9.1207   -4.0502   -1.9695 C.ar    1  UNL1        0.0300
     24 N          10.2882   -3.4731   -1.6301 N.ar    1  UNL1       -0.2548
     25 C          10.3356   -2.1353   -1.5411 C.ar    1  UNL1        0.0741
     26 C          11.5371   -1.5520   -1.1698 C.ar    1  UNL1       -0.0173
     27 C          11.6715   -0.1687   -1.0767 C.ar    1  UNL1        0.0430
     28 CL         13.1630    0.5144   -0.5602 Cl      1  UNL1       -0.0835
     29 C          10.6064    0.6623   -1.3939 C.ar    1  UNL1       -0.0426
     30 C           9.3877    0.0947   -1.7601 C.ar    1  UNL1       -0.0494
     31 C           9.2145   -1.3110   -1.7872 C.ar    1  UNL1        0.0216
     32 C           4.6701   -0.5494   -0.9663 C.ar    1  UNL1       -0.0324
     33 H          -0.3729    1.8827   -0.1833 H       1  UNL1        0.0632
     34 H           2.0759    2.1269   -0.2271 H       1  UNL1        0.0624
     35 H           2.4698   -2.1627    0.1896 H       1  UNL1        0.0624
     36 H           0.0221   -2.3843    0.1616 H       1  UNL1        0.0632
     37 H           4.8794    2.2224    2.6653 H       1  UNL1        0.0867
     38 H           3.5555    2.4731    1.5464 H       1  UNL1        0.0867
     39 H           2.5090    0.5523    2.5649 H       1  UNL1        0.2037
     40 H           4.8710    0.0397    3.7663 H       1  UNL1        0.0814
     41 H           3.3451   -0.8513    3.8693 H       1  UNL1        0.0814
     42 H           4.5131   -0.0427    6.0785 H       1  UNL1        0.0317
     43 H           2.7723    0.1606    5.9375 H       1  UNL1        0.0317
     44 H           3.9571    2.2212    6.7907 H       1  UNL1        0.0269
     45 H           4.8214    2.3397    5.2600 H       1  UNL1        0.0269
     46 H           1.8455    2.5797    5.7984 H       1  UNL1        0.0317
     47 H           2.8878    3.7702    5.0708 H       1  UNL1        0.0317
     48 H           1.2649    1.7139    3.8237 H       1  UNL1        0.0814
     49 H           2.1692    3.0045    3.0459 H       1  UNL1        0.0814
     50 H           6.6780    0.9576    1.9505 H       1  UNL1        0.0623
     51 H           7.8117   -0.3402    0.2852 H       1  UNL1        0.0636
     52 H           6.0652   -1.7661   -2.6648 H       1  UNL1        0.1522
     53 H           7.0351   -3.8846   -2.3862 H       1  UNL1        0.0651
     54 H           9.1470   -5.1336   -2.0549 H       1  UNL1        0.0830
     55 H          12.3832   -2.1966   -0.9414 H       1  UNL1        0.0653
     56 H          10.7150    1.7428   -1.3506 H       1  UNL1        0.0632
     57 H           8.5567    0.7506   -2.0134 H       1  UNL1        0.0625
     58 H           4.1144   -0.9607   -1.8102 H       1  UNL1        0.0642
@<TRIPOS>UNITY_ATOM_ATTR
11 1
charge 1
@<TRIPOS>BOND
     1     2     1    1
     2     3     2   ar
     3     3    33    1
     4     4     3   ar
     5     4    34    1
     6     5     4   ar
     7     6     5   ar
     8     6    35    1
     9     7     6   ar
    10     7     2   ar
    11     7    36    1
    12     8     5    1
    13     9     8   ar
    14    10     9    1
    15    10    37    1
    16    10    38    1
    17    11    10    1
    18    11    39    1
    19    12    11    1
    20    12    40    1
    21    12    41    1
    22    13    12    1
    23    13    42    1
    24    13    43    1
    25    14    13    1
    26    14    44    1
    27    14    45    1
    28    15    14    1
    29    15    46    1
    30    15    47    1
    31    16    15    1
    32    16    11    1
    33    16    48    1
    34    16    49    1
    35    17     9   ar
    36    17    50    1
    37    18    17   ar
    38    18    51    1
    39    19    18   ar
    40    20    19    1
    41    20    52    1
    42    21    20    1
    43    22    21   ar
    44    22    53    1
    45    23    22   ar
    46    23    54    1
    47    24    23   ar
    48    25    24   ar
    49    26    25   ar
    50    26    55    1
    51    27    26   ar
    52    28    27    1
    53    29    27   ar
    54    29    56    1
    55    30    29   ar
    56    30    57    1
    57    31    30   ar
    58    31    21   ar
    59    31    25   ar
    60    32    19   ar
    61    32     8   ar
    62    32    58    1
