@<TRIPOS>MOLECULE
mol_22_akc_jejmech2020112956
>22.sdf
 42 45 0 0 0
SMALL
GASTEIGER

@<TRIPOS>ATOM
      1 C           1.2752   -0.1161   -0.7660 C.3     1  UNL1        0.0018
      2 N           2.4682    0.0702    0.0402 N.pl3   1  UNL1       -0.3184
      3 C           2.8088    1.4480    0.3582 C.3     1  UNL1        0.0018
      4 C           3.2415   -1.0043    0.4926 C.ar    1  UNL1        0.1642
      5 N           2.9007   -2.2280    0.1268 N.ar    1  UNL1       -0.2353
      6 C           3.6392   -3.3079    0.5594 C.ar    1  UNL1        0.0463
      7 C           4.7274   -3.2142    1.3379 C.ar    1  UNL1        0.0300
      8 N           5.1350   -1.9569    1.7423 N.ar    1  UNL1       -0.2944
      9 C           4.4191   -0.8512    1.3596 C.ar    1  UNL1        0.1793
     10 N           4.8997    0.2588    1.8851 N.ar    1  UNL1       -0.2239
     11 C           5.9765   -0.1413    2.6471 C.ar    1  UNL1        0.0979
     12 C           6.1350   -1.5225    2.5928 C.ar    1  UNL1        0.0841
     13 C           7.1062   -2.3859    3.3107 C.ar    1  UNL1        0.0384
     14 C           7.5977   -2.1631    4.5757 C.ar    1  UNL1        0.0344
     15 N           8.4924   -3.1614    4.8167 N.ar    1  UNL1       -0.2738
     16 C           9.3007   -3.3219    6.0003 C.3     1  UNL1        0.0302
     17 N           8.5916   -4.0460    3.8073 N.ar    1  UNL1       -0.1792
     18 C           7.7365   -3.5744    2.8934 C.ar    1  UNL1        0.0586
     19 C           6.7829    0.8404    3.3686 C.ar    1  UNL1        0.0026
     20 C           6.1629    1.9765    3.9127 C.ar    1  UNL1       -0.0498
     21 C           6.8957    2.8869    4.6802 C.ar    1  UNL1       -0.0258
     22 C           8.2459    2.6572    4.9126 C.ar    1  UNL1        0.1234
     23 F           8.9382    3.4997    5.6904 F       1  UNL1       -0.2055
     24 C           8.8904    1.5671    4.3461 C.ar    1  UNL1       -0.0258
     25 C           8.1672    0.6862    3.5403 C.ar    1  UNL1       -0.0498
     26 H           0.4081    0.3227   -0.2605 H       1  UNL1        0.0428
     27 H           1.3973    0.3824   -1.7340 H       1  UNL1        0.0428
     28 H           1.0372   -1.1649   -0.9654 H       1  UNL1        0.0428
     29 H           2.7365    1.6252    1.4371 H       1  UNL1        0.0428
     30 H           3.8193    1.6863    0.0118 H       1  UNL1        0.0428
     31 H           2.1292    2.1529   -0.1305 H       1  UNL1        0.0428
     32 H           3.2770   -4.2822    0.2405 H       1  UNL1        0.0845
     33 H           5.2708   -4.0819    1.6805 H       1  UNL1        0.0829
     34 H           7.3992   -1.3922    5.3070 H       1  UNL1        0.0833
     35 H           9.1145   -4.3158    6.4123 H       1  UNL1        0.0473
     36 H          10.3501   -3.2057    5.7190 H       1  UNL1        0.0473
     37 H           9.0249   -2.5573    6.7314 H       1  UNL1        0.0473
     38 H           7.6509   -4.0988    1.9505 H       1  UNL1        0.0854
     39 H           5.1007    2.1496    3.7491 H       1  UNL1        0.0625
     40 H           6.4182    3.7627    5.1073 H       1  UNL1        0.0646
     41 H           9.9454    1.4014    4.5358 H       1  UNL1        0.0646
     42 H           8.6963   -0.1421    3.0760 H       1  UNL1        0.0625
@<TRIPOS>BOND
     1     1    26    1
     2     1    27    1
     3     1    28    1
     4     2     1    1
     5     3     2    1
     6     3    29    1
     7     3    30    1
     8     3    31    1
     9     4     2    1
    10     5     4   ar
    11     6     5   ar
    12     6    32    1
    13     7     6   ar
    14     7    33    1
    15     8     7   ar
    16     9     8   ar
    17     9     4   ar
    18    10     9   ar
    19    11    10   ar
    20    12    11   ar
    21    12     8   ar
    22    13    12    1
    23    14    13   ar
    24    14    34    1
    25    15    14   ar
    26    16    15    1
    27    16    35    1
    28    16    36    1
    29    16    37    1
    30    17    15   ar
    31    18    17   ar
    32    18    13   ar
    33    18    38    1
    34    19    11    1
    35    20    19   ar
    36    20    39    1
    37    21    20   ar
    38    21    40    1
    39    22    21   ar
    40    23    22    1
    41    24    22   ar
    42    24    41    1
    43    25    24   ar
    44    25    19   ar
    45    25    42    1
