@<TRIPOS>MOLECULE
mol_232_akc_jparint201812006
>226_2.sdf
 35 38 0 0 0
SMALL
GASTEIGER

@<TRIPOS>ATOM
      1 CL         -2.1229    0.0187   -1.3741 Cl      1  UNL1       -0.0835
      2 C          -0.4695    0.0277   -0.9029 C.ar    1  UNL1        0.0410
      3 C           0.3260   -1.0923   -1.1133 C.ar    1  UNL1       -0.0430
      4 C           1.6840   -1.0612   -0.7703 C.ar    1  UNL1       -0.0536
      5 C           2.2610    0.0909   -0.2059 C.ar    1  UNL1       -0.0048
      6 C           1.4230    1.1942    0.0273 C.ar    1  UNL1       -0.0536
      7 C           0.0713    1.1673   -0.3239 C.ar    1  UNL1       -0.0430
      8 C           3.7722    0.1131    0.0579 C.3     1  UNL1        0.1546
      9 O           4.4557    0.6293   -1.1064 O.3     1  UNL1       -0.4809
     10 C           4.4113    1.9931   -1.2134 C.ar    1  UNL1        0.1320
     11 C           4.4619    2.5172   -2.5037 C.ar    1  UNL1       -0.0192
     12 C           4.3147    3.8910   -2.7027 C.ar    1  UNL1       -0.0583
     13 C           4.1413    4.7432   -1.6113 C.ar    1  UNL1       -0.0609
     14 C           4.1360    4.2259   -0.3155 C.ar    1  UNL1       -0.0477
     15 C           4.2798    2.8484   -0.1190 C.ar    1  UNL1        0.0613
     16 C           4.2096    2.2743    1.2441 C.2     1  UNL1        0.1949
     17 O           4.1111    3.0256    2.2093 O.2     1  UNL1       -0.2895
     18 C           4.2983    0.7725    1.3390 C.3     1  UNL1        0.1574
     19 N           3.6830    0.1876    2.5191 N.ar    1  UNL1       -0.2372
     20 C           2.6074    0.5969    3.2514 C.ar    1  UNL1        0.0464
     21 C           2.3633   -0.4529    4.1014 C.ar    1  UNL1        0.0693
     22 N           3.2776   -1.4405    3.8804 N.ar    1  UNL1       -0.1379
     23 N           4.0866   -1.0395    2.9098 N.ar    1  UNL1       -0.0649
     24 H          -0.0973   -1.9907   -1.5546 H       1  UNL1        0.0632
     25 H           2.2874   -1.9477   -0.9583 H       1  UNL1        0.0622
     26 H           1.7804    2.1176    0.4685 H       1  UNL1        0.0622
     27 H          -0.5414    2.0479   -0.1550 H       1  UNL1        0.0632
     28 H           4.0879   -0.9390    0.1096 H       1  UNL1        0.0811
     29 H           4.5739    1.8542   -3.3583 H       1  UNL1        0.0654
     30 H           4.3172    4.2953   -3.7126 H       1  UNL1        0.0619
     31 H           4.0038    5.8104   -1.7712 H       1  UNL1        0.0618
     32 H           3.9961    4.8949    0.5314 H       1  UNL1        0.0626
     33 H           5.3760    0.5695    1.4295 H       1  UNL1        0.0669
     34 H           2.1158    1.5485    3.1122 H       1  UNL1        0.0842
     35 H           1.5860   -0.5535    4.8452 H       1  UNL1        0.0864
@<TRIPOS>BOND
     1     2     1    1
     2     3     2   ar
     3     3    24    1
     4     4     3   ar
     5     4    25    1
     6     5     4   ar
     7     6     5   ar
     8     6    26    1
     9     7     6   ar
    10     7     2   ar
    11     7    27    1
    12     8     5    1
    13     8    28    1
    14     9     8    1
    15    10     9    1
    16    11    10   ar
    17    11    29    1
    18    12    11   ar
    19    12    30    1
    20    13    12   ar
    21    13    31    1
    22    14    13   ar
    23    14    32    1
    24    15    14   ar
    25    15    10   ar
    26    16    15    1
    27    17    16    2
    28    18    16    1
    29    18     8    1
    30    18    33    1
    31    19    18    1
    32    20    19   ar
    33    20    34    1
    34    21    20   ar
    35    21    35    1
    36    22    21   ar
    37    23    22   ar
    38    23    19   ar
