@<TRIPOS>MOLECULE
mol_233_akc_jparint201812006
>226_3.sdf
 35 38 0 0 0
SMALL
GASTEIGER

@<TRIPOS>ATOM
      1 CL          6.0641   -5.7232    0.2285 Cl      1  UNL1       -0.0835
      2 C           5.4859   -4.1053    0.1496 C.ar    1  UNL1        0.0410
      3 C           6.1661   -3.1639   -0.6154 C.ar    1  UNL1       -0.0430
      4 C           5.7017   -1.8483   -0.6680 C.ar    1  UNL1       -0.0536
      5 C           4.5548   -1.4570    0.0438 C.ar    1  UNL1       -0.0048
      6 C           3.8763   -2.4242    0.8045 C.ar    1  UNL1       -0.0536
      7 C           4.3407   -3.7424    0.8551 C.ar    1  UNL1       -0.0430
      8 C           4.0704   -0.0108    0.0254 C.3     1  UNL1        0.1546
      9 O           4.4150    0.5962   -1.2311 O.3     1  UNL1       -0.4809
     10 C           4.2192    1.9468   -1.3039 C.ar    1  UNL1        0.1320
     11 C           4.3194    2.5123   -2.5747 C.ar    1  UNL1       -0.0192
     12 C           4.1631    3.8895   -2.7432 C.ar    1  UNL1       -0.0583
     13 C           3.9036    4.7067   -1.6422 C.ar    1  UNL1       -0.0609
     14 C           3.8040    4.1474   -0.3684 C.ar    1  UNL1       -0.0477
     15 C           3.9746    2.7689   -0.2058 C.ar    1  UNL1        0.0613
     16 C           3.9568    2.1727    1.1401 C.2     1  UNL1        0.1949
     17 O           3.5387    2.8021    2.1051 O.2     1  UNL1       -0.2895
     18 C           4.5215    0.7859    1.2597 C.3     1  UNL1        0.1574
     19 N           5.9415    0.8716    1.5228 N.ar    1  UNL1       -0.2372
     20 C           6.5513    0.9444    2.7442 C.ar    1  UNL1        0.0464
     21 C           7.8881    1.0273    2.4419 C.ar    1  UNL1        0.0693
     22 N           8.0478    1.0344    1.0869 N.ar    1  UNL1       -0.1379
     23 N           6.8458    0.9715    0.5326 N.ar    1  UNL1       -0.0649
     24 H           7.0613   -3.4389   -1.1672 H       1  UNL1        0.0632
     25 H           6.2573   -1.1235   -1.2634 H       1  UNL1        0.0622
     26 H           2.9791   -2.1647    1.3639 H       1  UNL1        0.0622
     27 H           3.8073   -4.4816    1.4472 H       1  UNL1        0.0632
     28 H           2.9700   -0.0571    0.0273 H       1  UNL1        0.0811
     29 H           4.5299    1.8808   -3.4341 H       1  UNL1        0.0654
     30 H           4.2550    4.3264   -3.7350 H       1  UNL1        0.0619
     31 H           3.7964    5.7808   -1.7751 H       1  UNL1        0.0618
     32 H           3.6240    4.7886    0.4916 H       1  UNL1        0.0626
     33 H           4.0723    0.3193    2.1473 H       1  UNL1        0.0669
     34 H           6.0073    0.9433    3.6772 H       1  UNL1        0.0842
     35 H           8.7323    1.0933    3.1123 H       1  UNL1        0.0864
@<TRIPOS>BOND
     1     2     1    1
     2     3     2   ar
     3     3    24    1
     4     4     3   ar
     5     4    25    1
     6     5     4   ar
     7     6     5   ar
     8     6    26    1
     9     7     6   ar
    10     7     2   ar
    11     7    27    1
    12     9     8    1
    13    10     9    1
    14    11    10   ar
    15    11    29    1
    16    12    11   ar
    17    12    30    1
    18    13    12   ar
    19    13    31    1
    20    14    13   ar
    21    14    32    1
    22    15    14   ar
    23    15    10   ar
    24    16    15    1
    25    17    16    2
    26    18    16    1
    27    18     8    1
    28    20    19   ar
    29    20    34    1
    30    21    20   ar
    31    21    35    1
    32    22    21   ar
    33    23    22   ar
    34    23    19   ar
    35     8    28    1
    36     8     5    1
    37    18    19    1
    38    18    33    1
