@<TRIPOS>MOLECULE
mol_234_akc_jparint201812006
>226_4.sdf
 35 38 0 0 0
SMALL
GASTEIGER

@<TRIPOS>ATOM
      1 CL         -2.2174   -0.2649    0.0956 Cl      1  UNL1       -0.0835
      2 C          -0.5006   -0.1736    0.0684 C.ar    1  UNL1        0.0410
      3 C           0.1494    0.3033   -1.0636 C.ar    1  UNL1       -0.0430
      4 C           1.5451    0.3828   -1.0825 C.ar    1  UNL1       -0.0536
      5 C           2.3140    0.0146    0.0379 C.ar    1  UNL1       -0.0048
      6 C           1.6337   -0.5019    1.1559 C.ar    1  UNL1       -0.0536
      7 C           0.2364   -0.5864    1.1735 C.ar    1  UNL1       -0.0430
      8 C           3.8509    0.1284    0.0422 C.3     1  UNL1        0.1546
      9 O           4.3452    0.6867   -1.1945 O.3     1  UNL1       -0.4809
     10 C           4.3159    2.0519   -1.2819 C.ar    1  UNL1        0.1320
     11 C           4.4174    2.5871   -2.5652 C.ar    1  UNL1       -0.0192
     12 C           4.3176    3.9660   -2.7572 C.ar    1  UNL1       -0.0583
     13 C           4.1304    4.8130   -1.6641 C.ar    1  UNL1       -0.0609
     14 C           4.0558    4.2838   -0.3757 C.ar    1  UNL1       -0.0477
     15 C           4.1552    2.9010   -0.1915 C.ar    1  UNL1        0.0613
     16 C           4.1132    2.3215    1.1620 C.2     1  UNL1        0.1949
     17 O           3.8937    3.0292    2.1413 O.2     1  UNL1       -0.2895
     18 C           4.4269    0.8543    1.2752 C.3     1  UNL1        0.1574
     19 N           5.8519    0.6794    1.5003 N.ar    1  UNL1       -0.2372
     20 C           6.5837    1.1332    2.5640 C.ar    1  UNL1        0.0464
     21 C           7.8612    0.7110    2.2930 C.ar    1  UNL1        0.0693
     22 N           7.8653   -0.0005    1.1291 N.ar    1  UNL1       -0.1379
     23 N           6.6249   -0.0311    0.6612 N.ar    1  UNL1       -0.0649
     24 H          -0.4184    0.6132   -1.9373 H       1  UNL1        0.0632
     25 H           2.0146    0.7398   -1.9959 H       1  UNL1        0.0622
     26 H           2.1735   -0.8561    2.0313 H       1  UNL1        0.0622
     27 H          -0.2700   -0.9777    2.0526 H       1  UNL1        0.0632
     28 H           4.2049   -0.9118    0.0458 H       1  UNL1        0.0811
     29 H           4.5531    1.9293   -3.4205 H       1  UNL1        0.0654
     30 H           4.3797    4.3799   -3.7615 H       1  UNL1        0.0619
     31 H           4.0495    5.8869   -1.8152 H       1  UNL1        0.0618
     32 H           3.9250    4.9466    0.4754 H       1  UNL1        0.0626
     33 H           3.9514    0.4800    2.1892 H       1  UNL1        0.0669
     34 H           6.1550    1.7109    3.3710 H       1  UNL1        0.0842
     35 H           8.7648    0.8749    2.8628 H       1  UNL1        0.0864
@<TRIPOS>BOND
     1     2     1    1
     2     3     2   ar
     3     3    24    1
     4     4     3   ar
     5     4    25    1
     6     5     4   ar
     7     6     5   ar
     8     6    26    1
     9     7     6   ar
    10     7     2   ar
    11     7    27    1
    12     8     5    1
    13     8    28    1
    14     9     8    1
    15    10     9    1
    16    11    10   ar
    17    11    29    1
    18    12    11   ar
    19    12    30    1
    20    13    12   ar
    21    13    31    1
    22    14    13   ar
    23    14    32    1
    24    15    14   ar
    25    15    10   ar
    26    16    15    1
    27    17    16    2
    28    18    16    1
    29    18     8    1
    30    20    19   ar
    31    20    34    1
    32    21    20   ar
    33    21    35    1
    34    22    21   ar
    35    23    22   ar
    36    23    19   ar
    37    18    19    1
    38    18    33    1
