@<TRIPOS>MOLECULE
mol_235_akc_jexppara201901011
>227.sdf
 52 56 0 0 0
SMALL
GASTEIGER

@<TRIPOS>ATOM
      1 C           0.9319   -0.1808    0.0973 C.3     1  UNL1       -0.0612
      2 C           2.4398   -0.0540   -0.0278 C.3     1  UNL1       -0.0288
      3 C           3.0102   -0.9757   -1.0832 C.ar    1  UNL1       -0.0265
      4 C           3.4023   -2.2641   -0.6745 C.ar    1  UNL1       -0.0568
      5 C           3.9750   -3.1544   -1.5723 C.ar    1  UNL1       -0.0611
      6 C           4.1905   -2.7560   -2.8845 C.ar    1  UNL1       -0.0562
      7 C           3.8418   -1.4599   -3.3154 C.ar    1  UNL1       -0.0185
      8 C           3.1990   -0.5770   -2.4269 C.ar    1  UNL1        0.0351
      9 N           2.7171    0.6491   -2.8881 N.pl3   1  UNL1       -0.3262
     10 C           3.4819    1.3264   -3.9325 C.3     1  UNL1        0.1397
     11 C           3.7611    0.3972   -5.1471 C.3     1  UNL1        0.0011
     12 C           2.5724    0.3174   -6.1318 C.3     1  UNL1       -0.0588
     13 C           4.1654   -1.0566   -4.7482 C.3     1  UNL1        0.0163
     14 C           5.6167   -1.3335   -5.1793 C.ar    1  UNL1       -0.0396
     15 C           6.7048   -1.1216   -4.3219 C.ar    1  UNL1       -0.0580
     16 C           8.0199   -1.3011   -4.7501 C.ar    1  UNL1       -0.0615
     17 C           8.2712   -1.7361   -6.0465 C.ar    1  UNL1       -0.0617
     18 C           7.2060   -1.9925   -6.9055 C.ar    1  UNL1       -0.0615
     19 C           5.8886   -1.7859   -6.4810 C.ar    1  UNL1       -0.0580
     20 C           2.6950    2.6224   -4.4211 C.2     1  UNL1        0.2455
     21 O           1.5140    2.7329   -4.7055 O.2     1  UNL1       -0.2727
     22 N           3.6075    3.6727   -4.4607 N.am    1  UNL1       -0.2831
     23 C           4.7842    3.3317   -3.8241 C.ar    1  UNL1        0.0392
     24 C           5.8434    4.1773   -3.5527 C.ar    1  UNL1       -0.0401
     25 C           6.8870    3.6730   -2.7769 C.ar    1  UNL1       -0.0600
     26 C           6.8136    2.3797   -2.2446 C.ar    1  UNL1       -0.0613
     27 C           5.7176    1.5557   -2.5205 C.ar    1  UNL1       -0.0543
     28 C           4.7301    2.0098   -3.3787 C.ar    1  UNL1        0.0061
     29 H           0.5599    0.5108    0.8600 H       1  UNL1        0.0233
     30 H           0.4302    0.0505   -0.8474 H       1  UNL1        0.0233
     31 H           0.6457   -1.1954    0.3933 H       1  UNL1        0.0233
     32 H           2.7216    0.9856   -0.2284 H       1  UNL1        0.0311
     33 H           2.9049   -0.2818    0.9403 H       1  UNL1        0.0311
     34 H           3.2603   -2.5773    0.3579 H       1  UNL1        0.0621
     35 H           4.2675   -4.1498   -1.2492 H       1  UNL1        0.0618
     36 H           4.6545   -3.4566   -3.5763 H       1  UNL1        0.0621
     37 H           2.3512    1.2804   -2.1869 H       1  UNL1        0.1474
     38 H           4.5706    0.8495   -5.7398 H       1  UNL1        0.0336
     39 H           1.6497    0.0152   -5.6266 H       1  UNL1        0.0234
     40 H           2.4028    1.2788   -6.6283 H       1  UNL1        0.0234
     41 H           2.7738   -0.4000   -6.9353 H       1  UNL1        0.0234
     42 H           3.5542   -1.7532   -5.3431 H       1  UNL1        0.0401
     43 H           6.5479   -0.8322   -3.2916 H       1  UNL1        0.0620
     44 H           8.8408   -1.1061   -4.0658 H       1  UNL1        0.0618
     45 H           9.2944   -1.8794   -6.3798 H       1  UNL1        0.0618
     46 H           7.4014   -2.3499   -7.9135 H       1  UNL1        0.0618
     47 H           5.0758   -1.9865   -7.1750 H       1  UNL1        0.0620
     48 H           3.3387    4.6073   -4.7328 H       1  UNL1        0.1549
     49 H           5.8672    5.1960   -3.9193 H       1  UNL1        0.0636
     50 H           7.7514    4.2965   -2.5580 H       1  UNL1        0.0618
     51 H           7.6147    2.0105   -1.6075 H       1  UNL1        0.0618
     52 H           5.6536    0.5806   -2.0523 H       1  UNL1        0.0622
@<TRIPOS>BOND
     1     1    29    1
     2     1    30    1
     3     1    31    1
     4     2     1    1
     5     2    32    1
     6     2    33    1
     7     3     2    1
     8     4     3   ar
     9     4    34    1
    10     5     4   ar
    11     5    35    1
    12     6     5   ar
    13     6    36    1
    14     7     6   ar
    15     8     7   ar
    16     8     3   ar
    17     9     8    1
    18     9    37    1
    19    10     9    1
    20    11    10    1
    21    11    38    1
    22    12    11    1
    23    12    39    1
    24    12    40    1
    25    12    41    1
    26    13    11    1
    27    13     7    1
    28    15    14   ar
    29    15    43    1
    30    16    15   ar
    31    16    44    1
    32    17    16   ar
    33    17    45    1
    34    18    17   ar
    35    18    46    1
    36    19    18   ar
    37    19    14   ar
    38    19    47    1
    39    20    10    1
    40    21    20    2
    41    22    20   am
    42    22    48    1
    43    23    22    1
    44    24    23   ar
    45    24    49    1
    46    25    24   ar
    47    25    50    1
    48    26    25   ar
    49    26    51    1
    50    27    26   ar
    51    27    52    1
    52    28    27   ar
    53    28    10    1
    54    28    23   ar
    55    13    14    1
    56    13    42    1
