@<TRIPOS>MOLECULE
mol_236_akc_jactatropica201812036
>228.sdf
 35 37 0 0 0
SMALL
GASTEIGER

@<TRIPOS>ATOM
      1 F           2.0586    0.0323    1.2370 F       1  UNL1       -0.2055
      2 C           0.7478    0.0061    0.9665 C.ar    1  UNL1        0.1234
      3 C          -0.1603   -0.2037    1.9973 C.ar    1  UNL1       -0.0262
      4 C          -1.5281   -0.2247    1.7186 C.ar    1  UNL1       -0.0558
      5 C          -1.9869   -0.0404    0.4052 C.ar    1  UNL1       -0.0457
      6 C          -3.4705   -0.0085    0.1103 C.3     1  UNL1       -0.0121
      7 C          -4.0063    1.4274    0.1600 C.3     1  UNL1        0.0131
      8 N          -5.4539    1.4634   -0.0945 N.pl3   1  UNL1       -0.3430
      9 C          -6.0925    2.7307   -0.0840 C.ar    1  UNL1        0.0378
     10 C          -5.3982    3.8885   -0.4518 C.ar    1  UNL1       -0.0221
     11 C          -6.0571    5.1010   -0.4748 C.ar    1  UNL1        0.0300
     12 N          -7.3601    5.2501   -0.1870 N.ar    1  UNL1       -0.2548
     13 C          -8.0635    4.1512    0.1086 C.ar    1  UNL1        0.0741
     14 C          -9.4135    4.3288    0.3648 C.ar    1  UNL1       -0.0173
     15 C         -10.2388    3.2517    0.6681 C.ar    1  UNL1        0.0430
     16 CL        -11.9101    3.5149    0.9788 Cl      1  UNL1       -0.0835
     17 C          -9.7201    1.9671    0.7151 C.ar    1  UNL1       -0.0426
     18 C          -8.3615    1.7663    0.4595 C.ar    1  UNL1       -0.0494
     19 C          -7.4956    2.8514    0.1606 C.ar    1  UNL1        0.0213
     20 C          -1.0534    0.1720   -0.6222 C.ar    1  UNL1       -0.0558
     21 C           0.3135    0.1939   -0.3401 C.ar    1  UNL1       -0.0262
     22 H           0.2024   -0.3441    3.0105 H       1  UNL1        0.0646
     23 H          -2.2317   -0.3805    2.5332 H       1  UNL1        0.0621
     24 H          -3.6577   -0.4490   -0.8777 H       1  UNL1        0.0328
     25 H          -4.0052   -0.6446    0.8267 H       1  UNL1        0.0328
     26 H          -3.7998    1.8666    1.1445 H       1  UNL1        0.0464
     27 H          -3.4663    2.0081   -0.5955 H       1  UNL1        0.0464
     28 H          -5.9470    0.8043    0.5016 H       1  UNL1        0.1461
     29 H          -4.3519    3.8798   -0.7278 H       1  UNL1        0.0651
     30 H          -5.5337    6.0144   -0.7416 H       1  UNL1        0.0830
     31 H          -9.8258    5.3330    0.3207 H       1  UNL1        0.0653
     32 H         -10.3618    1.1206    0.9452 H       1  UNL1        0.0632
     33 H          -7.9894    0.7471    0.4880 H       1  UNL1        0.0625
     34 H          -1.3858    0.3271   -1.6468 H       1  UNL1        0.0621
     35 H           1.0417    0.3598   -1.1279 H       1  UNL1        0.0646
@<TRIPOS>BOND
     1     2     1    1
     2     3     2   ar
     3     3    22    1
     4     4     3   ar
     5     4    23    1
     6     5     4   ar
     7     6     5    1
     8     6    24    1
     9     6    25    1
    10     7     6    1
    11     7    26    1
    12     7    27    1
    13     8     7    1
    14     8    28    1
    15     9     8    1
    16    10     9   ar
    17    10    29    1
    18    11    10   ar
    19    11    30    1
    20    12    11   ar
    21    13    12   ar
    22    14    13   ar
    23    14    31    1
    24    15    14   ar
    25    16    15    1
    26    17    15   ar
    27    17    32    1
    28    18    17   ar
    29    18    33    1
    30    19    18   ar
    31    19     9   ar
    32    19    13   ar
    33    20     5   ar
    34    20    34    1
    35    21    20   ar
    36    21     2   ar
    37    21    35    1
