@<TRIPOS>MOLECULE
mol_237_akc_jjmgm201811014
>229.sdf
 32 32 0 0 0
SMALL
GASTEIGER

@<TRIPOS>ATOM
      1 O           3.4894    0.8327   -3.4245 O.3     1  UNL1       -0.3898
      2 C           2.5698    1.1372   -2.3760 C.3     1  UNL1        0.0841
      3 C           2.9015    0.2391   -1.1804 C.3     1  UNL1       -0.0076
      4 N           4.4025    0.2680   -0.9244 N.4     1  UNL1        0.2444
      5 C           4.8730    1.5145   -0.2079 C.3     1  UNL1       -0.0022
      6 C           6.4068    1.5709   -0.2033 C.3     1  UNL1        0.1231
      7 O           6.8555    1.7671   -1.5483 O.3     1  UNL1       -0.3838
      8 C           7.0092    0.3028    0.4249 C.3     1  UNL1        0.1171
      9 O           6.7009    0.2370    1.8133 O.3     1  UNL1       -0.3862
     10 C           6.4934   -0.9609   -0.2876 C.3     1  UNL1        0.1281
     11 O           6.9792   -0.9253   -1.6432 O.3     1  UNL1       -0.3835
     12 C           4.9488   -1.0372   -0.3177 C.3     1  UNL1        0.0319
     13 C           4.3165   -1.3660    1.0530 C.3     1  UNL1        0.0894
     14 O           2.9329   -1.6825    0.8974 O.3     1  UNL1       -0.3894
     15 H           3.1617    1.2773   -4.2313 H       1  UNL1        0.2096
     16 H           2.6683    2.1965   -2.1253 H       1  UNL1        0.0610
     17 H           1.5469    0.9496   -2.7200 H       1  UNL1        0.0610
     18 H           2.3773    0.5436   -0.2704 H       1  UNL1        0.0837
     19 H           2.6489   -0.7917   -1.4486 H       1  UNL1        0.0837
     20 H           4.8033    0.3254   -1.8836 H       1  UNL1        0.2040
     21 H           4.4513    1.5035    0.8018 H       1  UNL1        0.0841
     22 H           4.4716    2.3702   -0.7584 H       1  UNL1        0.0841
     23 H           6.7149    2.4501    0.3735 H       1  UNL1        0.0674
     24 H           7.2388    0.9288   -1.8877 H       1  UNL1        0.2101
     25 H           8.1008    0.3361    0.3150 H       1  UNL1        0.0649
     26 H           7.3557    0.7853    2.2919 H       1  UNL1        0.2100
     27 H           6.9020   -1.8543    0.1997 H       1  UNL1        0.0678
     28 H           7.1319   -1.8473   -1.9346 H       1  UNL1        0.2102
     29 H           4.6548   -1.8098   -1.0401 H       1  UNL1        0.0901
     30 H           4.8088   -2.2420    1.4881 H       1  UNL1        0.0614
     31 H           4.3832   -0.5390    1.7640 H       1  UNL1        0.0614
     32 H           2.6156   -2.0250    1.7557 H       1  UNL1        0.2097
@<TRIPOS>UNITY_ATOM_ATTR
4 1
charge 1
@<TRIPOS>BOND
     1     1    15    1
     2     2     1    1
     3     2    16    1
     4     2    17    1
     5     3     2    1
     6     3    18    1
     7     3    19    1
     8     4     3    1
     9     4    20    1
    10     5     4    1
    11     5    21    1
    12     5    22    1
    13     6     5    1
    14     6    23    1
    15     7     6    1
    16     7    24    1
    17     8     6    1
    18     8    25    1
    19     9     8    1
    20     9    26    1
    21    10     8    1
    22    11    28    1
    23    12    10    1
    24    12     4    1
    25    12    29    1
    26    13    12    1
    27    13    30    1
    28    13    31    1
    29    14    13    1
    30    14    32    1
    31    10    11    1
    32    10    27    1
