@<TRIPOS>MOLECULE
mol_238_akc_jbioorg201811037
>230.sdf
 64 69 0 0 0
SMALL
GASTEIGER

@<TRIPOS>ATOM
      1 C          -0.3658   -0.5091    1.7051 C.3     1  UNL1        0.0788
      2 O           0.4021    0.6682    1.4795 O.3     1  UNL1       -0.4951
      3 C           1.2591    1.0386    2.4773 C.ar    1  UNL1        0.1202
      4 C           1.3866    0.4209    3.7116 C.ar    1  UNL1       -0.0182
      5 C           2.2930    0.9204    4.6587 C.ar    1  UNL1       -0.0372
      6 C           3.1244    2.0296    4.4160 C.ar    1  UNL1        0.0300
      7 C           2.9707    2.6317    3.1599 C.ar    1  UNL1       -0.0372
      8 C           2.0530    2.1499    2.2089 C.ar    1  UNL1       -0.0182
      9 N           3.9768    2.5204    5.3953 N.pl3   1  UNL1       -0.3269
     10 C           4.5756    1.5960    6.3894 C.3     1  UNL1        0.0280
     11 C           4.6210    2.3320    7.7357 C.3     1  UNL1        0.0308
     12 N           5.5215    3.4822    7.6081 N.am    1  UNL1       -0.2933
     13 C           5.0735    4.4447    6.6039 C.3     1  UNL1        0.0308
     14 C           4.7634    3.7738    5.2302 C.3     1  UNL1        0.0280
     15 C           6.8128    3.5624    8.1550 C.2     1  UNL1        0.2651
     16 O           7.5148    4.5686    8.0477 O.2     1  UNL1       -0.2683
     17 C           7.3409    2.3923    8.9208 C.ar    1  UNL1        0.1269
     18 N           7.1019    1.1658    8.3776 N.ar    1  UNL1       -0.2400
     19 C           7.3751    0.0566    9.1131 C.ar    1  UNL1        0.0958
     20 C           7.5607    0.2897   10.4774 C.ar    1  UNL1        0.0762
     21 N           7.5485   -0.5180   11.5801 N.ar    1  UNL1       -0.3412
     22 C           6.3642   -1.1675   12.0991 C.3     1  UNL1        0.0125
     23 C           8.7162   -0.3267   12.2682 C.ar    1  UNL1        0.0499
     24 C           9.1752    0.9410   11.8806 C.ar    1  UNL1        0.0077
     25 C          10.3884    1.3936   12.4320 C.ar    1  UNL1       -0.0520
     26 C          11.1141    0.5378   13.2762 C.ar    1  UNL1       -0.0611
     27 C          10.6236   -0.7149   13.6343 C.ar    1  UNL1       -0.0598
     28 C           9.3827   -1.1566   13.1745 C.ar    1  UNL1       -0.0376
     29 C           8.2855    1.4231   10.8552 C.ar    1  UNL1        0.0119
     30 C           8.1112    2.5767   10.0733 C.ar    1  UNL1       -0.0214
     31 C           8.2865   -0.9409    8.4995 C.ar    1  UNL1        0.0024
     32 C           9.3923   -0.4834    7.7476 C.ar    1  UNL1       -0.0525
     33 C          10.4472   -1.3298    7.4042 C.ar    1  UNL1       -0.0611
     34 C          10.4089   -2.6651    7.7885 C.ar    1  UNL1       -0.0617
     35 C           9.3071   -3.1533    8.4899 C.ar    1  UNL1       -0.0611
     36 C           8.2517   -2.3015    8.8387 C.ar    1  UNL1       -0.0525
     37 H           0.2822   -1.3834    1.8299 H       1  UNL1        0.0660
     38 H          -1.0354   -0.3892    2.5638 H       1  UNL1        0.0660
     39 H          -0.9888   -0.6792    0.8219 H       1  UNL1        0.0660
     40 H           0.7891   -0.4396    3.9913 H       1  UNL1        0.0655
     41 H           2.2928    0.4223    5.6222 H       1  UNL1        0.0637
     42 H           3.5638    3.4944    2.8747 H       1  UNL1        0.0637
     43 H           1.9613    2.6554    1.2508 H       1  UNL1        0.0655
     44 H           4.0304    0.6617    6.5289 H       1  UNL1        0.0479
     45 H           5.5850    1.3229    6.0543 H       1  UNL1        0.0479
     46 H           3.6261    2.7258    7.9774 H       1  UNL1        0.0480
     47 H           4.8831    1.6716    8.5595 H       1  UNL1        0.0480
     48 H           4.1558    4.9005    6.9954 H       1  UNL1        0.0480
     49 H           5.8067    5.2484    6.4659 H       1  UNL1        0.0480
     50 H           5.7034    3.5366    4.7173 H       1  UNL1        0.0479
     51 H           4.2229    4.5154    4.6328 H       1  UNL1        0.0479
     52 H           6.3899   -2.2267   11.8430 H       1  UNL1        0.0456
     53 H           6.3362   -1.0275   13.1848 H       1  UNL1        0.0456
     54 H           5.4790   -0.6853   11.6709 H       1  UNL1        0.0456
     55 H          10.8143    2.3438   12.1252 H       1  UNL1        0.0624
     56 H          12.0979    0.8424   13.6293 H       1  UNL1        0.0618
     57 H          11.2131   -1.3696   14.2722 H       1  UNL1        0.0618
     58 H           9.0028   -2.1380   13.4378 H       1  UNL1        0.0638
     59 H           8.5192    3.5430   10.3448 H       1  UNL1        0.0647
     60 H           9.4757    0.5732    7.4939 H       1  UNL1        0.0624
     61 H          11.3106   -0.9313    6.8774 H       1  UNL1        0.0618
     62 H          11.2462   -3.3175    7.5572 H       1  UNL1        0.0618
     63 H           9.2892   -4.1945    8.7997 H       1  UNL1        0.0618
     64 H           7.4336   -2.6982    9.4326 H       1  UNL1        0.0624
@<TRIPOS>BOND
     1     1    37    1
     2     1    38    1
     3     1    39    1
     4     2     1    1
     5     3     2    1
     6     4     3   ar
     7     4    40    1
     8     5     4   ar
     9     5    41    1
    10     6     5   ar
    11     7     6   ar
    12     7    42    1
    13     8     7   ar
    14     8     3   ar
    15     8    43    1
    16     9     6    1
    17    10     9    1
    18    10    44    1
    19    10    45    1
    20    11    10    1
    21    11    46    1
    22    11    47    1
    23    12    11    1
    24    13    12    1
    25    13    48    1
    26    13    49    1
    27    14    13    1
    28    14     9    1
    29    14    50    1
    30    14    51    1
    31    15    12   am
    32    16    15    2
    33    17    15    1
    34    18    17   ar
    35    19    18   ar
    36    20    19   ar
    37    21    20   ar
    38    22    21    1
    39    22    52    1
    40    22    53    1
    41    22    54    1
    42    23    21   ar
    43    24    23   ar
    44    25    24   ar
    45    25    55    1
    46    26    25   ar
    47    26    56    1
    48    27    26   ar
    49    27    57    1
    50    28    27   ar
    51    28    23   ar
    52    28    58    1
    53    29    24   ar
    54    29    20   ar
    55    30    29   ar
    56    30    17   ar
    57    30    59    1
    58    31    19    1
    59    32    31   ar
    60    32    60    1
    61    33    32   ar
    62    33    61    1
    63    34    33   ar
    64    34    62    1
    65    35    34   ar
    66    35    63    1
    67    36    35   ar
    68    36    31   ar
    69    36    64    1
