@<TRIPOS>MOLECULE
mol_240_akc_jbioorg201810028
>232.sdf
 31 33 0 0 0
SMALL
GASTEIGER

@<TRIPOS>ATOM
      1 C          -0.6349    0.2880   -3.3065 C.3     1  UNL1        0.0788
      2 O           0.7539   -0.0248   -3.3725 O.3     1  UNL1       -0.4951
      3 C           1.6110    0.8940   -2.8314 C.ar    1  UNL1        0.1208
      4 C           1.2551    2.1680   -2.3996 C.ar    1  UNL1       -0.0093
      5 C           2.1904    2.9772   -1.7347 C.ar    1  UNL1        0.0208
      6 C           3.5136    2.5463   -1.5928 C.ar    1  UNL1       -0.0509
      7 C           3.8820    1.2890   -2.0677 C.ar    1  UNL1       -0.0576
      8 C           2.9284    0.4614   -2.6663 C.ar    1  UNL1       -0.0199
      9 C           1.6545    4.1044   -0.9288 C.ar    1  UNL1        0.1416
     10 N           0.3893    4.3994   -0.9465 N.ar    1  UNL1       -0.2290
     11 C          -0.1536    4.8208    0.2834 C.ar    1  UNL1        0.0785
     12 C           0.6047    4.7108    1.4627 C.ar    1  UNL1        0.0647
     13 C           0.0118    4.7480    2.7206 C.ar    1  UNL1       -0.0474
     14 C          -1.3631    4.9504    2.8090 C.ar    1  UNL1       -0.0609
     15 C          -2.1220    5.1357    1.6470 C.ar    1  UNL1       -0.0597
     16 C          -1.5180    5.0689    0.3869 C.ar    1  UNL1       -0.0355
     17 C           2.0460    4.4550    1.2759 C.ar    1  UNL1        0.2595
     18 O           2.7584    4.0404    2.1839 O.2     1  UNL1       -0.2671
     19 N           2.4929    4.6707   -0.0074 N.ar    1  UNL1       -0.3064
     20 H          -0.9470    0.5556   -2.2895 H       1  UNL1        0.0660
     21 H          -0.8819    1.0855   -4.0148 H       1  UNL1        0.0660
     22 H          -1.1968   -0.6053   -3.5937 H       1  UNL1        0.0660
     23 H           0.2336    2.5224   -2.4923 H       1  UNL1        0.0661
     24 H           4.2454    3.1415   -1.0518 H       1  UNL1        0.0625
     25 H           4.8959    0.9267   -1.9166 H       1  UNL1        0.0619
     26 H           3.2059   -0.5436   -2.9749 H       1  UNL1        0.0654
     27 H           0.6084    4.5788    3.6146 H       1  UNL1        0.0626
     28 H          -1.8508    4.9429    3.7805 H       1  UNL1        0.0618
     29 H          -3.1967    5.2829    1.7215 H       1  UNL1        0.0618
     30 H          -2.1239    5.1333   -0.5128 H       1  UNL1        0.0639
     31 H           2.3507    5.6710   -0.1409 H       1  UNL1        0.1704
@<TRIPOS>BOND
     1     1    20    1
     2     1    21    1
     3     1    22    1
     4     2     1    1
     5     3     2    1
     6     4     3   ar
     7     4    23    1
     8     5     4   ar
     9     6     5   ar
    10     6    24    1
    11     7     6   ar
    12     7    25    1
    13     8     7   ar
    14     8     3   ar
    15     8    26    1
    16     9     5    1
    17    10     9   ar
    18    11    10   ar
    19    12    11   ar
    20    13    12   ar
    21    13    27    1
    22    14    13   ar
    23    14    28    1
    24    15    14   ar
    25    15    29    1
    26    16    15   ar
    27    16    11   ar
    28    16    30    1
    29    17    12   ar
    30    18    17    2
    31    19    17   ar
    32    19     9   ar
    33    19    31    1
