@<TRIPOS>MOLECULE
mol_241_akc_jejmech201812034
>233.sdf
 56 58 0 0 0
SMALL
GASTEIGER

@<TRIPOS>ATOM
      1 N           4.9947    2.4957    1.8611 N.4     1  UNL1        0.2223
      2 C           4.3937    1.3507    1.1021 C.3     1  UNL1        0.0058
      3 C           4.7799    1.3631   -0.4151 C.3     1  UNL1        0.0095
      4 N           4.2998    0.1361   -1.2871 N.4     1  UNL1        0.2464
      5 C           2.7227    0.0095   -1.3237 C.3     1  UNL1        0.0095
      6 C           2.1595   -1.2607   -2.0590 C.3     1  UNL1        0.0058
      7 N           0.6672   -1.3583   -2.0403 N.4     1  UNL1        0.2223
      8 C           4.9038    0.2369   -2.7483 C.3     1  UNL1        0.0096
      9 C           6.4654    0.1746   -2.8141 C.3     1  UNL1        0.0078
     10 N           7.0124    0.2785   -4.1994 N.4     1  UNL1        0.2340
     11 C           8.5294    0.2664   -4.2356 C.3     1  UNL1       -0.0075
     12 C           9.0054    0.4023   -5.6432 C.ar    1  UNL1       -0.0027
     13 C           9.2110   -0.7468   -6.4229 C.ar    1  UNL1       -0.0495
     14 C           9.6301   -0.5788   -7.7300 C.ar    1  UNL1       -0.0349
     15 C           9.8397    0.7010   -8.2803 C.ar    1  UNL1       -0.0141
     16 C           9.6241    1.8403   -7.5236 C.ar    1  UNL1       -0.0533
     17 C           9.2025    1.6868   -6.2008 C.ar    1  UNL1       -0.0530
     18 C          10.3148    0.5561   -9.6375 C.ar    1  UNL1       -0.0141
     19 C          10.6859    1.5059  -10.5716 C.ar    1  UNL1       -0.0538
     20 C          11.1451    1.0656  -11.8156 C.ar    1  UNL1       -0.0612
     21 C          11.2259   -0.3059  -12.1112 C.ar    1  UNL1       -0.0615
     22 C          10.8490   -1.2655  -11.1695 C.ar    1  UNL1       -0.0577
     23 C          10.3973   -0.8218   -9.9396 C.ar    1  UNL1       -0.0353
     24 C           9.9611   -1.6515   -8.7554 C.3     1  UNL1       -0.0013
     25 H           4.6810    2.4824    2.8526 H       1  UNL1        0.1996
     26 H           6.0274    2.4908    1.9422 H       1  UNL1        0.1996
     27 H           4.7257    3.4431    1.5389 H       1  UNL1        0.1996
     28 H           4.7527    0.4371    1.5847 H       1  UNL1        0.0866
     29 H           3.3126    1.4358    1.2316 H       1  UNL1        0.0866
     30 H           4.3985    2.2582   -0.9120 H       1  UNL1        0.0868
     31 H           5.8716    1.3534   -0.4732 H       1  UNL1        0.0868
     32 H           4.6714   -0.7302   -0.8521 H       1  UNL1        0.2040
     33 H           2.4099   -0.0249   -0.2764 H       1  UNL1        0.0868
     34 H           2.3553    0.9301   -1.7878 H       1  UNL1        0.0868
     35 H           2.4390   -1.2597   -3.1151 H       1  UNL1        0.0866
     36 H           2.5369   -2.1730   -1.5875 H       1  UNL1        0.0866
     37 H           0.2286   -1.4473   -1.1070 H       1  UNL1        0.1996
     38 H           0.1597   -0.6052   -2.5395 H       1  UNL1        0.1996
     39 H           0.3537   -2.2204   -2.5315 H       1  UNL1        0.1996
     40 H           4.4959   -0.6111   -3.3037 H       1  UNL1        0.0868
     41 H           4.5213    1.1716   -3.1711 H       1  UNL1        0.0868
     42 H           6.9061    1.0044   -2.2574 H       1  UNL1        0.0867
     43 H           6.8183   -0.7744   -2.3969 H       1  UNL1        0.0867
     44 H           6.7327   -0.4896   -4.8337 H       1  UNL1        0.2019
     45 H           6.7492    1.1425   -4.7048 H       1  UNL1        0.2019
     46 H           8.8761    1.0981   -3.6121 H       1  UNL1        0.0866
     47 H           8.8558   -0.6763   -3.7830 H       1  UNL1        0.0866
     48 H           9.0923   -1.7527   -6.0307 H       1  UNL1        0.0625
     49 H           9.8041    2.8265   -7.9418 H       1  UNL1        0.0624
     50 H           9.0684    2.5920   -5.6095 H       1  UNL1        0.0622
     51 H          10.6442    2.5684  -10.3576 H       1  UNL1        0.0624
     52 H          11.4549    1.7913  -12.5666 H       1  UNL1        0.0618
     53 H          11.5968   -0.6211  -13.0858 H       1  UNL1        0.0618
     54 H          10.9253   -2.3225  -11.4028 H       1  UNL1        0.0621
     55 H           9.0702   -2.2389   -8.9963 H       1  UNL1        0.0362
     56 H          10.7778   -2.2839   -8.3972 H       1  UNL1        0.0362
@<TRIPOS>UNITY_ATOM_ATTR
1 1
charge 1
4 1
charge 1
7 1
charge 1
10 1
charge 1
@<TRIPOS>BOND
     1     1    25    1
     2     1    26    1
     3     1    27    1
     4     2     1    1
     5     2    28    1
     6     2    29    1
     7     3     2    1
     8     3    30    1
     9     3    31    1
    10     4     3    1
    11     4    32    1
    12     5     4    1
    13     5    33    1
    14     5    34    1
    15     6     5    1
    16     6    35    1
    17     6    36    1
    18     7     6    1
    19     7    37    1
    20     7    38    1
    21     7    39    1
    22     8     4    1
    23     8    40    1
    24     8    41    1
    25     9     8    1
    26     9    42    1
    27     9    43    1
    28    10     9    1
    29    10    44    1
    30    10    45    1
    31    11    10    1
    32    11    46    1
    33    11    47    1
    34    12    11    1
    35    13    12   ar
    36    13    48    1
    37    14    13   ar
    38    15    14   ar
    39    16    15   ar
    40    16    49    1
    41    17    16   ar
    42    17    12   ar
    43    17    50    1
    44    18    15    1
    45    19    18   ar
    46    19    51    1
    47    20    19   ar
    48    20    52    1
    49    21    20   ar
    50    21    53    1
    51    22    21   ar
    52    22    54    1
    53    23    22   ar
    54    23    18   ar
    55    24    23    1
    56    24    14    1
    57    24    55    1
    58    24    56    1
