@<TRIPOS>MOLECULE
mol_242_akc_jejmech201810065
>234.sdf
 70 75 0 0 0
SMALL
GASTEIGER

@<TRIPOS>ATOM
      1 C           3.9135    0.9496   -2.2559 C.3     1  UNL1        0.0788
      2 O           4.1033    2.3047   -1.8377 O.3     1  UNL1       -0.4951
      3 C           4.1448    2.4651   -0.4797 C.ar    1  UNL1        0.1201
      4 C           3.3859    1.7213    0.4115 C.ar    1  UNL1       -0.0196
      5 C           3.6349    1.8170    1.7831 C.ar    1  UNL1       -0.0534
      6 C           4.6750    2.6129    2.2878 C.ar    1  UNL1       -0.0270
      7 C           5.2873    3.5029    1.3911 C.ar    1  UNL1       -0.0534
      8 C           5.0204    3.4286    0.0161 C.ar    1  UNL1       -0.0196
      9 C           5.3176    2.3658    3.6610 C.3     1  UNL1        0.0468
     10 C           5.6665    0.8903    3.8906 C.3     1  UNL1       -0.0195
     11 C           4.5323    0.0636    4.5457 C.3     1  UNL1        0.0130
     12 C           4.3218   -1.3109    3.8946 C.ar    1  UNL1       -0.0398
     13 C           4.0835   -2.4252    4.7199 C.ar    1  UNL1       -0.0577
     14 C           3.9039   -3.7039    4.1815 C.ar    1  UNL1       -0.0586
     15 C           3.9645   -3.9049    2.8023 C.ar    1  UNL1       -0.0504
     16 C           3.8036   -5.2751    2.2099 C.3     1  UNL1       -0.0397
     17 C           4.1867   -2.8072    1.9671 C.ar    1  UNL1       -0.0586
     18 C           4.3596   -1.5259    2.5120 C.ar    1  UNL1       -0.0577
     19 C           3.2786    0.8764    4.8791 C.ar    1  UNL1       -0.0184
     20 C           2.0027    0.3000    4.9877 C.ar    1  UNL1       -0.0562
     21 C           0.9250    1.0633    5.4154 C.ar    1  UNL1       -0.0608
     22 C           1.1214    2.3650    5.8767 C.ar    1  UNL1       -0.0518
     23 C           2.3917    2.9501    5.8640 C.ar    1  UNL1        0.0064
     24 P           2.7780    4.4938    6.7900 P.3     1  UNL1       -0.0113
     25 C           1.7955    5.7841    5.9782 C.ar    1  UNL1       -0.0146
     26 C           0.9139    6.6370    6.6614 C.ar    1  UNL1       -0.0535
     27 C           0.2385    7.6680    6.0019 C.ar    1  UNL1       -0.0611
     28 C           0.4715    7.9005    4.6511 C.ar    1  UNL1       -0.0617
     29 C           1.3751    7.0986    3.9615 C.ar    1  UNL1       -0.0611
     30 C           2.0244    6.0481    4.6169 C.ar    1  UNL1       -0.0535
     31 C           2.0498    4.2438    8.4502 C.ar    1  UNL1       -0.0146
     32 C           2.9208    4.2593    9.5542 C.ar    1  UNL1       -0.0535
     33 C           2.4436    4.1201   10.8637 C.ar    1  UNL1       -0.0611
     34 C           1.0816    3.9543   11.0994 C.ar    1  UNL1       -0.0617
     35 C           0.2010    3.9319   10.0247 C.ar    1  UNL1       -0.0611
     36 C           0.6816    4.0811    8.7185 C.ar    1  UNL1       -0.0535
     37 C           3.4214    2.2539    5.1743 C.ar    1  UNL1        0.0397
     38 N           4.6175    2.9084    4.8215 N.pl3   1  UNL1       -0.3362
     39 H           4.4521    0.2327   -1.6228 H       1  UNL1        0.0660
     40 H           2.8459    0.7090   -2.2837 H       1  UNL1        0.0660
     41 H           4.3106    0.8468   -3.2708 H       1  UNL1        0.0660
     42 H           2.6363    1.0149    0.0674 H       1  UNL1        0.0654
     43 H           3.0542    1.1648    2.4228 H       1  UNL1        0.0622
     44 H           6.0471    4.2008    1.7358 H       1  UNL1        0.0622
     45 H           5.5615    4.0693   -0.6752 H       1  UNL1        0.0654
     46 H           6.2828    2.8912    3.6328 H       1  UNL1        0.0548
     47 H           6.5268    0.8529    4.5765 H       1  UNL1        0.0295
     48 H           6.0489    0.4463    2.9650 H       1  UNL1        0.0295
     49 H           4.9341   -0.1750    5.5447 H       1  UNL1        0.0398
     50 H           4.0339   -2.3022    5.8007 H       1  UNL1        0.0621
     51 H           3.7246   -4.5396    4.8548 H       1  UNL1        0.0620
     52 H           2.9292   -5.3039    1.5512 H       1  UNL1        0.0278
     53 H           4.6957   -5.5433    1.6343 H       1  UNL1        0.0278
     54 H           3.6667   -6.0357    2.9856 H       1  UNL1        0.0278
     55 H           4.2384   -2.9351    0.8870 H       1  UNL1        0.0620
     56 H           4.5460   -0.7147    1.8162 H       1  UNL1        0.0621
     57 H           1.8316   -0.7388    4.7191 H       1  UNL1        0.0621
     58 H          -0.0706    0.6273    5.4462 H       1  UNL1        0.0618
     59 H           0.2605    2.9009    6.2524 H       1  UNL1        0.0625
     60 H           0.7452    6.5375    7.7299 H       1  UNL1        0.0624
     61 H          -0.4525    8.3003    6.5538 H       1  UNL1        0.0618
     62 H          -0.0369    8.7143    4.1424 H       1  UNL1        0.0618
     63 H           1.5871    7.2941    2.9136 H       1  UNL1        0.0618
     64 H           2.7372    5.4532    4.0494 H       1  UNL1        0.0624
     65 H           3.9918    4.3929    9.4088 H       1  UNL1        0.0624
     66 H           3.1367    4.1500   11.7001 H       1  UNL1        0.0618
     67 H           0.7089    3.8493   12.1132 H       1  UNL1        0.0618
     68 H          -0.8655    3.8103   10.1977 H       1  UNL1        0.0618
     69 H          -0.0509    4.1029    7.9184 H       1  UNL1        0.0624
     70 H           4.4855    3.9159    4.7809 H       1  UNL1        0.1467
@<TRIPOS>BOND
     1     1    39    1
     2     1    40    1
     3     1    41    1
     4     2     1    1
     5     3     2    1
     6     4     3   ar
     7     4    42    1
     8     5     4   ar
     9     5    43    1
    10     6     5   ar
    11     7     6   ar
    12     7    44    1
    13     8     7   ar
    14     8     3   ar
    15     8    45    1
    16     9     6    1
    17     9    46    1
    18    10     9    1
    19    10    47    1
    20    10    48    1
    21    11    10    1
    22    11    49    1
    23    12    11    1
    24    13    12   ar
    25    13    50    1
    26    14    13   ar
    27    14    51    1
    28    15    14   ar
    29    16    15    1
    30    16    52    1
    31    16    53    1
    32    16    54    1
    33    17    15   ar
    34    17    55    1
    35    18    17   ar
    36    18    12   ar
    37    18    56    1
    38    19    11    1
    39    20    19   ar
    40    20    57    1
    41    21    20   ar
    42    21    58    1
    43    22    21   ar
    44    22    59    1
    45    23    22   ar
    46    24    23    1
    47    25    24    1
    48    26    25   ar
    49    26    60    1
    50    27    26   ar
    51    27    61    1
    52    28    27   ar
    53    28    62    1
    54    29    28   ar
    55    29    63    1
    56    30    29   ar
    57    30    25   ar
    58    30    64    1
    59    31    24    1
    60    32    31   ar
    61    32    65    1
    62    33    32   ar
    63    33    66    1
    64    34    33   ar
    65    34    67    1
    66    35    34   ar
    67    35    68    1
    68    36    35   ar
    69    36    31   ar
    70    36    69    1
    71    37    23   ar
    72    37    19   ar
    73    38    37    1
    74    38     9    1
    75    38    70    1
