@<TRIPOS>MOLECULE
mol_243_akc_journalpntd0007643
>N1.sdf
 118 123 0 0 0
SMALL
GASTEIGER

@<TRIPOS>ATOM
      1 O          14.3738   -2.9118   -8.1382 O.3     1  UNL1       -0.3650
      2 C          12.1890   -3.5023   -4.5941 C.3     1  UNL1        0.0883
      3 C          11.4688   -2.9096   -5.7942 C.3     1  UNL1       -0.0212
      4 C          12.4886   -2.3385   -6.7659 C.3     1  UNL1       -0.0191
      5 C          13.4210   -3.4454   -7.2304 C.3     1  UNL1        0.0935
      6 C          11.1692   -4.0735   -3.6224 C.3     1  UNL1        0.0964
      7 O          10.1005   -4.8934   -4.3805 O.3     1  UNL1       -0.3393
      8 C           9.8156   -6.0329   -3.3830 C.3     1  UNL1        0.1786
      9 O           8.6011   -5.6875   -2.5188 O.3     1  UNL1       -0.3446
     10 C           8.2622   -6.8841   -1.6244 C.3     1  UNL1        0.0667
     11 C           7.9305   -8.0967   -2.4981 C.3     1  UNL1        0.0004
     12 C           9.1546   -8.4681   -3.3412 C.3     1  UNL1        0.0681
     13 C           9.5788   -7.2840   -4.1029 C.3     1  UNL1        0.0369
     14 C          11.8105   -5.0215   -2.7039 C.3     1  UNL1       -0.0140
     15 C          11.0645   -6.1299   -2.5438 C.3     1  UNL1        0.0134
     16 C          14.1413   -4.0381   -6.0303 C.3     1  UNL1       -0.0333
     17 C          12.6073   -4.5388   -7.9286 C.3     1  UNL1        0.0904
     18 O          13.4842   -5.2383   -8.8481 O.3     1  UNL1       -0.3677
     19 C          13.0391   -5.0692  -10.1975 C.3     1  UNL1        0.0859
     20 C          12.1484   -3.8504  -10.1844 C.3     1  UNL1       -0.0191
     21 C          11.4818   -3.9658   -8.8084 C.3     1  UNL1       -0.0124
     22 C          10.5568   -2.8960   -2.8815 C.3     1  UNL1       -0.0332
     23 C           9.4544   -7.2085   -0.7390 C.3     1  UNL1       -0.0000
     24 C           9.1300   -8.3939    0.1555 C.3     1  UNL1        0.0615
     25 O           7.9460   -8.0944    1.0778 O.3     1  UNL1       -0.3716
     26 C           7.7522   -9.1903    1.9745 C.3     1  UNL1        0.0797
     27 C           8.8682   -9.4495    2.8281 C.3     1  UNL1       -0.0161
     28 C          10.0896   -9.8038    1.9766 C.3     1  UNL1       -0.0457
     29 C          10.3771   -8.6530    1.0072 C.3     1  UNL1       -0.0262
     30 O           8.8176   -9.5171   -4.2370 O.3     1  UNL1       -0.3792
     31 C           9.9485   -9.8662   -5.0216 C.3     1  UNL1        0.0368
     32 C           8.3892   -6.9753   -4.9974 C.3     1  UNL1       -0.0551
     33 C          10.6755   -6.2648   -1.0806 C.3     1  UNL1       -0.0574
     34 C          12.3002   -6.2973  -10.7036 C.3     1  UNL1        0.0907
     35 O          11.0652   -6.5923   -9.8460 O.3     1  UNL1       -0.3404
     36 C          10.3120   -7.7828  -10.4477 C.3     1  UNL1        0.1937
     37 C           9.9481   -7.4645  -11.8999 C.3     1  UNL1        0.0128
     38 C          11.1375   -7.1695  -12.6346 C.3     1  UNL1       -0.0405
     39 C          11.8590   -6.0368  -12.1457 C.3     1  UNL1       -0.0146
     40 C          11.0315   -2.6049   -8.3029 C.3     1  UNL1       -0.0599
     41 C           7.5591  -10.4301    1.1165 C.3     1  UNL1        0.1032
     42 C           8.7932  -10.6481    0.2562 C.1     1  UNL1        0.2392
     43 O           9.8250  -10.8303   -0.4631 O.2     1  UNL1       -0.2050
     44 C           8.5405  -10.6107    3.7526 C.3     1  UNL1       -0.0600
     45 O          11.1340   -8.9398  -10.4037 O.3     1  UNL1       -0.3626
     46 C           9.0437   -8.0382   -9.6498 C.3     1  UNL1        0.0982
     47 O           8.2173   -6.8844   -9.6943 O.3     1  UNL1       -0.3897
     48 C           9.2518   -8.6636  -12.5226 C.3     1  UNL1       -0.0574
     49 C          13.0832   -5.8018  -13.0156 C.3     1  UNL1       -0.0600
     50 C           6.3445  -10.2431    0.2220 C.3     1  UNL1       -0.0442
     51 O             -nan      -nan      -nan O.2     1  UNL1       -0.2050
     52 H          12.9428   -7.1515  -10.6559 H       1  UNL1        0.0626
     53 H          13.8736   -4.9143  -10.8490 H       1  UNL1        0.0622
     54 H          12.1926   -5.1576   -7.1606 H       1  UNL1        0.0627
     55 H          12.8454   -4.2815   -4.9211 H       1  UNL1        0.0625
     56 H           6.9022   -8.9762    2.5882 H       1  UNL1        0.0612
     57 H          10.8124   -2.1304   -5.4672 H       1  UNL1        0.0292
     58 H          10.9002   -3.6736   -6.2820 H       1  UNL1        0.0292
     59 H          13.0572   -1.5745   -6.2780 H       1  UNL1        0.0294
     60 H          11.9816   -1.9212   -7.6107 H       1  UNL1        0.0294
     61 H           7.4181   -6.6440   -1.0122 H       1  UNL1        0.0599
     62 H           7.6626   -8.9237   -1.8742 H       1  UNL1        0.0315
     63 H           7.1116   -7.8577   -3.1441 H       1  UNL1        0.0315
     64 H           9.9497   -8.7965   -2.7049 H       1  UNL1        0.0601
     65 H          10.4917   -7.5393   -4.5992 H       1  UNL1        0.0375
     66 H          11.9181   -4.5471   -1.7509 H       1  UNL1        0.0298
     67 H          12.7652   -5.2984   -3.0998 H       1  UNL1        0.0298
     68 H          11.6306   -6.9856   -2.8475 H       1  UNL1        0.0351
     69 H          11.4566   -3.8097  -10.9997 H       1  UNL1        0.0294
     70 H          12.7195   -2.9493  -10.2665 H       1  UNL1        0.0294
     71 H          10.6003   -4.5723   -8.8153 H       1  UNL1        0.0325
     72 H          10.2861   -7.4145   -1.3799 H       1  UNL1        0.0315
     73 H           9.6948   -6.3884   -0.0952 H       1  UNL1        0.0315
     74 H           8.8728   -9.2047   -0.4935 H       1  UNL1        0.0597
     75 H           9.0808   -8.5783    3.4119 H       1  UNL1        0.0323
     76 H           9.8960  -10.6997    1.4246 H       1  UNL1        0.0269
     77 H          10.9368   -9.9569    2.6120 H       1  UNL1        0.0269
     78 H          11.1998   -8.9114    0.3737 H       1  UNL1        0.0290
     79 H          10.6231   -7.7709    1.5606 H       1  UNL1        0.0290
     80 H           9.2933   -6.6187  -11.9265 H       1  UNL1        0.0351
     81 H          11.7834   -8.0160  -12.5292 H       1  UNL1        0.0273
     82 H          10.8659   -6.9813  -13.6523 H       1  UNL1        0.0273
     83 H          11.2292   -5.1723  -12.1757 H       1  UNL1        0.0324
     84 H           7.4096  -11.2810    1.7478 H       1  UNL1        0.0507
     85 H           8.5182   -8.8697  -10.0710 H       1  UNL1        0.0611
     86 H           9.2989   -8.2552   -8.6336 H       1  UNL1        0.0611
     87 H          11.0421   -9.5900  -11.1579 H       1  UNL1        0.2128
     88 H          12.7987   -5.8071  -14.0471 H       1  UNL1        0.0233
     89 H          13.5072   -4.8512  -12.7675 H       1  UNL1        0.0233
     90 H          13.8058   -6.5713  -12.8409 H       1  UNL1        0.0233
     91 H          11.3244   -2.3663   -2.3571 H       1  UNL1        0.0258
     92 H          10.0856   -2.2394   -3.5827 H       1  UNL1        0.0258
     93 H           9.8292   -3.2535   -2.1831 H       1  UNL1        0.0258
     94 H           8.3612   -8.8844  -11.9722 H       1  UNL1        0.0234
     95 H           8.9976   -8.4409  -13.5378 H       1  UNL1        0.0234
     96 H           9.9064   -9.5096  -12.4961 H       1  UNL1        0.0234
     97 H           8.7084   -6.1072   -9.3007 H       1  UNL1        0.2096
     98 H          11.4815   -2.4134   -7.3512 H       1  UNL1        0.0233
     99 H          11.3244   -1.8438   -8.9956 H       1  UNL1        0.0233
    100 H           9.9664   -2.6033   -8.2006 H       1  UNL1        0.0233
    101 H          14.7976   -4.8173   -6.3573 H       1  UNL1        0.0258
    102 H          14.7098   -3.2741   -5.5425 H       1  UNL1        0.0258
    103 H          13.4234   -4.4401   -5.3463 H       1  UNL1        0.0258
    104 H           6.4941   -9.3922   -0.4093 H       1  UNL1        0.0244
    105 H           6.2086  -11.1158   -0.3820 H       1  UNL1        0.0244
    106 H           5.4758  -10.0897    0.8276 H       1  UNL1        0.0244
    107 H          10.0835   -7.1463   -0.9487 H       1  UNL1        0.0234
    108 H          11.5593   -6.3357   -0.4816 H       1  UNL1        0.0234
    109 H          10.1098   -5.4072   -0.7814 H       1  UNL1        0.0234
    110 H          10.1684   -9.0715   -5.7036 H       1  UNL1        0.0524
    111 H          10.7900  -10.0299   -4.3814 H       1  UNL1        0.0524
    112 H           9.7391  -10.7601   -5.5712 H       1  UNL1        0.0524
    113 H           8.6236   -6.1434   -5.6281 H       1  UNL1        0.0235
    114 H           8.1664   -7.8296   -5.6019 H       1  UNL1        0.0235
    115 H           7.5403   -6.7357   -4.3918 H       1  UNL1        0.0235
    116 H           9.3764  -10.8047    4.3917 H       1  UNL1        0.0233
    117 H           7.6865  -10.3629    4.3477 H       1  UNL1        0.0233
    118 H           8.3279  -11.4821    3.1691 H       1  UNL1        0.0233
@<TRIPOS>BOND
     1     1     2    1
     2     1     5    1
     3     2     6    1
     4     2     3    1
     5     2    55    1
     6     3     4    1
     7     4     5    1
     8     5    17    1
     9     5    16    1
    10     6     7    1
    11     6    14    1
    12     6    22    1
    13     8     7    1
    14     8    13    1
    15     8     9    1
    16     8    15    1
    17     9    10    1
    18    10    11    1
    19    11    12    1
    20    12    13    1
    21    13    32    1
    22    13    65    1
    23    14    15    1
    24    15    33    1
    25    15    68    1
    26    17    18    1
    27    17    21    1
    28    17    54    1
    29    18    19    1
    30    19    20    1
    31    19    53    1
    32    20    21    1
    33    24    29    1
    34    24    25    1
    35    25    26    1
    36    26    27    1
    37    26    41    1
    38    26    56    1
    39    27    28    1
    40    27    44    1
    41    27    75    1
    42    28    29    1
    43    30    31    1
    44    34    35    1
    45    34    39    1
    46    35    36    1
    47    36    37    1
    48    37    38    1
    49    37    48    1
    50    37    80    1
    51    38    39    1
    52    41    50    1
    53    41    42    1
    54    41    84    1
    55    42    51    2
    56    42    43    2
    57    46    47    1
    58    57     3    1
    59    58     3    1
    60    59     4    1
    61    60     4    1
    62    62    11    1
    63    63    11    1
    64    66    14    1
    65    67    14    1
    66    69    20    1
    67    70    20    1
    68    72    23    1
    69    73    23    1
    70    76    28    1
    71    77    28    1
    72    78    29    1
    73    79    29    1
    74    81    38    1
    75    82    38    1
    76    85    46    1
    77    86    46    1
    78    87    45    1
    79    88    49    1
    80    89    49    1
    81    90    49    1
    82    91    22    1
    83    92    22    1
    84    93    22    1
    85    94    48    1
    86    95    48    1
    87    96    48    1
    88    97    47    1
    89    98    40    1
    90    99    40    1
    91   100    40    1
    92   101    16    1
    93   102    16    1
    94   103    16    1
    95   104    50    1
    96   105    50    1
    97   106    50    1
    98   107    33    1
    99   108    33    1
   100   109    33    1
   101   110    31    1
   102   111    31    1
   103   112    31    1
   104   113    32    1
   105   114    32    1
   106   115    32    1
   107   116    44    1
   108   117    44    1
   109   118    44    1
   110    10    61    1
   111    10    23    1
   112    12    64    1
   113    12    30    1
   114    21    71    1
   115    21    40    1
   116    24    74    1
   117    24    23    1
   118    34    52    1
   119    34    19    1
   120    36    45    1
   121    36    46    1
   122    39    83    1
   123    39    49    1
