@<TRIPOS>MOLECULE
mol_244_akc_c8md00475g
>235.sdf
 40 42 0 0 0
SMALL
GASTEIGER

@<TRIPOS>ATOM
      1 C          -0.9519   -3.0783    1.0417 C.3     1  UNL1       -0.0454
      2 C           0.2456   -2.9357    1.9636 C.3     1  UNL1        0.0404
      3 N           1.4850   -3.3107    1.3076 N.ar    1  UNL1       -0.2522
      4 N           1.8974   -4.6013    1.3997 N.ar    1  UNL1       -0.1698
      5 C           3.0660   -4.6386    0.7332 C.ar    1  UNL1        0.0960
      6 C           3.9547   -5.7114    0.5405 C.ar    1  UNL1       -0.0128
      7 C           5.1325   -5.3715   -0.1739 C.ar    1  UNL1        0.0332
      8 N           6.2494   -6.2819   -0.2462 N.pl3   1  UNL1       -0.3172
      9 C           6.0699   -7.6827   -0.2579 C.2     1  UNL1        0.0228
     10 C           5.7065   -8.1666   -1.6530 C.3     1  UNL1       -0.0256
     11 C           6.2612   -8.4877    0.8279 C.2     1  UNL1        0.1226
     12 C           6.1012   -9.9655    0.8084 C.2     1  UNL1        0.3494
     13 O           6.0814  -10.6467   -0.2086 O.2     1  UNL1       -0.2443
     14 O           5.9829  -10.5725    2.0285 O.3     1  UNL1       -0.4268
     15 C           6.1299   -9.9063    3.2577 C.2     1  UNL1        0.1097
     16 C           5.9697  -10.7770    4.4633 C.3     1  UNL1       -0.0061
     17 C           6.4445   -8.6143    3.3415 C.2     1  UNL1        0.0239
     18 C           6.6249   -7.8317    2.1172 C.2     1  UNL1        0.1975
     19 O           7.0574   -6.6852    2.2073 O.2     1  UNL1       -0.2869
     20 C           5.3776   -4.0414   -0.6644 C.ar    1  UNL1       -0.0398
     21 C           4.4915   -2.9538   -0.5171 C.ar    1  UNL1       -0.0479
     22 C           3.3645   -3.3287    0.2075 C.ar    1  UNL1        0.0386
     23 C           2.3372   -2.5224    0.5897 C.ar    1  UNL1        0.1348
     24 CL          2.0235   -0.8674    0.3368 Cl      1  UNL1       -0.0617
     25 H          -1.8685   -2.7820    1.5600 H       1  UNL1        0.0247
     26 H          -0.8447   -2.4510    0.1508 H       1  UNL1        0.0247
     27 H          -1.0680   -4.1149    0.7071 H       1  UNL1        0.0247
     28 H           0.3402   -1.9078    2.3274 H       1  UNL1        0.0506
     29 H           0.1279   -3.5777    2.8448 H       1  UNL1        0.0506
     30 H           3.7589   -6.6843    0.9625 H       1  UNL1        0.0658
     31 H           6.8188   -6.0175    0.5782 H       1  UNL1        0.1519
     32 H           4.8278   -7.6289   -2.0267 H       1  UNL1        0.0290
     33 H           6.5417   -7.9595   -2.3374 H       1  UNL1        0.0290
     34 H           5.4707   -9.2220   -1.7431 H       1  UNL1        0.0290
     35 H           6.8570  -10.7190    5.1027 H       1  UNL1        0.0308
     36 H           5.0940  -10.4734    5.0455 H       1  UNL1        0.0308
     37 H           5.8373  -11.8255    4.1775 H       1  UNL1        0.0308
     38 H           6.5910   -8.0997    4.2836 H       1  UNL1        0.0689
     39 H           6.3220   -3.8593   -1.1810 H       1  UNL1        0.0636
     40 H           4.7014   -1.9631   -0.8931 H       1  UNL1        0.0626
@<TRIPOS>BOND
     1     1    25    1
     2     1    26    1
     3     1    27    1
     4     2     1    1
     5     2    28    1
     6     2    29    1
     7     3     2    1
     8     4     3   ar
     9     5     4   ar
    10     6     5   ar
    11     6    30    1
    12     7     6   ar
    13     8     7    1
    14     8    31    1
    15     9     8    1
    16    10     9    1
    17    10    32    1
    18    10    33    1
    19    10    34    1
    20    11     9    2
    21    12    11    1
    22    13    12    2
    23    14    12    1
    24    15    14    1
    25    16    15    1
    26    16    35    1
    27    16    36    1
    28    16    37    1
    29    17    15    2
    30    17    38    1
    31    18    17    1
    32    18    11    1
    33    19    18    2
    34    20     7   ar
    35    20    39    1
    36    21    20   ar
    37    21    40    1
    38    22    21   ar
    39    22     5   ar
    40    23    22   ar
    41    23     3   ar
    42    24    23    1
