@<TRIPOS>MOLECULE
mol_245_akc_journalpntd0006930
>236.sdf
 30 32 0 0 0
SMALL
GASTEIGER

@<TRIPOS>ATOM
      1 O          -2.6698    0.7588   -0.4031 O.3     1  UNL1       -0.5064
      2 C          -2.7264   -0.6020   -0.2799 C.ar    1  UNL1        0.1235
      3 C          -1.5359   -1.3316   -0.1842 C.ar    1  UNL1        0.0345
      4 C          -1.6285   -2.7318   -0.0728 C.ar    1  UNL1       -0.0516
      5 C          -2.8675   -3.3751   -0.0724 C.ar    1  UNL1       -0.0612
      6 C          -4.0375   -2.6285   -0.1775 C.ar    1  UNL1       -0.0583
      7 C          -3.9692   -1.2396   -0.2765 C.ar    1  UNL1       -0.0198
      8 C          -0.1590   -0.6950   -0.2549 C.3     1  UNL1        0.1355
      9 C           0.0989   -0.0623   -1.6171 C.3     1  UNL1        0.0520
     10 C           1.5391    0.3549   -1.6351 C.2     1  UNL1        0.1705
     11 O           2.2349    0.3003   -2.6434 O.2     1  UNL1       -0.2918
     12 C           2.0647    0.9031   -0.3692 C.ar    1  UNL1        0.0592
     13 C           1.2585    0.8558    0.7719 C.ar    1  UNL1        0.1319
     14 O           0.0188    0.2641    0.8037 O.3     1  UNL1       -0.4830
     15 C           1.7081    1.4434    1.9534 C.ar    1  UNL1       -0.0192
     16 C           2.9714    2.0387    2.0011 C.ar    1  UNL1       -0.0583
     17 C           3.7871    2.0539    0.8666 C.ar    1  UNL1       -0.0609
     18 C           3.3332    1.4881   -0.3242 C.ar    1  UNL1       -0.0477
     19 H          -3.5713    1.1161   -0.3606 H       1  UNL1        0.2921
     20 H          -0.7285   -3.3396    0.0012 H       1  UNL1        0.0623
     21 H          -2.9169   -4.4587    0.0012 H       1  UNL1        0.0618
     22 H          -5.0018   -3.1300   -0.1871 H       1  UNL1        0.0619
     23 H          -4.8916   -0.6742   -0.3633 H       1  UNL1        0.0654
     24 H           0.5806   -1.4921   -0.0796 H       1  UNL1        0.0790
     25 H          -0.0776   -0.7823   -2.4236 H       1  UNL1        0.0385
     26 H          -0.5067    0.8325   -1.7960 H       1  UNL1        0.0385
     27 H           1.0802    1.4297    2.8400 H       1  UNL1        0.0654
     28 H           3.3239    2.4907    2.9249 H       1  UNL1        0.0619
     29 H           4.7714    2.5153    0.9071 H       1  UNL1        0.0618
     30 H           3.9590    1.5145   -1.2142 H       1  UNL1        0.0626
@<TRIPOS>BOND
     1     1    19    1
     2     2     1    1
     3     3     2   ar
     4     4     3   ar
     5     4    20    1
     6     5     4   ar
     7     5    21    1
     8     6     5   ar
     9     6    22    1
    10     7     6   ar
    11     7     2   ar
    12     7    23    1
    13     8     3    1
    14     8    24    1
    15     9     8    1
    16     9    25    1
    17     9    26    1
    18    10     9    1
    19    11    10    2
    20    12    10    1
    21    13    12   ar
    22    14    13    1
    23    14     8    1
    24    15    13   ar
    25    15    27    1
    26    16    15   ar
    27    16    28    1
    28    17    16   ar
    29    17    29    1
    30    18    17   ar
    31    18    12   ar
    32    18    30    1
