@<TRIPOS>MOLECULE
mol_246_akc_jexppara201810007
>237.sdf
 31 33 0 0 0
SMALL
GASTEIGER

@<TRIPOS>ATOM
      1 CL          3.2413    0.6651    0.0007 Cl      1  UNL1       -0.0835
      2 C           1.6235    0.0790   -0.0039 C.ar    1  UNL1        0.0430
      3 C           0.5627    0.9792   -0.0276 C.ar    1  UNL1       -0.0173
      4 C          -0.7524    0.5412   -0.0250 C.ar    1  UNL1        0.0741
      5 C          -1.0179   -0.8483    0.0015 C.ar    1  UNL1        0.0228
      6 C           0.0689   -1.7522    0.0250 C.ar    1  UNL1       -0.0494
      7 C           1.3842   -1.2893    0.0223 C.ar    1  UNL1       -0.0426
      8 C          -2.3791   -1.2514    0.0296 C.ar    1  UNL1        0.0549
      9 N          -2.7330   -2.6414    0.0269 N.pl3   1  UNL1       -0.2659
     10 N          -3.9934   -2.9983    0.4735 N.pl3   1  UNL1       -0.2666
     11 C          -4.4690   -4.3335    0.4740 C.ar    1  UNL1        0.0443
     12 C          -3.6434   -5.4439    0.2830 C.ar    1  UNL1       -0.0394
     13 C          -4.1714   -6.7376    0.3640 C.ar    1  UNL1       -0.0600
     14 C          -5.5282   -6.9287    0.6236 C.ar    1  UNL1       -0.0616
     15 C          -6.3630   -5.8288    0.7972 C.ar    1  UNL1       -0.0600
     16 C          -5.8336   -4.5402    0.7259 C.ar    1  UNL1       -0.0394
     17 C          -3.3745   -0.2738   -0.0142 C.ar    1  UNL1       -0.0206
     18 C          -3.0016    1.0531   -0.0426 C.ar    1  UNL1        0.0301
     19 N          -1.7206    1.4707   -0.0448 N.ar    1  UNL1       -0.2548
     20 H           0.7567    2.0493   -0.0429 H       1  UNL1        0.0653
     21 H          -0.1083   -2.8252    0.0652 H       1  UNL1        0.0625
     22 H           2.2108   -1.9945    0.0478 H       1  UNL1        0.0632
     23 H          -2.5646   -2.9855   -0.9247 H       1  UNL1        0.1699
     24 H          -4.1772   -2.6252    1.4114 H       1  UNL1        0.1699
     25 H          -2.5798   -5.3166    0.1052 H       1  UNL1        0.0636
     26 H          -3.5188   -7.5973    0.2380 H       1  UNL1        0.0618
     27 H          -5.9339   -7.9346    0.6948 H       1  UNL1        0.0618
     28 H          -7.4223   -5.9703    0.9935 H       1  UNL1        0.0618
     29 H          -6.4940   -3.6868    0.8601 H       1  UNL1        0.0636
     30 H          -4.4266   -0.5351   -0.0393 H       1  UNL1        0.0652
     31 H          -3.7462    1.8432   -0.0714 H       1  UNL1        0.0830
@<TRIPOS>BOND
     1     2     1    1
     2     3     2   ar
     3     3    20    1
     4     4     3   ar
     5     5     4   ar
     6     6     5   ar
     7     6    21    1
     8     7     6   ar
     9     7     2   ar
    10     7    22    1
    11     8     5   ar
    12     9     8    1
    13     9    23    1
    14    10     9    1
    15    10    24    1
    16    11    10    1
    17    12    11   ar
    18    12    25    1
    19    13    12   ar
    20    13    26    1
    21    14    13   ar
    22    14    27    1
    23    15    14   ar
    24    15    28    1
    25    16    15   ar
    26    16    11   ar
    27    16    29    1
    28    17     8   ar
    29    17    30    1
    30    18    17   ar
    31    18    31    1
    32    19    18   ar
    33    19     4   ar
