@<TRIPOS>MOLECULE
mol_247_akc_jbiopha201810012
>238.sdf
 37 40 0 0 0
SMALL
GASTEIGER

@<TRIPOS>ATOM
      1 BR         -0.3084   -0.8818    6.7154 Br      1  UNL1       -0.0503
      2 C          -0.7099   -0.4075    4.9270 C.ar    1  UNL1        0.0186
      3 C          -0.7915    0.9374    4.5786 C.ar    1  UNL1       -0.0458
      4 C          -1.0772    1.3154    3.2635 C.ar    1  UNL1       -0.0367
      5 C          -1.2771    0.2978    2.3222 C.ar    1  UNL1        0.0472
      6 N          -1.5574    0.3815    0.9783 N.ar    1  UNL1       -0.3600
      7 C          -1.6794   -0.8700    0.4413 C.ar    1  UNL1        0.0113
      8 C          -1.4891   -1.7973    1.4474 C.ar    1  UNL1        0.0181
      9 C          -1.5682   -3.2371    1.3050 C.2     1  UNL1        0.0380
     10 N          -1.7830   -3.7626    0.1416 N.2     1  UNL1       -0.2465
     11 C          -1.8551   -5.1265    0.0581 C.ar    1  UNL1        0.1189
     12 C          -2.6202   -5.8903   -0.8174 C.ar    1  UNL1        0.0877
     13 C          -3.4849   -5.3051   -1.8030 C.1     1  UNL1        0.1021
     14 N          -4.1996   -4.8891   -2.6208 N.1     1  UNL1       -0.1908
     15 C          -2.4570   -7.3069   -0.6312 C.ar    1  UNL1       -0.0177
     16 C          -1.5325   -7.5727    0.3565 C.ar    1  UNL1       -0.0037
     17 C          -1.1346   -8.9332    0.8346 C.3     1  UNL1       -0.0210
     18 C          -1.5506  -10.0022   -0.1836 C.3     1  UNL1       -0.0483
     19 C          -2.9782   -9.7730   -0.6998 C.3     1  UNL1       -0.0487
     20 C          -3.1281   -8.4115   -1.3986 C.3     1  UNL1       -0.0256
     21 S          -0.8551   -6.1710    1.0145 S.2     1  UNL1       -0.0727
     22 C          -1.2129   -1.0593    2.6462 C.ar    1  UNL1        0.0093
     23 C          -0.9185   -1.4172    3.9806 C.ar    1  UNL1       -0.0380
     24 H          -0.6320    1.7101    5.3271 H       1  UNL1        0.0629
     25 H          -1.1402    2.3635    2.9886 H       1  UNL1        0.0639
     26 H          -1.6596    1.2462    0.4645 H       1  UNL1        0.1654
     27 H          -1.9030   -1.0049   -0.6096 H       1  UNL1        0.0813
     28 H          -1.4433   -3.8185    2.2350 H       1  UNL1        0.0836
     29 H          -0.0531   -8.9906    1.0024 H       1  UNL1        0.0318
     30 H          -1.6289   -9.1296    1.7943 H       1  UNL1        0.0318
     31 H          -1.4725  -10.9927    0.2787 H       1  UNL1        0.0269
     32 H          -0.8554   -9.9887   -1.0326 H       1  UNL1        0.0269
     33 H          -3.6767   -9.8302    0.1450 H       1  UNL1        0.0268
     34 H          -3.2537  -10.5732   -1.3964 H       1  UNL1        0.0268
     35 H          -4.1943   -8.1926   -1.5345 H       1  UNL1        0.0314
     36 H          -2.6746   -8.4656   -2.3962 H       1  UNL1        0.0314
     37 H          -0.8519   -2.4615    4.2697 H       1  UNL1        0.0635
@<TRIPOS>BOND
     1     2     1    1
     2     3     2   ar
     3     3    24    1
     4     4     3   ar
     5     4    25    1
     6     5     4   ar
     7     6     5   ar
     8     6    26    1
     9     7     6   ar
    10     7    27    1
    11     8     7   ar
    12     9     8    1
    13     9    28    1
    14    10     9    2
    15    11    10    1
    16    12    11   ar
    17    13    12    1
    18    14    13    3
    19    15    12   ar
    20    16    15   ar
    21    17    16    1
    22    17    29    1
    23    17    30    1
    24    18    17    1
    25    18    31    1
    26    18    32    1
    27    19    18    1
    28    19    33    1
    29    19    34    1
    30    20    19    1
    31    20    15    1
    32    20    35    1
    33    20    36    1
    34    21    16   ar
    35    21    11   ar
    36    22     8   ar
    37    22     5   ar
    38    23    22   ar
    39    23     2   ar
    40    23    37    1
