@<TRIPOS>MOLECULE
mol_249_akc_s40409_018_0174_7
>240.sdf
 35 39 0 0 0
SMALL
GASTEIGER

@<TRIPOS>ATOM
      1 H           0.7529    0.6069    1.0723 H       1  UNL1        0.0424
      2 C           1.3960    0.1306    0.3183 C.3     1  UNL1        0.0667
      3 C           0.6542   -1.0540   -0.2742 C.3     1  UNL1        0.1003
      4 O           1.4369   -1.8403   -1.1678 O.3     1  UNL1       -0.4908
      5 C           2.6386   -2.2407   -0.6562 C.ar    1  UNL1        0.1272
      6 C           3.3296   -1.5279    0.3277 C.ar    1  UNL1        0.0350
      7 C           4.5916   -1.9901    0.7325 C.ar    1  UNL1       -0.0516
      8 C           5.1364   -3.1494    0.1746 C.ar    1  UNL1       -0.0612
      9 C           4.4276   -3.8588   -0.7923 C.ar    1  UNL1       -0.0583
     10 C           3.1837   -3.3966   -1.2160 C.ar    1  UNL1       -0.0195
     11 C           2.7198   -0.3018    0.9651 C.3     1  UNL1        0.1388
     12 H           2.5553   -0.5213    2.0276 H       1  UNL1        0.0793
     13 O           3.6282    0.8283    0.8825 O.2     1  UNL1       -0.4791
     14 C           3.0969    1.5857   -0.1602 C.2     1  UNL1        0.1758
     15 C           1.8914    1.2084   -0.5713 C.2     1  UNL1        0.0554
     16 C           1.1772    1.8777   -1.6533 C.2     1  UNL1        0.1940
     17 O           0.0511    1.5279   -1.9863 O.2     1  UNL1       -0.2868
     18 C           1.8644    3.0226   -2.2949 C.ar    1  UNL1        0.0330
     19 C           1.2554    3.6699   -3.3774 C.ar    1  UNL1       -0.0502
     20 C           1.8490    4.8029   -3.9361 C.ar    1  UNL1       -0.0610
     21 C           3.0421    5.2991   -3.4100 C.ar    1  UNL1       -0.0610
     22 C           3.6665    4.6414   -2.3484 C.ar    1  UNL1       -0.0501
     23 C           3.0887    3.4884   -1.8008 C.ar    1  UNL1        0.0362
     24 C           3.7850    2.7763   -0.7022 C.2     1  UNL1        0.2284
     25 O           4.8561    3.1711   -0.2627 O.2     1  UNL1       -0.2834
     26 H           0.2890   -1.7079    0.5297 H       1  UNL1        0.0704
     27 H          -0.2338   -0.7226   -0.8218 H       1  UNL1        0.0704
     28 H           5.1614   -1.4417    1.4805 H       1  UNL1        0.0623
     29 H           6.1156   -3.4978    0.4933 H       1  UNL1        0.0618
     30 H           4.8451   -4.7656   -1.2220 H       1  UNL1        0.0619
     31 H           2.6315   -3.9416   -1.9773 H       1  UNL1        0.0654
     32 H           0.3163    3.2980   -3.7842 H       1  UNL1        0.0625
     33 H           1.3743    5.3063   -4.7759 H       1  UNL1        0.0618
     34 H           3.4901    6.1971   -3.8307 H       1  UNL1        0.0618
     35 H           4.6008    5.0322   -1.9480 H       1  UNL1        0.0625
@<TRIPOS>BOND
     1     2     1    1
     2     3     2    1
     3     3    26    1
     4     3    27    1
     5     4     3    1
     6     5     4    1
     7     6     5   ar
     8     7     6   ar
     9     7    28    1
    10     8     7   ar
    11     8    29    1
    12     9     8   ar
    13     9    30    1
    14    10     9   ar
    15    10     5   ar
    16    10    31    1
    17    11     6    1
    18    11     2    1
    19    11    12    1
    20    13    11    1
    21    14    13    1
    22    15    14    2
    23    15     2    1
    24    16    15    1
    25    17    16    2
    26    18    16    1
    27    19    18   ar
    28    19    32    1
    29    20    19   ar
    30    20    33    1
    31    21    20   ar
    32    21    34    1
    33    22    21   ar
    34    22    35    1
    35    23    22   ar
    36    23    18   ar
    37    24    23    1
    38    24    14    1
    39    25    24    2
