@<TRIPOS>MOLECULE
mol_24_akc_jejmech201204029
>24.sdf
 20 21 0 0 0
SMALL
GASTEIGER

@<TRIPOS>ATOM
      1 O           1.0645    0.0425    0.2212 O.3     1  UNL1       -0.4924
      2 C           2.4219   -0.0691    0.1634 C.ar    1  UNL1        0.2129
      3 N           3.0809    1.1009    0.1618 N.ar    1  UNL1       -0.2107
      4 C           4.4315    1.0907    0.0832 C.ar    1  UNL1        0.1049
      5 C           5.1443   -0.1249   -0.0168 C.ar    1  UNL1        0.0029
      6 C           6.5478   -0.1361   -0.1460 C.ar    1  UNL1       -0.0524
      7 C           7.2735    1.0535   -0.1848 C.ar    1  UNL1       -0.0589
      8 C           6.6029    2.2620   -0.0687 C.ar    1  UNL1       -0.0293
      9 C           5.2057    2.2520    0.0762 C.ar    1  UNL1        0.1521
     10 N           4.5472    3.5262    0.2421 N.pl3   1  UNL1        0.0585
     11 O           4.0396    3.7679    1.3470 O.2     1  UNL1       -0.1261
     12 O           4.6487    4.3321   -0.6947 O.2     1  UNL1       -0.1261
     13 C           4.4202   -1.3249    0.0073 C.ar    1  UNL1       -0.0475
     14 C           3.0353   -1.3011    0.1008 C.ar    1  UNL1        0.0004
     15 H           0.6822   -0.8444    0.1603 H       1  UNL1        0.2937
     16 H           7.0845   -1.0796   -0.2286 H       1  UNL1        0.0624
     17 H           8.3546    1.0324   -0.3000 H       1  UNL1        0.0618
     18 H           7.1549    3.1991   -0.0870 H       1  UNL1        0.0641
     19 H           4.9321   -2.2834   -0.0501 H       1  UNL1        0.0626
     20 H           2.4708   -2.2254    0.1155 H       1  UNL1        0.0671
@<TRIPOS>BOND
     1     1    15    1
     2     2     1    1
     3     3     2   ar
     4     4     3   ar
     5     5     4   ar
     6     6     5   ar
     7     6    16    1
     8     7     6   ar
     9     7    17    1
    10     8     7   ar
    11     8    18    1
    12     9     8   ar
    13     9     4   ar
    14    10     9    1
    15    11    10    2
    16    12    10    2
    17    13     5   ar
    18    13    19    1
    19    14    13   ar
    20    14     2   ar
    21    14    20    1
