@<TRIPOS>MOLECULE
mol_250_akc_journalpone0206920
>241.sdf
 58 63 0 0 0
SMALL
GASTEIGER

@<TRIPOS>ATOM
      1 C           0.9219    0.6114   -0.9488 C.3     1  UNL1       -0.0416
      2 C           1.0317   -0.2319    0.3356 C.3     1  UNL1       -0.0024
      3 C          -0.3784   -0.8060    0.0137 C.3     1  UNL1        0.0122
      4 C          -0.0933   -0.4285   -1.4700 C.3     1  UNL1       -0.0024
      5 C          -0.7294   -2.2919    0.3980 C.ar    1  UNL1        0.0032
      6 C          -0.1294   -2.9381    1.4959 C.ar    1  UNL1       -0.0510
      7 C          -0.5401   -4.2015    1.9280 C.ar    1  UNL1       -0.0373
      8 C          -1.5806   -4.8690    1.2769 C.ar    1  UNL1        0.0500
      9 C          -2.1985   -4.2492    0.1903 C.ar    1  UNL1       -0.0373
     10 C          -1.7522   -3.0034   -0.2610 C.ar    1  UNL1       -0.0510
     11 N          -1.9973   -6.1600    1.7307 N.ar    1  UNL1       -0.2767
     12 C          -1.9544   -6.5881    3.0505 C.ar    1  UNL1        0.1658
     13 C          -2.5537   -7.8363    3.0545 C.ar    1  UNL1        0.1090
     14 C          -2.7114   -8.4857    4.2810 C.ar    1  UNL1       -0.0306
     15 C          -2.2306   -7.8320    5.4199 C.ar    1  UNL1       -0.0335
     16 C          -1.6186   -6.5777    5.3090 C.ar    1  UNL1        0.0735
     17 N          -1.4973   -5.9155    4.1305 N.ar    1  UNL1       -0.2270
     18 C          -1.0243   -5.8750    6.4721 C.ar    1  UNL1        0.0004
     19 C          -0.4683   -6.5742    7.5602 C.ar    1  UNL1       -0.0526
     20 C           0.1279   -5.9007    8.6318 C.ar    1  UNL1       -0.0611
     21 C           0.1890   -4.5103    8.6351 C.ar    1  UNL1       -0.0617
     22 C          -0.3513   -3.7932    7.5740 C.ar    1  UNL1       -0.0611
     23 C          -0.9511   -4.4693    6.5056 C.ar    1  UNL1       -0.0526
     24 N          -2.9035   -8.2149    1.7963 N.ar    1  UNL1       -0.2254
     25 C          -2.5448   -7.2201    0.9903 C.ar    1  UNL1        0.1508
     26 C          -2.6848   -7.3150   -0.4766 C.ar    1  UNL1        0.0573
     27 C          -3.8062   -7.9372   -1.0503 C.ar    1  UNL1        0.1268
     28 N          -3.9948   -8.0358   -2.3822 N.ar    1  UNL1       -0.2400
     29 C          -3.0442   -7.5272   -3.1925 C.ar    1  UNL1        0.0297
     30 C          -1.8946   -6.9162   -2.7326 C.ar    1  UNL1       -0.0428
     31 C          -1.6996   -6.8417   -1.3568 C.ar    1  UNL1       -0.0464
     32 N          -4.8623   -8.4124   -0.2705 N.pl3   1  UNL1       -0.3426
     33 N          -1.4660    0.0155    0.6014 N.4     1  UNL1        0.2263
     34 H           0.4941    1.6064   -0.7902 H       1  UNL1        0.0269
     35 H           1.8415    0.7121   -1.5314 H       1  UNL1        0.0269
     36 H           1.8403   -0.9713    0.2938 H       1  UNL1        0.0326
     37 H           1.1257    0.3331    1.2674 H       1  UNL1        0.0326
     38 H          -0.9278   -0.0198   -2.0426 H       1  UNL1        0.0326
     39 H           0.3711   -1.2330   -2.0529 H       1  UNL1        0.0326
     40 H           0.6761   -2.4559    2.0506 H       1  UNL1        0.0623
     41 H          -0.0105   -4.6470    2.7695 H       1  UNL1        0.0638
     42 H          -3.0536   -4.6949   -0.3153 H       1  UNL1        0.0638
     43 H          -2.2457   -2.5744   -1.1335 H       1  UNL1        0.0623
     44 H          -3.1853   -9.4596    4.3402 H       1  UNL1        0.0641
     45 H          -2.3461   -8.3155    6.3852 H       1  UNL1        0.0640
     46 H          -0.4667   -7.6623    7.5832 H       1  UNL1        0.0624
     47 H           0.5538   -6.4657    9.4574 H       1  UNL1        0.0618
     48 H           0.6607   -3.9899    9.4654 H       1  UNL1        0.0618
     49 H          -0.3044   -2.7081    7.5739 H       1  UNL1        0.0618
     50 H          -1.3655   -3.8873    5.6860 H       1  UNL1        0.0624
     51 H          -3.2401   -7.6307   -4.2563 H       1  UNL1        0.0830
     52 H          -1.1654   -6.5143   -3.4270 H       1  UNL1        0.0633
     53 H          -0.7825   -6.3934   -0.9857 H       1  UNL1        0.0626
     54 H          -5.4759   -8.9576   -0.8681 H       1  UNL1        0.1437
     55 H          -4.5033   -8.9379    0.5281 H       1  UNL1        0.1437
     56 H          -1.3101    1.0284    0.5117 H       1  UNL1        0.2003
     57 H          -2.3697   -0.1980    0.1666 H       1  UNL1        0.2003
     58 H          -1.5749   -0.1896    1.6039 H       1  UNL1        0.2003
@<TRIPOS>UNITY_ATOM_ATTR
33 1
charge 1
@<TRIPOS>BOND
     1     1    34    1
     2     1    35    1
     3     2     1    1
     4     2    36    1
     5     2    37    1
     6     3     2    1
     7     4     3    1
     8     4     1    1
     9     4    38    1
    10     4    39    1
    11     5     3    1
    12     6     5   ar
    13     6    40    1
    14     7     6   ar
    15     7    41    1
    16     8     7   ar
    17     9     8   ar
    18     9    42    1
    19    10     9   ar
    20    10     5   ar
    21    10    43    1
    22    11     8    1
    23    12    11   ar
    24    13    12   ar
    25    14    13   ar
    26    14    44    1
    27    15    14   ar
    28    15    45    1
    29    16    15   ar
    30    17    16   ar
    31    17    12   ar
    32    18    16    1
    33    19    18   ar
    34    19    46    1
    35    20    19   ar
    36    20    47    1
    37    21    20   ar
    38    21    48    1
    39    22    21   ar
    40    22    49    1
    41    23    22   ar
    42    23    18   ar
    43    23    50    1
    44    24    13   ar
    45    25    24   ar
    46    25    11   ar
    47    26    25    1
    48    27    26   ar
    49    28    27   ar
    50    29    28   ar
    51    29    51    1
    52    30    29   ar
    53    30    52    1
    54    31    30   ar
    55    31    26   ar
    56    31    53    1
    57    32    27    1
    58    32    54    1
    59    32    55    1
    60    33     3    1
    61    33    56    1
    62    33    57    1
    63    33    58    1
