@<TRIPOS>MOLECULE
mol_251_akc_jijbiomac201808019
>242.sdf
 45 49 0 0 0
SMALL
GASTEIGER

@<TRIPOS>ATOM
      1 O           2.5876   -0.6415    1.0897 O.2     1  UNL1       -0.2667
      2 C           2.2411   -0.0335    0.0856 C.2     1  UNL1        0.2840
      3 N           1.1882    0.8643   -0.0157 N.am    1  UNL1       -0.2016
      4 N           0.4157    1.0864    1.0853 N.2     1  UNL1       -0.1869
      5 C          -0.5643    1.9274    0.9814 C.2     1  UNL1        0.0594
      6 C          -1.4115    2.1641    2.1313 C.ar    1  UNL1        0.0323
      7 C          -1.3234    1.5969    3.3829 C.ar    1  UNL1       -0.0454
      8 C          -2.3444    2.0636    4.2605 C.ar    1  UNL1       -0.0458
      9 C          -3.1942    2.9809    3.6646 C.ar    1  UNL1        0.0265
     10 S          -2.7171    3.2554    2.0292 S.2     1  UNL1       -0.0868
     11 C          -4.3347    3.6545    4.2606 C.ar    1  UNL1        0.0259
     12 C          -5.2226    4.5355    3.6641 C.ar    1  UNL1       -0.0464
     13 C          -6.2279    5.0130    4.5582 C.ar    1  UNL1       -0.0541
     14 C          -6.0868    4.4827    5.8187 C.ar    1  UNL1       -0.0237
     15 S          -4.7562    3.4200    5.9166 S.2     1  UNL1       -0.0961
     16 C           2.9980   -0.2602   -1.2215 C.ar    1  UNL1        0.1579
     17 N           2.6409    0.4368   -2.2752 N.ar    1  UNL1       -0.1654
     18 N           3.2999    0.2170   -3.4799 N.ar    1  UNL1       -0.2407
     19 C           4.3173   -0.7023   -3.7208 C.ar    1  UNL1        0.2909
     20 O           4.7458   -0.8562   -4.8586 O.2     1  UNL1       -0.2641
     21 C           4.7271   -1.4044   -2.5433 C.ar    1  UNL1        0.1423
     22 C           4.0710   -1.2249   -1.3427 C.ar    1  UNL1        0.0577
     23 C           4.6398   -2.1582   -0.4726 C.ar    1  UNL1        0.0600
     24 N           5.5574   -2.9115   -1.0809 N.ar    1  UNL1       -0.1734
     25 N           5.6743   -2.3873   -2.3388 N.ar    1  UNL1       -0.2267
     26 C           6.6844   -2.8898   -3.2040 C.ar    1  UNL1        0.0662
     27 C           7.1170   -4.2172   -3.0550 C.ar    1  UNL1       -0.0362
     28 C           8.0669   -4.7486   -3.9314 C.ar    1  UNL1       -0.0598
     29 C           8.6168   -3.9508   -4.9330 C.ar    1  UNL1       -0.0616
     30 C           8.2306   -2.6175   -5.0497 C.ar    1  UNL1       -0.0598
     31 C           7.2707   -2.0852   -4.1856 C.ar    1  UNL1       -0.0362
     32 H           0.9918    1.3131   -0.9067 H       1  UNL1        0.1776
     33 H          -0.7759    2.4662    0.0424 H       1  UNL1        0.0857
     34 H          -0.5618    0.8747    3.6581 H       1  UNL1        0.0629
     35 H          -2.4393    1.7278    5.2863 H       1  UNL1        0.0629
     36 H          -5.1655    4.8370    2.6254 H       1  UNL1        0.0629
     37 H          -7.0120    5.7093    4.2883 H       1  UNL1        0.0623
     38 H          -6.7022    4.6679    6.6890 H       1  UNL1        0.0693
     39 H           2.9628    0.7306   -4.2887 H       1  UNL1        0.1922
     40 H           4.4091   -2.3546    0.5686 H       1  UNL1        0.0855
     41 H           6.6928   -4.8609   -2.2862 H       1  UNL1        0.0639
     42 H           8.3712   -5.7879   -3.8370 H       1  UNL1        0.0618
     43 H           9.3518   -4.3647   -5.6184 H       1  UNL1        0.0618
     44 H           8.6749   -1.9866   -5.8154 H       1  UNL1        0.0618
     45 H           7.0299   -1.0313   -4.2825 H       1  UNL1        0.0639
@<TRIPOS>BOND
     1     2     1    2
     2     3     2   am
     3     3    32    1
     4     4     3    1
     5     5     4    2
     6     5    33    1
     7     6     5    1
     8     7     6   ar
     9     7    34    1
    10     8     7   ar
    11     8    35    1
    12     9     8   ar
    13    10     9   ar
    14    10     6   ar
    15    11     9    1
    16    12    11   ar
    17    12    36    1
    18    13    12   ar
    19    13    37    1
    20    14    13   ar
    21    14    38    1
    22    15    14   ar
    23    15    11   ar
    24    16     2    1
    25    17    16   ar
    26    18    17   ar
    27    18    39    1
    28    19    18   ar
    29    20    19    2
    30    21    19   ar
    31    22    21   ar
    32    22    16   ar
    33    23    22   ar
    34    23    40    1
    35    24    23   ar
    36    25    24   ar
    37    25    21   ar
    38    26    25    1
    39    27    26   ar
    40    27    41    1
    41    28    27   ar
    42    28    42    1
    43    29    28   ar
    44    29    43    1
    45    30    29   ar
    46    30    44    1
    47    31    30   ar
    48    31    26   ar
    49    31    45    1
