@<TRIPOS>MOLECULE
mol_252_akc
>243.sdf
 39 41 0 0 0
SMALL
GASTEIGER

@<TRIPOS>ATOM
      1 C           2.9241   -3.4335    1.7798 C.3     1  UNL1       -0.0538
      2 C           2.6063   -1.9616    1.5083 C.3     1  UNL1        0.0362
      3 C           3.0751   -1.1434    2.7099 C.ar    1  UNL1        0.0855
      4 N           4.3984   -1.1523    3.0126 N.ar    1  UNL1       -0.2371
      5 C           4.7660   -0.4828    4.1197 C.ar    1  UNL1        0.1164
      6 N           3.9490    0.1664    4.9642 N.ar    1  UNL1       -0.2408
      7 C           2.6391    0.1410    4.6324 C.ar    1  UNL1        0.0663
      8 C           2.1546   -0.4948    3.5147 C.ar    1  UNL1        0.1629
      9 F           0.8380   -0.5142    3.2558 F       1  UNL1       -0.2020
     10 C           3.0586   -1.3752    0.1170 C.3     1  UNL1        0.1209
     11 O           2.5272   -0.0200    0.1146 O.3     1  UNL1       -0.3814
     12 C           2.3672   -2.1616   -1.0442 C.3     1  UNL1        0.0768
     13 N           2.5938   -1.5774   -2.3556 N.ar    1  UNL1       -0.2489
     14 C           3.5634   -1.8749   -3.2621 C.ar    1  UNL1        0.1144
     15 N           3.4017   -1.1352   -4.3344 N.ar    1  UNL1       -0.2228
     16 C           2.2971   -0.3941   -4.0335 C.ar    1  UNL1        0.1379
     17 N           1.7630   -0.6260   -2.8269 N.ar    1  UNL1       -0.1583
     18 C           4.5738   -1.3146   -0.1240 C.ar    1  UNL1        0.0216
     19 C           5.2446   -0.0820   -0.2518 C.ar    1  UNL1       -0.0503
     20 C           6.5848   -0.0296   -0.6469 C.ar    1  UNL1       -0.0259
     21 C           7.2777   -1.2053   -0.9016 C.ar    1  UNL1        0.1261
     22 F           8.5457   -1.1494   -1.3266 F       1  UNL1       -0.2054
     23 C           6.6629   -2.4365   -0.7512 C.ar    1  UNL1        0.0092
     24 C           5.3266   -2.4775   -0.3644 C.ar    1  UNL1        0.1321
     25 F           4.7393   -3.6812   -0.3276 F       1  UNL1       -0.2050
     26 H           2.4359   -3.7621    2.7058 H       1  UNL1        0.0237
     27 H           2.5585   -4.0828    0.9798 H       1  UNL1        0.0237
     28 H           3.9952   -3.6109    1.9165 H       1  UNL1        0.0237
     29 H           1.5085   -1.8962    1.5035 H       1  UNL1        0.0394
     30 H           5.8262   -0.4738    4.3601 H       1  UNL1        0.1047
     31 H           1.9706    0.6458    5.3182 H       1  UNL1        0.0860
     32 H           1.7975    0.0486   -0.5327 H       1  UNL1        0.2107
     33 H           2.6807   -3.2069   -1.1097 H       1  UNL1        0.0541
     34 H           1.2786   -2.1636   -0.9020 H       1  UNL1        0.0541
     35 H           4.3434   -2.6054   -3.1016 H       1  UNL1        0.1044
     36 H           1.8699    0.3320   -4.7129 H       1  UNL1        0.1065
     37 H           4.7172    0.8555   -0.0823 H       1  UNL1        0.0623
     38 H           7.0823    0.9270   -0.7820 H       1  UNL1        0.0646
     39 H           7.2030   -3.3498   -0.9684 H       1  UNL1        0.0675
@<TRIPOS>BOND
     1     1    26    1
     2     1    27    1
     3     1    28    1
     4     2     1    1
     5     2    29    1
     6     3     2    1
     7     4     3   ar
     8     5     4   ar
     9     5    30    1
    10     6     5   ar
    11     7     6   ar
    12     7    31    1
    13     8     7   ar
    14     8     3   ar
    15     9     8    1
    16    11    32    1
    17    12    10    1
    18    12    33    1
    19    12    34    1
    20    13    12    1
    21    14    13   ar
    22    14    35    1
    23    15    14   ar
    24    16    15   ar
    25    16    36    1
    26    17    16   ar
    27    17    13   ar
    28    18    10    1
    29    19    18   ar
    30    19    37    1
    31    20    19   ar
    32    20    38    1
    33    21    20   ar
    34    22    21    1
    35    23    21   ar
    36    23    39    1
    37    24    23   ar
    38    24    18   ar
    39    25    24    1
    40    10    11    1
    41    10     2    1
