@<TRIPOS>MOLECULE
mol_253_akc_jbiopha201807056
>245.sdf
 80 84 0 0 0
SMALL
GASTEIGER

@<TRIPOS>ATOM
      1 C           1.1977   -0.4431    0.1075 C.3     1  UNL1       -0.0621
      2 C           0.4009   -1.5759   -0.5490 C.3     1  UNL1       -0.0400
      3 C           0.8706   -1.7697   -2.0233 C.3     1  UNL1       -0.0401
      4 C           2.3880   -1.8248   -2.3133 C.3     1  UNL1        0.0456
      5 C           3.1631   -2.9875   -1.7206 C.2     1  UNL1        0.3123
      6 O           2.7263   -3.7989   -0.9080 O.2     1  UNL1       -0.2504
      7 O           4.4706   -2.9780   -2.2523 O.3     1  UNL1       -0.4258
      8 C           5.5635   -3.8505   -1.9709 C.ar    1  UNL1        0.1317
      9 C           5.5096   -4.9236   -1.0858 C.ar    1  UNL1       -0.0186
     10 C           6.6665   -5.6838   -0.8524 C.ar    1  UNL1       -0.0481
     11 C           7.8645   -5.3700   -1.5036 C.ar    1  UNL1        0.0144
     12 C           9.1057   -6.1205   -1.2041 C.2     1  UNL1        0.1502
     13 O           9.1507   -6.9979   -0.3519 O.2     1  UNL1       -0.2957
     14 C           7.9072   -4.3214   -2.4227 C.ar    1  UNL1       -0.0481
     15 C           6.7551   -3.5569   -2.6499 C.ar    1  UNL1       -0.0186
     16 C          -1.1571   -1.3673   -0.4652 C.3     1  UNL1       -0.0304
     17 C          -1.9675   -2.6209   -0.9246 C.3     1  UNL1       -0.0491
     18 C          -3.1464   -2.8016    0.0467 C.3     1  UNL1       -0.0491
     19 C          -3.2699   -1.4371    0.7028 C.3     1  UNL1       -0.0299
     20 C          -4.1031   -1.2961    1.9885 C.3     1  UNL1       -0.0342
     21 C          -5.5016   -1.9035    1.8465 C.3     1  UNL1       -0.0494
     22 C          -6.3631   -1.6265    3.0761 C.3     1  UNL1       -0.0494
     23 C          -6.4453   -0.1308    3.4235 C.3     1  UNL1       -0.0330
     24 C          -7.2797    0.6091    2.3576 C.3     1  UNL1       -0.0235
     25 C          -7.3855    2.1046    2.6358 C.3     1  UNL1        0.0555
     26 O          -8.0991    2.7357    1.5784 O.3     1  UNL1       -0.3918
     27 C          -6.0099    2.7433    2.7799 C.3     1  UNL1       -0.0263
     28 C          -5.2054    2.0396    3.8672 C.3     1  UNL1       -0.0448
     29 C          -5.0325    0.5094    3.6268 C.3     1  UNL1       -0.0259
     30 C          -4.3796   -0.0640    4.9110 C.3     1  UNL1       -0.0590
     31 C          -4.1472    0.2183    2.3635 C.3     1  UNL1       -0.0299
     32 C          -2.7261    0.8330    2.4599 C.3     1  UNL1       -0.0227
     33 C          -1.8079    0.5098    1.2712 C.3     1  UNL1        0.0614
     34 O          -2.1933    1.3136    0.1531 O.3     1  UNL1       -0.3912
     35 C          -1.7931   -1.0031    0.9245 C.3     1  UNL1        0.0000
     36 C          -1.1467   -1.8214    2.0820 C.3     1  UNL1       -0.0567
     37 H           1.1868    0.4690   -0.4964 H       1  UNL1        0.0233
     38 H           2.2356   -0.7508    0.2676 H       1  UNL1        0.0233
     39 H           0.8354   -0.1822    1.0985 H       1  UNL1        0.0233
     40 H           0.6310   -2.4985   -0.0044 H       1  UNL1        0.0301
     41 H           0.4096   -2.6780   -2.4289 H       1  UNL1        0.0273
     42 H           0.4732   -0.9335   -2.6168 H       1  UNL1        0.0273
     43 H           2.5004   -1.9087   -3.4034 H       1  UNL1        0.0378
     44 H           2.8748   -0.8923   -2.0072 H       1  UNL1        0.0378
     45 H           4.5984   -5.1848   -0.5587 H       1  UNL1        0.0654
     46 H           6.6311   -6.5156   -0.1503 H       1  UNL1        0.0626
     47 H          10.0044   -5.8366   -1.7785 H       1  UNL1        0.1081
     48 H           8.8243   -4.0780   -2.9530 H       1  UNL1        0.0626
     49 H           6.7927   -2.7265   -3.3484 H       1  UNL1        0.0654
     50 H          -1.4105   -0.5674   -1.1759 H       1  UNL1        0.0310
     51 H          -1.3649   -3.5328   -0.9602 H       1  UNL1        0.0268
     52 H          -2.3576   -2.4467   -1.9358 H       1  UNL1        0.0268
     53 H          -2.9333   -3.5892    0.7766 H       1  UNL1        0.0268
     54 H          -4.0619   -3.0916   -0.4803 H       1  UNL1        0.0268
     55 H          -3.7376   -0.7930   -0.0577 H       1  UNL1        0.0310
     56 H          -3.6229   -1.8532    2.7982 H       1  UNL1        0.0306
     57 H          -5.4211   -2.9900    1.7182 H       1  UNL1        0.0268
     58 H          -5.9930   -1.5248    0.9437 H       1  UNL1        0.0268
     59 H          -5.9583   -2.1819    3.9311 H       1  UNL1        0.0268
     60 H          -7.3698   -2.0286    2.9102 H       1  UNL1        0.0268
     61 H          -6.9975   -0.0474    4.3707 H       1  UNL1        0.0307
     62 H          -8.2884    0.1791    2.3083 H       1  UNL1        0.0293
     63 H          -6.8641    0.4646    1.3529 H       1  UNL1        0.0293
     64 H          -7.9603    2.2639    3.5547 H       1  UNL1        0.0593
     65 H          -7.6387    2.5428    0.7439 H       1  UNL1        0.2098
     66 H          -5.4755    2.7300    1.8222 H       1  UNL1        0.0290
     67 H          -6.1228    3.8055    3.0278 H       1  UNL1        0.0290
     68 H          -4.2353    2.5357    3.9834 H       1  UNL1        0.0271
     69 H          -5.7230    2.1954    4.8238 H       1  UNL1        0.0271
     70 H          -4.1484   -1.1293    4.8308 H       1  UNL1        0.0235
     71 H          -3.4471    0.4551    5.1575 H       1  UNL1        0.0235
     72 H          -5.0422    0.0609    5.7753 H       1  UNL1        0.0235
     73 H          -4.6256    0.7182    1.5120 H       1  UNL1        0.0310
     74 H          -2.8099    1.9236    2.5249 H       1  UNL1        0.0293
     75 H          -2.2308    0.4979    3.3754 H       1  UNL1        0.0293
     76 H          -0.8114    0.8608    1.5415 H       1  UNL1        0.0599
     77 H          -3.1383    1.1819   -0.0226 H       1  UNL1        0.2098
     78 H          -1.2455   -2.9007    1.9332 H       1  UNL1        0.0236
     79 H          -0.0817   -1.6226    2.1972 H       1  UNL1        0.0236
     80 H          -1.5854   -1.5940    3.0576 H       1  UNL1        0.0236
@<TRIPOS>BOND
     1     3     4    1
     2     4     5    1
     3     5     6    2
     4     5     7    1
     5     7     8    1
     6     8     9   ar
     7     9    10   ar
     8    10    11   ar
     9    11    12    1
    10    12    13    2
    11    11    14   ar
    12    14    15   ar
    13     8    15   ar
    14    16     2    1
    15    16    17    1
    16    17    18    1
    17    19    18    1
    18    19    20    1
    19    20    21    1
    20    21    22    1
    21    23    22    1
    22    23    24    1
    23    25    24    1
    24    25    26    1
    25    25    27    1
    26    27    28    1
    27    29    28    1
    28    29    23    1
    29    29    30    1
    30    31    29    1
    31    20    31    1
    32    31    32    1
    33    33    32    1
    34    33    34    1
    35    35    33    1
    36    35    16    1
    37    35    19    1
    38    35    36    1
    39     1    37    1
    40     1    38    1
    41     1    39    1
    42     2    40    1
    43     3    41    1
    44     3    42    1
    45     4    43    1
    46     4    44    1
    47     9    45    1
    48    10    46    1
    49    12    47    1
    50    14    48    1
    51    15    49    1
    52    16    50    1
    53    17    51    1
    54    17    52    1
    55    18    53    1
    56    18    54    1
    57    19    55    1
    58    20    56    1
    59    21    57    1
    60    21    58    1
    61    22    59    1
    62    22    60    1
    63    23    61    1
    64    24    62    1
    65    24    63    1
    66    25    64    1
    67    26    65    1
    68    27    66    1
    69    27    67    1
    70    28    68    1
    71    28    69    1
    72    30    70    1
    73    30    71    1
    74    30    72    1
    75    31    73    1
    76    32    74    1
    77    32    75    1
    78    33    76    1
    79    34    77    1
    80    36    78    1
    81    36    79    1
    82    36    80    1
    83     2     3    1
    84     2     1    1
