@<TRIPOS>MOLECULE
mol_254_akc_s40409_018_0164_9
>246.sdf
 52 53 0 0 0
SMALL
GASTEIGER

@<TRIPOS>ATOM
      1 C           1.9313    1.5265   -4.1632 C.3     1  UNL1        0.0790
      2 O           2.8987    0.4914   -4.3322 O.3     1  UNL1       -0.4914
      3 C           3.1894   -0.2594   -3.2186 C.ar    1  UNL1        0.1624
      4 C           2.1991   -0.5305   -2.2673 C.ar    1  UNL1       -0.0128
      5 C           2.4617   -1.3408   -1.1647 C.ar    1  UNL1       -0.0394
      6 C           1.3561   -1.7020   -0.2017 C.3     1  UNL1       -0.0096
      7 C           1.2044   -0.7214    0.9248 C.2     1  UNL1       -0.0868
      8 C           0.0756   -0.0595    1.2010 C.2     1  UNL1       -0.1023
      9 C           3.7606   -1.8377   -0.9844 C.ar    1  UNL1       -0.0467
     10 C           4.7926   -1.6412   -1.9300 C.ar    1  UNL1        0.0313
     11 C           4.4769   -0.8397   -3.0786 C.ar    1  UNL1        0.1693
     12 O           5.4914   -0.7290   -4.0039 O.3     1  UNL1       -0.4908
     13 C           5.4307    0.2336   -5.0444 C.3     1  UNL1        0.0790
     14 C           6.1596   -2.2492   -1.6754 C.ar    1  UNL1        0.0313
     15 C           7.3167   -1.5137   -2.0294 C.ar    1  UNL1       -0.0467
     16 C           8.6168   -2.0185   -1.8972 C.ar    1  UNL1       -0.0394
     17 C           9.7988   -1.2423   -2.4234 C.3     1  UNL1       -0.0096
     18 C          10.3602   -0.2933   -1.4056 C.2     1  UNL1       -0.0868
     19 C          11.6089   -0.3516   -0.9321 C.2     1  UNL1       -0.1023
     20 C           8.7986   -3.2539   -1.2818 C.ar    1  UNL1       -0.0128
     21 C           7.6968   -3.9937   -0.8393 C.ar    1  UNL1        0.1624
     22 O           7.9037   -5.2307   -0.2752 O.3     1  UNL1       -0.4914
     23 C           8.9193   -5.2539    0.7280 C.3     1  UNL1        0.0790
     24 C           6.3798   -3.5227   -1.0641 C.ar    1  UNL1        0.1693
     25 O           5.2523   -4.2671   -0.7776 O.3     1  UNL1       -0.4908
     26 C           5.3094   -5.1558    0.3327 C.3     1  UNL1        0.0790
     27 H           0.9168    1.1151   -4.1792 H       1  UNL1        0.0660
     28 H           2.1073    2.1064   -3.2507 H       1  UNL1        0.0660
     29 H           2.0203    2.2098   -5.0137 H       1  UNL1        0.0660
     30 H           1.1898   -0.1483   -2.3893 H       1  UNL1        0.0658
     31 H           0.4159   -1.8010   -0.7622 H       1  UNL1        0.0355
     32 H           1.5491   -2.6973    0.2163 H       1  UNL1        0.0355
     33 H           2.0748   -0.5733    1.5623 H       1  UNL1        0.0570
     34 H          -0.8229   -0.1826    0.6017 H       1  UNL1        0.0532
     35 H           0.0231    0.6209    2.0460 H       1  UNL1        0.0532
     36 H           3.9578   -2.4185   -0.0866 H       1  UNL1        0.0628
     37 H           4.8187   -0.1388   -5.8713 H       1  UNL1        0.0660
     38 H           5.1033    1.2185   -4.6971 H       1  UNL1        0.0660
     39 H           6.4485    0.3680   -5.4259 H       1  UNL1        0.0660
     40 H           7.2085   -0.5162   -2.4525 H       1  UNL1        0.0628
     41 H          10.5662   -1.9450   -2.7729 H       1  UNL1        0.0355
     42 H           9.4963   -0.6766   -3.3135 H       1  UNL1        0.0355
     43 H           9.6954    0.4933   -1.0531 H       1  UNL1        0.0570
     44 H          12.3105   -1.1152   -1.2582 H       1  UNL1        0.0532
     45 H          11.9629    0.3673   -0.1958 H       1  UNL1        0.0532
     46 H           9.8040   -3.6496   -1.1789 H       1  UNL1        0.0658
     47 H           9.8907   -5.4777    0.2768 H       1  UNL1        0.0660
     48 H           8.9651   -4.3212    1.3027 H       1  UNL1        0.0660
     49 H           8.6794   -6.0612    1.4271 H       1  UNL1        0.0660
     50 H           5.7141   -6.1259    0.0293 H       1  UNL1        0.0660
     51 H           5.8609   -4.7326    1.1799 H       1  UNL1        0.0660
     52 H           4.2845   -5.3315    0.6728 H       1  UNL1        0.0660
@<TRIPOS>BOND
     1     1    27    1
     2     1    28    1
     3     1    29    1
     4     2     1    1
     5     3     2    1
     6     4     3   ar
     7     4    30    1
     8     5     4   ar
     9     6     5    1
    10     6    31    1
    11     6    32    1
    12     7     6    1
    13     7    33    1
    14     8     7    2
    15     8    34    1
    16     8    35    1
    17     9     5   ar
    18     9    36    1
    19    10     9   ar
    20    11    10   ar
    21    11     3   ar
    22    12    11    1
    23    13    12    1
    24    13    37    1
    25    13    38    1
    26    13    39    1
    27    14    10    1
    28    15    14   ar
    29    15    40    1
    30    16    15   ar
    31    17    16    1
    32    17    41    1
    33    17    42    1
    34    18    17    1
    35    18    43    1
    36    19    18    2
    37    19    44    1
    38    19    45    1
    39    20    16   ar
    40    20    46    1
    41    21    20   ar
    42    22    21    1
    43    23    22    1
    44    23    47    1
    45    23    48    1
    46    23    49    1
    47    24    21   ar
    48    24    14   ar
    49    25    24    1
    50    26    25    1
    51    26    50    1
    52    26    51    1
    53    26    52    1
