@<TRIPOS>MOLECULE
mol_255_akc_jcbi201808003
>247.sdf
 38 39 0 0 0
SMALL
GASTEIGER

@<TRIPOS>ATOM
      1 CL         -4.8460    3.9813    0.7529 Cl      1  UNL1       -0.0835
      2 C          -4.1302    2.4560    0.4046 C.ar    1  UNL1        0.0430
      3 C          -2.8165    2.3947   -0.0389 C.ar    1  UNL1       -0.0173
      4 C          -2.2150    1.1816   -0.3312 C.ar    1  UNL1        0.0741
      5 C          -2.9289   -0.0364   -0.1713 C.ar    1  UNL1        0.0213
      6 C          -4.2751    0.0568    0.2745 C.ar    1  UNL1       -0.0494
      7 C          -4.8657    1.2921    0.5606 C.ar    1  UNL1       -0.0426
      8 C          -2.2264   -1.2566   -0.4605 C.ar    1  UNL1        0.0380
      9 N          -2.8679   -2.5423   -0.3335 N.pl3   1  UNL1       -0.3382
     10 C          -1.9482   -3.6415    0.0406 C.3     1  UNL1        0.0493
     11 C          -2.6731   -4.9999    0.1421 C.3     1  UNL1       -0.0142
     12 N          -3.4493   -5.3683   -1.1172 N.4     1  UNL1        0.2539
     13 C          -2.6557   -5.3300   -2.4034 C.3     1  UNL1        0.0317
     14 C          -1.5477   -6.2912   -2.3698 C.1     1  UNL1       -0.0562
     15 C          -0.6459   -7.0834   -2.3593 C.1     1  UNL1       -0.1140
     16 C          -4.1806   -6.6842   -0.9785 C.3     1  UNL1        0.0317
     17 C          -5.2068   -6.5809    0.0582 C.1     1  UNL1       -0.0562
     18 C          -6.0350   -6.5329    0.9263 C.1     1  UNL1       -0.1140
     19 C          -0.9336   -1.1509   -0.9883 C.ar    1  UNL1       -0.0221
     20 C          -0.3423    0.0922   -1.0992 C.ar    1  UNL1        0.0300
     21 N          -0.9520    1.2383   -0.7658 N.ar    1  UNL1       -0.2548
     22 H          -2.2425    3.3114   -0.1665 H       1  UNL1        0.0653
     23 H          -4.8911   -0.8280    0.3971 H       1  UNL1        0.0625
     24 H          -5.8982    1.3414    0.9017 H       1  UNL1        0.0632
     25 H          -3.5950   -2.4295    0.3777 H       1  UNL1        0.1463
     26 H          -1.1473   -3.7609   -0.6935 H       1  UNL1        0.0514
     27 H          -1.4848   -3.4192    1.0090 H       1  UNL1        0.0514
     28 H          -1.9640   -5.8072    0.3525 H       1  UNL1        0.0830
     29 H          -3.4010   -4.9450    0.9575 H       1  UNL1        0.0830
     30 H          -4.1568   -4.6304   -1.2266 H       1  UNL1        0.2054
     31 H          -3.3522   -5.5584   -3.2171 H       1  UNL1        0.0960
     32 H          -2.3073   -4.3044   -2.5556 H       1  UNL1        0.0960
     33 H           0.1561   -7.7904   -2.3751 H       1  UNL1        0.1230
     34 H          -4.6414   -6.9167   -1.9444 H       1  UNL1        0.0960
     35 H          -3.4444   -7.4582   -0.7351 H       1  UNL1        0.0960
     36 H          -6.7690   -6.5199    1.7032 H       1  UNL1        0.1230
     37 H          -0.3518   -2.0003   -1.3167 H       1  UNL1        0.0651
     38 H           0.6713    0.2017   -1.4744 H       1  UNL1        0.0830
@<TRIPOS>UNITY_ATOM_ATTR
12 1
charge 1
@<TRIPOS>BOND
     1     2     1    1
     2     3     2   ar
     3     3    22    1
     4     4     3   ar
     5     5     4   ar
     6     6     5   ar
     7     6    23    1
     8     7     6   ar
     9     7     2   ar
    10     7    24    1
    11     8     5   ar
    12     9     8    1
    13     9    25    1
    14    10     9    1
    15    10    26    1
    16    10    27    1
    17    11    10    1
    18    11    28    1
    19    11    29    1
    20    12    11    1
    21    12    30    1
    22    13    12    1
    23    13    31    1
    24    13    32    1
    25    14    13    1
    26    15    14    3
    27    15    33    1
    28    16    12    1
    29    16    34    1
    30    16    35    1
    31    17    16    1
    32    18    17    3
    33    18    36    1
    34    19     8   ar
    35    19    37    1
    36    20    19   ar
    37    20    38    1
    38    21    20   ar
    39    21     4   ar
