@<TRIPOS>MOLECULE
mol_256_akc_jejps201806023
>248.sdf
 46 46 0 0 0
SMALL
GASTEIGER

@<TRIPOS>ATOM
      1 C           0.9142   -0.0398    0.0916 C.3     1  UNL1       -0.0653
      2 C           2.4330   -0.0474    0.0748 C.3     1  UNL1       -0.0559
      3 C           2.9767    0.4541   -1.2606 C.3     1  UNL1       -0.0533
      4 C           4.5036    0.4354   -1.2683 C.3     1  UNL1       -0.0531
      5 C           5.0514    0.9275   -2.6036 C.3     1  UNL1       -0.0529
      6 C           6.5794    0.8964   -2.6138 C.3     1  UNL1       -0.0483
      7 C           7.1093    1.4218   -3.9433 C.3     1  UNL1       -0.0126
      8 C           8.6307    1.4736   -3.9569 C.3     1  UNL1       -0.0334
      9 N           9.1183    1.9939   -5.2664 N.4     1  UNL1        0.2303
     10 C           8.7657    3.4109   -5.5751 C.3     1  UNL1       -0.0077
     11 C           9.3088    3.8190   -6.9083 C.ar    1  UNL1       -0.0027
     12 C           8.5725    3.5753   -8.0769 C.ar    1  UNL1       -0.0501
     13 C           9.0819    3.9377   -9.3269 C.ar    1  UNL1       -0.0195
     14 C          10.3347    4.5408   -9.4233 C.ar    1  UNL1        0.1201
     15 O          10.9452    4.9421  -10.5773 O.3     1  UNL1       -0.4951
     16 C          10.2215    4.7613  -11.7888 C.3     1  UNL1        0.0788
     17 C          11.0733    4.7767   -8.2618 C.ar    1  UNL1       -0.0195
     18 C          10.5713    4.4185   -7.0110 C.ar    1  UNL1       -0.0501
     19 H           0.5451   -0.4040    1.0551 H       1  UNL1        0.0230
     20 H           0.5262    0.9721   -0.0622 H       1  UNL1        0.0230
     21 H           0.5111   -0.6862   -0.6945 H       1  UNL1        0.0230
     22 H           2.8071    0.5838    0.8892 H       1  UNL1        0.0263
     23 H           2.7913   -1.0662    0.2627 H       1  UNL1        0.0263
     24 H           2.5963   -0.1748   -2.0749 H       1  UNL1        0.0265
     25 H           2.6189    1.4743   -1.4466 H       1  UNL1        0.0265
     26 H           4.8841    1.0705   -0.4591 H       1  UNL1        0.0265
     27 H           4.8621   -0.5832   -1.0775 H       1  UNL1        0.0265
     28 H           4.6647    0.3032   -3.4183 H       1  UNL1        0.0265
     29 H           4.7012    1.9510   -2.7885 H       1  UNL1        0.0265
     30 H           6.9647    1.5142   -1.7943 H       1  UNL1        0.0267
     31 H           6.9351   -0.1269   -2.4489 H       1  UNL1        0.0267
     32 H           6.7493    0.7905   -4.7649 H       1  UNL1        0.0317
     33 H           6.6911    2.4218   -4.0982 H       1  UNL1        0.0317
     34 H           9.0343    2.1226   -3.1733 H       1  UNL1        0.0814
     35 H           9.0595    0.4720   -3.8452 H       1  UNL1        0.0814
     36 H          10.1439    1.9172   -5.2974 H       1  UNL1        0.2017
     37 H           8.7866    1.3945   -6.0336 H       1  UNL1        0.2017
     38 H           7.6761    3.5020   -5.5871 H       1  UNL1        0.0866
     39 H           9.1604    4.0361   -4.7673 H       1  UNL1        0.0866
     40 H           7.5857    3.1180   -8.0359 H       1  UNL1        0.0623
     41 H           8.4756    3.7447  -10.2062 H       1  UNL1        0.0654
     42 H          10.0120    3.7015  -11.9675 H       1  UNL1        0.0660
     43 H           9.2979    5.3511  -11.7866 H       1  UNL1        0.0660
     44 H          10.8475    5.1209  -12.6096 H       1  UNL1        0.0660
     45 H          12.0478    5.2551   -8.3372 H       1  UNL1        0.0654
     46 H          11.1721    4.6295   -6.1291 H       1  UNL1        0.0623
@<TRIPOS>UNITY_ATOM_ATTR
9 1
charge 1
@<TRIPOS>BOND
     1     1    19    1
     2     1    20    1
     3     1    21    1
     4     2     1    1
     5     2    22    1
     6     2    23    1
     7     3     2    1
     8     3    24    1
     9     3    25    1
    10     4     3    1
    11     4    26    1
    12     4    27    1
    13     5     4    1
    14     5    28    1
    15     5    29    1
    16     6     5    1
    17     6    30    1
    18     6    31    1
    19     7     6    1
    20     7    32    1
    21     7    33    1
    22     8     7    1
    23     8    34    1
    24     8    35    1
    25     9     8    1
    26     9    36    1
    27     9    37    1
    28    10     9    1
    29    10    38    1
    30    10    39    1
    31    11    10    1
    32    12    11   ar
    33    12    40    1
    34    13    12   ar
    35    13    41    1
    36    14    13   ar
    37    15    14    1
    38    16    15    1
    39    16    42    1
    40    16    43    1
    41    16    44    1
    42    17    14   ar
    43    17    45    1
    44    18    17   ar
    45    18    11   ar
    46    18    46    1
