@<TRIPOS>MOLECULE
mol_258_akc_aac00079_18
>250.sdf
 17 18 0 0 0
SMALL
GASTEIGER

@<TRIPOS>ATOM
      1 O           1.3725    0.1844   -0.0152 O.3     1  UNL1        0.0000
      2 B           2.8337    0.1318   -0.0177 B       1  UNL1        0.0000
      3 O           3.6177   -1.1165   -0.0232 O.3     1  UNL1        0.0000
      4 C           4.9768   -0.6835   -0.0263 C.3     1  UNL1        0.0000
      5 C           5.0021    0.8178   -0.0227 C.ar    1  UNL1        0.0000
      6 C           3.7468    1.3387   -0.0177 C.ar    1  UNL1        0.0000
      7 C           3.5063    2.7118   -0.0140 C.ar    1  UNL1        0.0000
      8 C           4.6152    3.5742   -0.0155 C.ar    1  UNL1        0.0000
      9 C           5.9225    3.0460   -0.0206 C.ar    1  UNL1        0.0000
     10 F           6.9898    3.8820   -0.0220 F       1  UNL1        0.0000
     11 C           6.1221    1.6538   -0.0243 C.ar    1  UNL1        0.0000
     12 H           1.0764   -0.7609   -0.0095 H       1  UNL1        0.0000
     13 H           5.4860   -1.0584   -0.9396 H       1  UNL1        0.0000
     14 H           5.4917   -1.0629    0.8820 H       1  UNL1        0.0000
     15 H           2.4971    3.1030   -0.0101 H       1  UNL1        0.0000
     16 H           4.4642    4.6459   -0.0127 H       1  UNL1        0.0000
     17 H           7.1216    1.2384   -0.0283 H       1  UNL1        0.0000
@<TRIPOS>BOND
     1     1    12    1
     2     2     1    1
     3     3     2    1
     4     4     3    1
     5     4    13    1
     6     4    14    1
     7     5     4    1
     8     6     5   ar
     9     6     2    1
    10     7     6   ar
    11     7    15    1
    12     8     7   ar
    13     8    16    1
    14     9     8   ar
    15    10     9    1
    16    11     9   ar
    17    11     5   ar
    18    11    17    1
