@<TRIPOS>MOLECULE
mol_259_akc_jjgar201805007
>251.sdf
 30 32 0 0 0
SMALL
GASTEIGER

@<TRIPOS>ATOM
      1 CL         -2.8636    1.0238   -0.0506 Cl      1  UNL1       -0.0835
      2 C          -1.3749    0.1670   -0.1017 C.ar    1  UNL1        0.0424
      3 C          -0.1742    0.8673   -0.1774 C.ar    1  UNL1       -0.0247
      4 C           1.0389    0.1730   -0.2012 C.ar    1  UNL1        0.0466
      5 CL          2.4817    1.1196   -0.3023 Cl      1  UNL1       -0.0832
      6 C           1.0653   -1.2316   -0.1439 C.ar    1  UNL1       -0.0149
      7 C          -0.1709   -1.9154   -0.0826 C.ar    1  UNL1       -0.0547
      8 C          -1.3819   -1.2204   -0.0610 C.ar    1  UNL1       -0.0430
      9 C           2.3547   -2.0272   -0.1083 C.3     1  UNL1        0.0460
     10 C           2.4755   -3.0101   -1.2752 C.3     1  UNL1        0.0151
     11 S           3.5263   -4.4161   -0.8246 S.3     1  UNL1       -0.1143
     12 C           3.6457   -4.1175    0.8931 C.2     1  UNL1        0.0760
     13 S           2.4942   -2.9422    1.4714 S.3     1  UNL1       -0.1068
     14 C           4.5010   -4.7625    1.7223 C.2     1  UNL1        0.1451
     15 C           4.4997   -4.4152    3.2021 C.1     1  UNL1        0.1193
     16 N           4.4986   -4.1270    4.4297 N.1     1  UNL1       -0.1893
     17 N           5.5212   -5.6673    1.3388 N.ar    1  UNL1       -0.2957
     18 C           6.0783   -6.6693    2.1196 C.ar    1  UNL1        0.0300
     19 C           7.0209   -7.3030    1.3465 C.ar    1  UNL1        0.0458
     20 N           7.1266   -6.7013    0.1323 N.ar    1  UNL1       -0.2437
     21 C           6.2498   -5.7231    0.1595 C.ar    1  UNL1        0.1009
     22 H          -0.1833    1.9539   -0.2088 H       1  UNL1        0.0647
     23 H          -0.2028   -3.0023   -0.0260 H       1  UNL1        0.0622
     24 H          -2.3157   -1.7716    0.0009 H       1  UNL1        0.0632
     25 H           3.2323   -1.3747   -0.1333 H       1  UNL1        0.0473
     26 H           1.5142   -3.4067   -1.6152 H       1  UNL1        0.0394
     27 H           2.9253   -2.5054   -2.1386 H       1  UNL1        0.0394
     28 H           5.7306   -6.8811    3.1221 H       1  UNL1        0.0829
     29 H           7.6320   -8.1581    1.6050 H       1  UNL1        0.0845
     30 H           6.1440   -4.9976   -0.6330 H       1  UNL1        0.1032
@<TRIPOS>BOND
     1     1     2    1
     2     2     3   ar
     3     3     4   ar
     4     4     5    1
     5     4     6   ar
     6     6     7   ar
     7     7     8   ar
     8     2     8   ar
     9     9     6    1
    10     9    10    1
    11    10    11    1
    12    11    12    1
    13    12    13    1
    14     9    13    1
    15    12    14    2
    16    14    15    1
    17    15    16    3
    18    14    17    1
    19    17    18   ar
    20    18    19   ar
    21    19    20   ar
    22    20    21   ar
    23    17    21   ar
    24     3    22    1
    25     7    23    1
    26     8    24    1
    27     9    25    1
    28    10    26    1
    29    10    27    1
    30    18    28    1
    31    19    29    1
    32    21    30    1
