@<TRIPOS>MOLECULE
mol_25_akc_jejmech201203003
>25.sdf
 37 39 0 0 0
SMALL
GASTEIGER

@<TRIPOS>ATOM
      1 C           2.5438   -0.1415   -0.0801 C.3     1  UNL1       -0.0397
      2 C           1.1401    0.3878   -0.1461 C.ar    1  UNL1       -0.0503
      3 C           0.8728    1.7284    0.1540 C.ar    1  UNL1       -0.0569
      4 C          -0.4127    2.2439   -0.0126 C.ar    1  UNL1       -0.0332
      5 C          -1.4381    1.4165   -0.4836 C.ar    1  UNL1        0.1281
      6 C          -1.1985    0.0647   -0.7397 C.ar    1  UNL1       -0.0332
      7 C           0.0911   -0.4463   -0.5631 C.ar    1  UNL1       -0.0569
      8 S          -2.9408    2.1680   -1.0690 S.O2    1  UNL1        0.1510
      9 O          -2.8573    3.5762   -0.7322 O.2     1  UNL1       -0.1314
     10 O          -3.0626    1.7354   -2.4521 O.2     1  UNL1       -0.1314
     11 O          -4.1744    1.5239   -0.2377 O.3     1  UNL1       -0.3391
     12 C          -5.5243    1.9276   -0.2002 C.ar    1  UNL1        0.2013
     13 C          -6.3303    1.3673    0.7222 C.ar    1  UNL1        0.2348
     14 C          -7.7609    1.6474    0.9032 C.ar    1  UNL1        0.2833
     15 O          -8.4590    1.1510    1.7785 O.2     1  UNL1       -0.2653
     16 N          -8.2911    2.5443    0.0213 N.ar    1  UNL1       -0.3200
     17 C          -7.5499    3.1945   -0.9709 C.ar    1  UNL1        0.0529
     18 C          -6.1673    2.9240   -1.1378 C.ar    1  UNL1        0.0454
     19 C          -5.5574    3.6351   -2.1814 C.ar    1  UNL1       -0.0490
     20 C          -6.2427    4.5713   -2.9726 C.ar    1  UNL1       -0.0610
     21 C          -7.5877    4.8154   -2.7663 C.ar    1  UNL1       -0.0598
     22 C          -8.2481    4.1170   -1.7676 C.ar    1  UNL1       -0.0376
     23 N          -5.7636    0.4178    1.6363 N.pl3   1  UNL1        0.0656
     24 O          -4.9340    0.8440    2.4526 O.2     1  UNL1       -0.1258
     25 O          -6.1080   -0.7633    1.5089 O.2     1  UNL1       -0.1258
     26 H           2.6090   -0.9680    0.6329 H       1  UNL1        0.0278
     27 H           2.8574   -0.4904   -1.0701 H       1  UNL1        0.0278
     28 H           3.2507    0.6346    0.2332 H       1  UNL1        0.0278
     29 H           1.6730    2.3935    0.4718 H       1  UNL1        0.0621
     30 H          -0.5801    3.3051    0.1610 H       1  UNL1        0.0638
     31 H          -1.9794   -0.5782   -1.1390 H       1  UNL1        0.0638
     32 H           0.2900   -1.4896   -0.8026 H       1  UNL1        0.0621
     33 H          -9.2791    2.7436    0.1352 H       1  UNL1        0.1690
     34 H          -4.5222    3.5332   -2.4615 H       1  UNL1        0.0625
     35 H          -5.7027    5.1061   -3.7525 H       1  UNL1        0.0618
     36 H          -8.1130    5.5413   -3.3802 H       1  UNL1        0.0618
     37 H          -9.3077    4.3034   -1.6135 H       1  UNL1        0.0638
@<TRIPOS>BOND
     1     1    26    1
     2     1    27    1
     3     1    28    1
     4     2     1    1
     5     3     2   ar
     6     3    29    1
     7     4     3   ar
     8     4    30    1
     9     5     4   ar
    10     6     5   ar
    11     6    31    1
    12     7     6   ar
    13     7     2   ar
    14     7    32    1
    15     8     5    1
    16     9     8    2
    17    10     8    2
    18    11     8    1
    19    12    11    1
    20    13    12   ar
    21    14    13   ar
    22    15    14    2
    23    16    14   ar
    24    16    33    1
    25    17    16   ar
    26    18    17   ar
    27    18    12   ar
    28    19    18   ar
    29    19    34    1
    30    20    19   ar
    31    20    35    1
    32    21    20   ar
    33    21    36    1
    34    22    21   ar
    35    22    17   ar
    36    22    37    1
    37    23    13    1
    38    24    23    2
    39    25    23    2
