@<TRIPOS>MOLECULE
mol_260_akc_cbdd13326
>252.sdf
 58 61 0 0 0
SMALL
GASTEIGER

@<TRIPOS>ATOM
      1 C           7.5876   -4.8618  -10.0072 C.3     1  UNL1        0.0820
      2 O           7.9920   -4.0990   -8.8681 O.3     1  UNL1       -0.4645
      3 C           8.9946   -4.6433   -8.1328 C.2     1  UNL1        0.3390
      4 O           9.5544   -5.7012   -8.3465 O.2     1  UNL1       -0.2450
      5 C           9.3342   -3.7467   -6.9872 C.ar    1  UNL1        0.0605
      6 C           8.6613   -2.5446   -6.7528 C.ar    1  UNL1       -0.0276
      7 C           9.0113   -1.7063   -5.6741 C.ar    1  UNL1        0.0629
      8 CL          8.2396   -0.1587   -5.7226 Cl      1  UNL1       -0.0816
      9 C          10.0215   -2.0829   -4.7671 C.ar    1  UNL1        0.0519
     10 N          10.4688   -1.3919   -3.6015 N.am    1  UNL1       -0.2836
     11 C           9.7885   -0.4705   -2.8303 C.2     1  UNL1        0.2275
     12 O           8.5906   -0.2128   -2.9549 O.2     1  UNL1       -0.2746
     13 C          10.5142    0.1272   -1.6208 C.3     1  UNL1        0.0779
     14 S          12.3155   -0.0305   -1.4965 S.3     1  UNL1       -0.0783
     15 C          12.8540    0.7817   -2.9336 C.ar    1  UNL1        0.1707
     16 N          12.0624    1.4708   -3.7211 N.ar    1  UNL1       -0.2218
     17 C          12.3193    0.9536   -4.9648 C.ar    1  UNL1        0.0903
     18 C          11.6152    1.1216   -6.1611 C.ar    1  UNL1       -0.0328
     19 C          11.9092    0.2547   -7.2219 C.ar    1  UNL1       -0.0413
     20 C          12.9138   -0.7108   -7.1013 C.ar    1  UNL1        0.0431
     21 CL         13.1382   -1.8552   -8.3684 Cl      1  UNL1       -0.0835
     22 C          13.7189   -0.8029   -5.9618 C.ar    1  UNL1       -0.0177
     23 C          13.3802    0.0485   -4.9117 C.ar    1  UNL1        0.0711
     24 N          13.8992    0.2408   -3.6470 N.ar    1  UNL1       -0.3142
     25 C          15.3060    0.5451   -3.3946 C.3     1  UNL1        0.0507
     26 C          16.1364   -0.6336   -2.9570 C.ar    1  UNL1       -0.0272
     27 C          17.2002   -1.0903   -3.7552 C.ar    1  UNL1       -0.0539
     28 C          18.0796   -2.0773   -3.2890 C.ar    1  UNL1       -0.0499
     29 C          19.2679   -2.5102   -4.0996 C.3     1  UNL1       -0.0397
     30 C          17.8670   -2.6408   -2.0254 C.ar    1  UNL1       -0.0559
     31 C          16.8062   -2.2122   -1.2214 C.ar    1  UNL1       -0.0499
     32 C          16.5901   -2.7917    0.1453 C.3     1  UNL1       -0.0397
     33 C          15.9527   -1.2064   -1.6916 C.ar    1  UNL1       -0.0539
     34 C          10.7134   -3.2808   -5.0447 C.ar    1  UNL1       -0.0383
     35 C          10.3768   -4.1023   -6.1325 C.ar    1  UNL1       -0.0459
     36 H           8.4453   -5.1026  -10.6454 H       1  UNL1        0.0661
     37 H           7.0699   -5.7723   -9.6913 H       1  UNL1        0.0661
     38 H           6.8902   -4.2517  -10.5893 H       1  UNL1        0.0661
     39 H           7.8682   -2.2287   -7.4284 H       1  UNL1        0.0641
     40 H          11.3506   -1.6987   -3.2092 H       1  UNL1        0.1549
     41 H          10.2447    1.1855   -1.5443 H       1  UNL1        0.0475
     42 H          10.1024   -0.3866   -0.7449 H       1  UNL1        0.0475
     43 H          10.7951    1.8298   -6.2199 H       1  UNL1        0.0640
     44 H          11.3080    0.3102   -8.1256 H       1  UNL1        0.0633
     45 H          14.4968   -1.5511   -5.8606 H       1  UNL1        0.0653
     46 H          15.7090    0.9769   -4.3205 H       1  UNL1        0.0542
     47 H          15.3600    1.3374   -2.6376 H       1  UNL1        0.0542
     48 H          17.3744   -0.6455   -4.7342 H       1  UNL1        0.0623
     49 H          20.1898   -2.3380   -3.5318 H       1  UNL1        0.0278
     50 H          19.1945   -3.5738   -4.3464 H       1  UNL1        0.0278
     51 H          19.3471   -1.9469   -5.0347 H       1  UNL1        0.0278
     52 H          18.5510   -3.4038   -1.6575 H       1  UNL1        0.0623
     53 H          16.6126   -1.9972    0.8983 H       1  UNL1        0.0278
     54 H          15.6226   -3.3018    0.1880 H       1  UNL1        0.0278
     55 H          17.3683   -3.5175    0.4024 H       1  UNL1        0.0278
     56 H          15.1641   -0.8425   -1.0372 H       1  UNL1        0.0623
     57 H          11.5288   -3.6085   -4.3979 H       1  UNL1        0.0637
     58 H          10.9322   -5.0232   -6.3013 H       1  UNL1        0.0626
@<TRIPOS>BOND
     1     1    36    1
     2     1    37    1
     3     1    38    1
     4     2     1    1
     5     3     2    1
     6     4     3    2
     7     5     3    1
     8     6     5   ar
     9     6    39    1
    10     7     6   ar
    11     8     7    1
    12     9     7   ar
    13    10     9    1
    14    10    40    1
    15    11    10   am
    16    12    11    2
    17    13    11    1
    18    13    41    1
    19    13    42    1
    20    14    13    1
    21    15    14    1
    22    16    15   ar
    23    17    16   ar
    24    18    17   ar
    25    18    43    1
    26    19    18   ar
    27    19    44    1
    28    20    19   ar
    29    21    20    1
    30    22    20   ar
    31    22    45    1
    32    23    22   ar
    33    23    17   ar
    34    24    23   ar
    35    24    15   ar
    36    25    24    1
    37    25    46    1
    38    25    47    1
    39    26    25    1
    40    27    26   ar
    41    27    48    1
    42    28    27   ar
    43    29    28    1
    44    29    49    1
    45    29    50    1
    46    29    51    1
    47    30    28   ar
    48    30    52    1
    49    31    30   ar
    50    32    31    1
    51    32    53    1
    52    32    54    1
    53    32    55    1
    54    33    31   ar
    55    33    26   ar
    56    33    56    1
    57    34     9   ar
    58    34    57    1
    59    35    34   ar
    60    35     5   ar
    61    35    58    1
