@<TRIPOS>MOLECULE
mol_261_akc_s40409_018_0156_9
>253.sdf
 62 61 0 0 0
SMALL
GASTEIGER

@<TRIPOS>ATOM
      1 C           3.7495   -0.4004    5.8583 C.3     1  UNL1       -0.0653
      2 C           5.0965   -1.0591    5.6126 C.3     1  UNL1       -0.0559
      3 C           6.0832   -0.0739    4.9973 C.3     1  UNL1       -0.0530
      4 C           7.4419   -0.7273    4.7447 C.3     1  UNL1       -0.0496
      5 C           8.3942    0.2901    4.1274 C.3     1  UNL1       -0.0348
      6 C           9.7559   -0.2701    3.8427 C.2     1  UNL1       -0.0876
      7 C          10.7342    0.4402    3.2561 C.2     1  UNL1       -0.0842
      8 C          10.6086    1.8658    2.8042 C.3     1  UNL1       -0.0165
      9 C          11.5585    2.7420    3.5482 C.2     1  UNL1       -0.0839
     10 C          12.4300    3.5617    2.9358 C.2     1  UNL1       -0.0839
     11 C          13.3934    4.4544    3.6541 C.3     1  UNL1       -0.0165
     12 C          12.7189    5.5089    4.4815 C.2     1  UNL1       -0.0839
     13 C          13.3798    6.4327    5.1995 C.2     1  UNL1       -0.0839
     14 C          14.8715    6.5597    5.2716 C.3     1  UNL1       -0.0165
     15 C          15.3584    6.3614    6.6719 C.2     1  UNL1       -0.0842
     16 C          16.1297    7.2480    7.3125 C.2     1  UNL1       -0.0876
     17 C          16.6585    7.0319    8.6951 C.3     1  UNL1       -0.0347
     18 C          18.0382    6.3885    8.6270 C.3     1  UNL1       -0.0475
     19 C          18.6128    6.1794   10.0205 C.3     1  UNL1       -0.0286
     20 C          19.9739    5.5209    9.9297 C.3     1  UNL1        0.0593
     21 O          20.4893    5.3266   11.2342 O.3     1  UNL1       -0.2834
     22 P          22.0459    4.5752   11.1602 P.3     1  UNL1        0.5150
     23 F          22.7248    6.0027   10.9221 F       1  UNL1       -0.1326
     24 O          22.0199    4.3724   12.6781 O.2     1  UNL1       -0.2226
     25 O          23.6024    3.8238   11.0862 O.3     1  UNL1       -0.2867
     26 C          24.0045    3.5364    9.7620 C.3     1  UNL1        0.0481
     27 H           3.0520   -1.1180    6.2995 H       1  UNL1        0.0230
     28 H           3.8479    0.4472    6.5444 H       1  UNL1        0.0230
     29 H           3.3166   -0.0342    4.9216 H       1  UNL1        0.0230
     30 H           5.4932   -1.4394    6.5609 H       1  UNL1        0.0263
     31 H           4.9640   -1.9184    4.9453 H       1  UNL1        0.0263
     32 H           5.6796    0.3102    4.0519 H       1  UNL1        0.0265
     33 H           6.2090    0.7877    5.6648 H       1  UNL1        0.0265
     34 H           7.8556   -1.1052    5.6877 H       1  UNL1        0.0268
     35 H           7.3239   -1.5864    4.0729 H       1  UNL1        0.0268
     36 H           7.9544    0.6568    3.1911 H       1  UNL1        0.0307
     37 H           8.4956    1.1421    4.8117 H       1  UNL1        0.0307
     38 H           9.9603   -1.2994    4.1307 H       1  UNL1        0.0569
     39 H          11.6975   -0.0366    3.0852 H       1  UNL1        0.0572
     40 H          10.7923    1.9035    1.7249 H       1  UNL1        0.0350
     41 H           9.6006    2.2635    2.9603 H       1  UNL1        0.0350
     42 H          11.5058    2.7284    4.6353 H       1  UNL1        0.0572
     43 H          12.4797    3.5852    1.8479 H       1  UNL1        0.0572
     44 H          14.0445    3.8353    4.2828 H       1  UNL1        0.0350
     45 H          14.0269    4.9380    2.8982 H       1  UNL1        0.0350
     46 H          11.6304    5.5228    4.5089 H       1  UNL1        0.0572
     47 H          12.8054    7.1547    5.7768 H       1  UNL1        0.0572
     48 H          15.3776    5.8264    4.6362 H       1  UNL1        0.0350
     49 H          15.1539    7.5479    4.8886 H       1  UNL1        0.0350
     50 H          15.0879    5.4253    7.1575 H       1  UNL1        0.0572
     51 H          16.4223    8.1726    6.8177 H       1  UNL1        0.0569
     52 H          16.7108    7.9980    9.2097 H       1  UNL1        0.0307
     53 H          15.9747    6.3994    9.2750 H       1  UNL1        0.0307
     54 H          17.9723    5.4205    8.1119 H       1  UNL1        0.0269
     55 H          18.7187    7.0151    8.0359 H       1  UNL1        0.0269
     56 H          18.6997    7.1368   10.5507 H       1  UNL1        0.0288
     57 H          17.9430    5.5552   10.6244 H       1  UNL1        0.0288
     58 H          19.8989    4.5468    9.4335 H       1  UNL1        0.0566
     59 H          20.6689    6.1478    9.3600 H       1  UNL1        0.0566
     60 H          23.2911    2.8465    9.3022 H       1  UNL1        0.0529
     61 H          24.0542    4.4588    9.1773 H       1  UNL1        0.0529
     62 H          24.9916    3.0692    9.7821 H       1  UNL1        0.0529
@<TRIPOS>BOND
     1     1    27    1
     2     1    28    1
     3     1    29    1
     4     2     1    1
     5     2    30    1
     6     2    31    1
     7     3     2    1
     8     3    32    1
     9     3    33    1
    10     4     3    1
    11     4    34    1
    12     4    35    1
    13     5     4    1
    14     5    36    1
    15     5    37    1
    16     6     5    1
    17     6    38    1
    18     7     6    2
    19     7    39    1
    20     8     7    1
    21     8    40    1
    22     8    41    1
    23     9     8    1
    24     9    42    1
    25    10     9    2
    26    10    43    1
    27    11    10    1
    28    11    44    1
    29    11    45    1
    30    12    11    1
    31    12    46    1
    32    13    12    2
    33    13    47    1
    34    14    13    1
    35    14    48    1
    36    14    49    1
    37    15    14    1
    38    15    50    1
    39    16    15    2
    40    16    51    1
    41    17    16    1
    42    17    52    1
    43    17    53    1
    44    18    17    1
    45    18    54    1
    46    18    55    1
    47    19    18    1
    48    19    56    1
    49    19    57    1
    50    20    19    1
    51    20    58    1
    52    20    59    1
    53    21    20    1
    54    22    21    1
    55    23    22    1
    56    24    22    2
    57    25    22    1
    58    26    25    1
    59    26    60    1
    60    26    61    1
    61    26    62    1
