@<TRIPOS>MOLECULE
mol_262_akc_s40409_0
>254.sdf
 32 34 0 0 0
SMALL
GASTEIGER

@<TRIPOS>ATOM
      1 BR          5.6786   -1.6872   -1.2147 Br      1  UNL1       -0.0553
      2 C           4.4803   -0.6290   -0.2824 C.2     1  UNL1        0.0196
      3 C           4.7406    0.2016    0.7344 C.2     1  UNL1        0.1156
      4 C           6.0901    0.4707    1.3322 C.3     1  UNL1        0.0072
      5 C           5.9848    0.7038    2.8299 C.3     1  UNL1       -0.0291
      6 C           4.9325    1.7564    3.1830 C.3     1  UNL1        0.0828
      7 C           3.5943    1.4535    2.5420 C.2     1  UNL1        0.3196
      8 O           2.5291    1.8034    3.0512 O.2     1  UNL1       -0.2497
      9 O           3.6103    0.8356    1.3288 O.3     1  UNL1       -0.4293
     10 C           5.3934    3.1985    2.9454 C.ar    1  UNL1       -0.0259
     11 C           5.1811    3.7824    1.6781 C.ar    1  UNL1       -0.0572
     12 C           5.5958    5.0786    1.3981 C.ar    1  UNL1       -0.0609
     13 C           6.2319    5.8258    2.3790 C.ar    1  UNL1       -0.0540
     14 C           6.4433    5.2993    3.6583 C.ar    1  UNL1       -0.0176
     15 C           6.0306    3.9739    3.9671 C.ar    1  UNL1       -0.0139
     16 C           6.2717    3.5266    5.2904 C.ar    1  UNL1       -0.0537
     17 C           6.8678    4.3458    6.2558 C.ar    1  UNL1       -0.0612
     18 C           7.2612    5.6340    5.9266 C.ar    1  UNL1       -0.0612
     19 C           7.0552    6.1038    4.6332 C.ar    1  UNL1       -0.0540
     20 H           3.4622   -0.7515   -0.6405 H       1  UNL1        0.0729
     21 H           6.7742   -0.3691    1.1662 H       1  UNL1        0.0344
     22 H           6.5400    1.3418    0.8430 H       1  UNL1        0.0344
     23 H           5.7068   -0.2473    3.3053 H       1  UNL1        0.0280
     24 H           6.9677    0.9774    3.2326 H       1  UNL1        0.0280
     25 H           4.7252    1.6258    4.2520 H       1  UNL1        0.0463
     26 H           4.6751    3.2414    0.8817 H       1  UNL1        0.0621
     27 H           5.4158    5.5084    0.4161 H       1  UNL1        0.0618
     28 H           6.5510    6.8375    2.1375 H       1  UNL1        0.0624
     29 H           5.9833    2.5300    5.6107 H       1  UNL1        0.0624
     30 H           7.0144    3.9754    7.2672 H       1  UNL1        0.0618
     31 H           7.7210    6.2762    6.6725 H       1  UNL1        0.0618
     32 H           7.3659    7.1188    4.3931 H       1  UNL1        0.0624
@<TRIPOS>BOND
     1     2     1    1
     2     2    20    1
     3     3     2    2
     4     4     3    1
     5     4    21    1
     6     4    22    1
     7     5     4    1
     8     5    23    1
     9     5    24    1
    10     6     5    1
    11     6    25    1
    12     7     6    1
    13     8     7    2
    14     9     7    1
    15     9     3    1
    16    10     6    1
    17    11    10   ar
    18    11    26    1
    19    12    11   ar
    20    12    27    1
    21    13    12   ar
    22    13    28    1
    23    14    13   ar
    24    15    14   ar
    25    15    10   ar
    26    16    15   ar
    27    16    29    1
    28    17    16   ar
    29    17    30    1
    30    18    17   ar
    31    18    31    1
    32    19    18   ar
    33    19    14   ar
    34    19    32    1
