@<TRIPOS>MOLECULE
mol_263_akc_s40409_0
>255.sdf
 36 39 0 0 0
SMALL
GASTEIGER

@<TRIPOS>ATOM
      1 C           1.1237    0.3269   -0.0054 C.3     1  UNL1        0.0788
      2 O           2.5148    0.0249    0.0080 O.3     1  UNL1       -0.4945
      3 C           3.1696    0.1091   -1.2003 C.ar    1  UNL1        0.1280
      4 C           4.2938   -0.7440   -1.3810 C.ar    1  UNL1        0.0309
      5 C           4.6371   -1.6934   -0.4171 C.ar    1  UNL1        0.0275
      6 C           5.6952   -2.5902   -0.6223 C.ar    1  UNL1        0.2824
      7 C           6.5167   -2.5821   -1.7911 C.ar    1  UNL1        0.0775
      8 C           7.5612   -3.5425   -2.1337 C.ar    1  UNL1        0.0767
      9 C           8.4440   -3.3407   -3.1993 C.ar    1  UNL1       -0.0013
     10 C           8.2811   -2.2029   -3.9386 C.ar    1  UNL1        0.1677
     11 O           9.0840   -1.8423   -4.9745 O.3     1  UNL1       -0.4526
     12 C           8.4622   -0.6162   -5.3854 C.3     1  UNL1        0.2333
     13 O           7.2934   -0.2998   -4.6109 O.3     1  UNL1       -0.4520
     14 C           7.2332   -1.3396   -3.7209 C.ar    1  UNL1        0.1747
     15 C           6.2716   -1.5049   -2.6990 C.ar    1  UNL1        0.0427
     16 C           5.1003   -0.6517   -2.5450 C.ar    1  UNL1       -0.0026
     17 C           4.6600    0.2760   -3.5259 C.ar    1  UNL1       -0.0531
     18 C           3.5365    1.0879   -3.3592 C.ar    1  UNL1       -0.0577
     19 C           2.8018    1.0176   -2.1900 C.ar    1  UNL1       -0.0193
     20 C           7.5712   -4.9076   -1.5358 C.2     1  UNL1        0.3377
     21 O           8.7926   -5.4528   -1.3748 O.3     1  UNL1       -0.4771
     22 O           6.5346   -5.4933   -1.2793 O.2     1  UNL1       -0.2451
     23 N           6.0415   -3.3964    0.5473 N.pl3   1  UNL1        0.0803
     24 O           5.1309   -4.0019    1.1217 O.co2   1  UNL1       -0.5760
     25 O           7.2224   -3.3263    0.9335 O.2     1  UNL1        0.0415
     26 H           0.9361    1.3822   -0.2248 H       1  UNL1        0.0660
     27 H           0.5916   -0.3240   -0.7070 H       1  UNL1        0.0660
     28 H           0.7332    0.1343    0.9983 H       1  UNL1        0.0660
     29 H           4.0675   -1.7451    0.5122 H       1  UNL1        0.0693
     30 H           9.2012   -4.0615   -3.4900 H       1  UNL1        0.0664
     31 H           9.1846    0.2022   -5.2834 H       1  UNL1        0.1166
     32 H           8.1733   -0.7012   -6.4390 H       1  UNL1        0.1166
     33 H           5.1722    0.3698   -4.4774 H       1  UNL1        0.0624
     34 H           3.2459    1.7755   -4.1489 H       1  UNL1        0.0619
     35 H           1.9605    1.6906   -2.0738 H       1  UNL1        0.0654
     36 H           9.5526   -4.8519   -1.4821 H       1  UNL1        0.2954
@<TRIPOS>UNITY_ATOM_ATTR
23 1
charge 1
24 1
charge -1
@<TRIPOS>BOND
     1     1    26    1
     2     1    27    1
     3     1    28    1
     4     2     1    1
     5     3     2    1
     6     4     3   ar
     7     5     4   ar
     8     5    29    1
     9     6     5   ar
    10     7     6   ar
    11     8     7   ar
    12     9     8   ar
    13     9    30    1
    14    10     9   ar
    15    11    10    1
    16    12    11    1
    17    12    31    1
    18    12    32    1
    19    13    12    1
    20    14    13    1
    21    14    10   ar
    22    15    14   ar
    23    15     7   ar
    24    16    15   ar
    25    16     4   ar
    26    17    16   ar
    27    17    33    1
    28    18    17   ar
    29    18    34    1
    30    19    18   ar
    31    19     3   ar
    32    19    35    1
    33    20     8    1
    34    21    20    1
    35    22    20    2
    36    23     6    1
    37    24    23    1
    38    25    23    2
    39    21    36    1
