@<TRIPOS>MOLECULE
mol_264_akc_ardp201800094
>256.sdf
 39 42 0 0 0
SMALL
GASTEIGER

@<TRIPOS>ATOM
      1 C           0.9286    0.1763    0.0828 C.3     1  UNL1       -0.0391
      2 C           2.4346    0.1207    0.0541 C.ar    1  UNL1       -0.0413
      3 C           3.1540    1.3209    0.0690 C.ar    1  UNL1       -0.0582
      4 C           4.5443    1.3058    0.0416 C.ar    1  UNL1       -0.0595
      5 C           5.2219    0.0884   -0.0032 C.ar    1  UNL1       -0.0356
      6 C           4.5496   -1.1223   -0.0128 C.ar    1  UNL1        0.0736
      7 C           3.1390   -1.1138    0.0201 C.ar    1  UNL1        0.0041
      8 C           2.5182   -2.3685    0.0251 C.ar    1  UNL1       -0.0380
      9 C           3.2835   -3.5400    0.0247 C.ar    1  UNL1        0.0651
     10 C           2.6051   -4.8334    0.0482 C.ar    1  UNL1        0.1915
     11 O           1.3859   -4.9340    0.0082 O.2     1  UNL1       -0.2871
     12 C           3.4419   -6.0287    0.1524 C.ar    1  UNL1        0.0142
     13 C           4.7866   -5.9380    0.1600 C.ar    1  UNL1        0.1322
     14 N           5.4710   -4.6909    0.0384 N.ar    1  UNL1       -0.2897
     15 C           6.9113   -4.6122   -0.0188 C.ar    1  UNL1        0.0486
     16 C           7.6695   -5.4430   -0.8635 C.ar    1  UNL1       -0.0364
     17 C           9.0703   -5.3762   -0.8835 C.ar    1  UNL1       -0.0414
     18 C           9.7352   -4.4372   -0.1005 C.ar    1  UNL1        0.0411
     19 CL         11.4520   -4.3452   -0.1362 Cl      1  UNL1       -0.0835
     20 C           9.0128   -3.5723    0.7106 C.ar    1  UNL1       -0.0414
     21 C           7.6180   -3.6747    0.7625 C.ar    1  UNL1       -0.0364
     22 C           4.6744   -3.4727    0.0114 C.ar    1  UNL1        0.1499
     23 N           5.2740   -2.2583   -0.0357 N.ar    1  UNL1       -0.2285
     24 C           5.4960   -7.2715    0.3780 C.3     1  UNL1        0.4329
     25 F           6.7053   -7.1901    0.9808 F       1  UNL1       -0.1645
     26 F           4.7573   -8.1068    1.1641 F       1  UNL1       -0.1645
     27 F           5.6701   -7.9266   -0.8009 F       1  UNL1       -0.1645
     28 H           0.5141   -0.3117   -0.8050 H       1  UNL1        0.0278
     29 H           0.5446   -0.3117    0.9845 H       1  UNL1        0.0278
     30 H           0.5638    1.2096    0.0872 H       1  UNL1        0.0278
     31 H           2.6370    2.2786    0.1024 H       1  UNL1        0.0620
     32 H           5.1023    2.2379    0.0551 H       1  UNL1        0.0618
     33 H           6.3105    0.0854   -0.0249 H       1  UNL1        0.0639
     34 H           1.4311   -2.4513    0.0468 H       1  UNL1        0.0632
     35 H           2.9056   -6.9685    0.2417 H       1  UNL1        0.0676
     36 H           7.1876   -6.1596   -1.5230 H       1  UNL1        0.0639
     37 H           9.6331   -6.0584   -1.5149 H       1  UNL1        0.0633
     38 H           9.5189   -2.8193    1.3086 H       1  UNL1        0.0633
     39 H           7.0863   -2.9986    1.4286 H       1  UNL1        0.0639
@<TRIPOS>BOND
     1     1    28    1
     2     1    29    1
     3     1    30    1
     4     2     1    1
     5     3     2   ar
     6     3    31    1
     7     4     3   ar
     8     4    32    1
     9     5     4   ar
    10     5    33    1
    11     6     5   ar
    12     7     6   ar
    13     7     2   ar
    14     8     7   ar
    15     8    34    1
    16     9     8   ar
    17    10     9   ar
    18    11    10    2
    19    12    10   ar
    20    12    35    1
    21    13    12   ar
    22    14    13   ar
    23    15    14    1
    24    16    15   ar
    25    16    36    1
    26    17    16   ar
    27    17    37    1
    28    18    17   ar
    29    19    18    1
    30    20    18   ar
    31    20    38    1
    32    21    20   ar
    33    21    15   ar
    34    21    39    1
    35    22    14   ar
    36    22     9   ar
    37    23    22   ar
    38    23     6   ar
    39    24    13    1
    40    25    24    1
    41    26    24    1
    42    27    24    1
