@<TRIPOS>MOLECULE
mol_265_akc_cmdc201800328
>257.sdf
 24 25 0 0 0
SMALL
GASTEIGER

@<TRIPOS>ATOM
      1 N           0.9334   -0.1839    0.0824 N.pl3   1  UNL1       -0.2197
      2 N           0.2996   -1.3714    0.1562 N.2     1  UNL1       -0.1871
      3 C          -0.9748   -1.3591   -0.0852 C.2     1  UNL1        0.0709
      4 C          -1.7634   -2.6069   -0.0382 C.ar    1  UNL1        0.0833
      5 N          -3.0808   -2.4740   -0.3241 N.ar    1  UNL1       -0.2540
      6 C          -3.8083   -3.6136   -0.3128 C.ar    1  UNL1        0.0283
      7 C          -3.2833   -4.8679   -0.0337 C.ar    1  UNL1       -0.0436
      8 C          -1.9285   -4.9684    0.2627 C.ar    1  UNL1       -0.0583
      9 C          -1.1494   -3.8178    0.2642 C.ar    1  UNL1       -0.0347
     10 C           2.3199   -0.1180    0.2599 C.ar    1  UNL1        0.1562
     11 C           3.0739   -1.2280    0.6561 C.ar    1  UNL1        0.0689
     12 N           4.4187   -1.2050    0.8548 N.ar    1  UNL1       -0.2583
     13 C           4.9954   -0.0067    0.6409 C.ar    1  UNL1        0.0458
     14 C           4.2665    1.1037    0.2469 C.ar    1  UNL1        0.0478
     15 N           2.9254    1.0735    0.0495 N.ar    1  UNL1       -0.2358
     16 H           0.5215    0.6806   -0.2535 H       1  UNL1        0.1760
     17 H          -1.5227   -0.4347   -0.3369 H       1  UNL1        0.0867
     18 H          -4.8630   -3.4931   -0.5453 H       1  UNL1        0.0830
     19 H          -3.9157   -5.7490   -0.0483 H       1  UNL1        0.0633
     20 H          -1.4798   -5.9323    0.4861 H       1  UNL1        0.0619
     21 H          -0.0892   -3.8681    0.4888 H       1  UNL1        0.0639
     22 H           2.6003   -2.1882    0.8277 H       1  UNL1        0.0865
     23 H           6.0666    0.0404    0.7955 H       1  UNL1        0.0845
     24 H           4.7486    2.0596    0.0782 H       1  UNL1        0.0846
@<TRIPOS>BOND
     1     1    16    1
     2     2     1    1
     3     3     2    2
     4     3    17    1
     5     4     3    1
     6     5     4   ar
     7     6     5   ar
     8     6    18    1
     9     7     6   ar
    10     7    19    1
    11     8     7   ar
    12     8    20    1
    13     9     8   ar
    14     9     4   ar
    15     9    21    1
    16    10     1    1
    17    11    10   ar
    18    11    22    1
    19    12    11   ar
    20    13    12   ar
    21    13    23    1
    22    14    13   ar
    23    14    24    1
    24    15    14   ar
    25    15    10   ar
