@<TRIPOS>MOLECULE
mol_266_akc_acsmedchemlett8b00053
>258.sdf
 87 92 0 0 0
SMALL
GASTEIGER

@<TRIPOS>ATOM
      1 CL          6.8865    0.1099  -10.0186 Cl      1  UNL1       -0.0833
      2 C           6.5539    0.5754   -8.3996 C.ar    1  UNL1        0.0472
      3 C           6.3722   -0.3997   -7.4289 C.ar    1  UNL1       -0.0424
      4 C           6.1653   -0.0204   -6.1000 C.ar    1  UNL1       -0.0451
      5 C           6.1344    1.3403   -5.7333 C.ar    1  UNL1        0.0672
      6 C           5.9906    1.7694   -4.3876 C.ar    1  UNL1        0.0463
      7 N           6.1168    0.8102   -3.3651 N.pl3   1  UNL1       -0.3429
      8 C           5.6285    1.1007   -2.0369 C.3     1  UNL1        0.0139
      9 C           5.5974   -0.1998   -1.2334 C.3     1  UNL1        0.0030
     10 C           4.7203   -0.1023    0.0069 C.3     1  UNL1       -0.0300
     11 N           3.2570    0.1613   -0.3670 N.4     1  UNL1        0.2427
     12 C           2.6398   -0.9772   -1.1898 C.3     1  UNL1        0.0094
     13 C           1.2363   -1.3811   -0.6997 C.3     1  UNL1        0.0095
     14 N           0.3470   -0.1603   -0.4250 N.4     1  UNL1        0.2428
     15 C          -1.0028   -0.6375    0.0967 C.3     1  UNL1       -0.0266
     16 C          -1.9746    0.5277    0.2046 C.3     1  UNL1        0.0276
     17 C          -3.3013    0.0616    0.7838 C.3     1  UNL1       -0.0288
     18 N          -4.1238    1.2697    0.9953 N.4     1  UNL1        0.2271
     19 C          -5.4724    0.9941    1.5820 C.3     1  UNL1       -0.0332
     20 C          -6.1313    2.3516    1.7050 C.3     1  UNL1       -0.0069
     21 C          -7.4956    2.3374    2.3880 C.3     1  UNL1       -0.0237
     22 C          -7.4096    1.7347    3.8100 C.3     1  UNL1       -0.0443
     23 C          -8.7720    1.8266    4.5081 C.3     1  UNL1       -0.0400
     24 C          -9.1938    3.3014    4.5871 C.3     1  UNL1       -0.0473
     25 C          -9.3273    3.8915    3.1741 C.3     1  UNL1       -0.0400
     26 C         -10.3489    3.0837    2.3574 C.3     1  UNL1       -0.0473
     27 C          -9.9135    1.6126    2.2681 C.3     1  UNL1       -0.0400
     28 C          -9.8056    1.0349    3.6892 C.3     1  UNL1       -0.0473
     29 C          -8.5394    1.5301    1.5792 C.3     1  UNL1       -0.0443
     30 C          -7.9687    3.8091    2.4784 C.3     1  UNL1       -0.0443
     31 C           1.0079    0.8983    0.4761 C.3     1  UNL1        0.0095
     32 C           2.4617    0.5629    0.8593 C.3     1  UNL1        0.0094
     33 C           5.8680    3.1363   -4.1313 C.ar    1  UNL1        0.0235
     34 C           5.9286    4.0371   -5.1817 C.ar    1  UNL1        0.1718
     35 N           6.1306    3.6144   -6.4324 N.ar    1  UNL1       -0.2105
     36 C           6.2413    2.3132   -6.7545 C.ar    1  UNL1        0.2164
     37 C           6.4735    1.9296   -8.0816 C.ar    1  UNL1        0.0286
     38 H           6.4040   -1.4561   -7.6933 H       1  UNL1        0.0632
     39 H           6.0261   -0.8057   -5.3607 H       1  UNL1        0.0627
     40 H           7.0992    0.4975   -3.3432 H       1  UNL1        0.1461
     41 H           4.6188    1.5037   -2.1492 H       1  UNL1        0.0463
     42 H           6.2375    1.8501   -1.5222 H       1  UNL1        0.0463
     43 H           5.2695   -1.0352   -1.8645 H       1  UNL1        0.0332
     44 H           6.6196   -0.4504   -0.9237 H       1  UNL1        0.0332
     45 H           4.7349   -1.0282    0.5923 H       1  UNL1        0.0815
     46 H           5.0432    0.7308    0.6400 H       1  UNL1        0.0815
     47 H           3.2521    0.9937   -0.9664 H       1  UNL1        0.2038
     48 H           3.3034   -1.8447   -1.1528 H       1  UNL1        0.0868
     49 H           2.5920   -0.6011   -2.2186 H       1  UNL1        0.0868
     50 H           1.3008   -1.9422    0.2386 H       1  UNL1        0.0868
     51 H           0.7270   -1.9885   -1.4551 H       1  UNL1        0.0868
     52 H           0.1614    0.2757   -1.3451 H       1  UNL1        0.2038
     53 H          -1.3767   -1.3792   -0.6169 H       1  UNL1        0.0816
     54 H          -0.8219   -1.1142    1.0660 H       1  UNL1        0.0816
     55 H          -2.1292    0.9834   -0.7816 H       1  UNL1        0.0369
     56 H          -1.5725    1.3173    0.8490 H       1  UNL1        0.0369
     57 H          -3.1664   -0.4234    1.7566 H       1  UNL1        0.0816
     58 H          -3.8341   -0.6030    0.0978 H       1  UNL1        0.0816
     59 H          -4.2895    1.7783    0.1108 H       1  UNL1        0.2013
     60 H          -3.6674    1.9398    1.6323 H       1  UNL1        0.2013
     61 H          -5.2973    0.5076    2.5457 H       1  UNL1        0.0814
     62 H          -5.9953    0.3220    0.8963 H       1  UNL1        0.0814
     63 H          -5.4641    3.0208    2.2667 H       1  UNL1        0.0322
     64 H          -6.2263    2.7948    0.7039 H       1  UNL1        0.0322
     65 H          -7.1099    0.6800    3.7696 H       1  UNL1        0.0273
     66 H          -6.6456    2.2564    4.4004 H       1  UNL1        0.0273
     67 H          -8.6959    1.4057    5.5168 H       1  UNL1        0.0301
     68 H         -10.1425    3.3932    5.1244 H       1  UNL1        0.0271
     69 H          -8.4452    3.8683    5.1566 H       1  UNL1        0.0271
     70 H          -9.6434    4.9385    3.2367 H       1  UNL1        0.0301
     71 H         -10.4401    3.5072    1.3488 H       1  UNL1        0.0271
     72 H         -11.3369    3.1533    2.8250 H       1  UNL1        0.0271
     73 H         -10.6477    1.0418    1.6897 H       1  UNL1        0.0301
     74 H         -10.7828    1.0755    4.1845 H       1  UNL1        0.0271
     75 H          -9.5151   -0.0220    3.6413 H       1  UNL1        0.0271
     76 H          -8.6108    1.9169    0.5547 H       1  UNL1        0.0273
     77 H          -8.2403    0.4772    1.4982 H       1  UNL1        0.0273
     78 H          -8.0385    4.2460    1.4730 H       1  UNL1        0.0273
     79 H          -7.2327    4.4109    3.0283 H       1  UNL1        0.0273
     80 H           0.4200    1.0088    1.3904 H       1  UNL1        0.0868
     81 H           0.9616    1.8330   -0.0950 H       1  UNL1        0.0868
     82 H           2.9426    1.4503    1.2852 H       1  UNL1        0.0868
     83 H           2.5084   -0.2631    1.5738 H       1  UNL1        0.0868
     84 H           5.7684    3.5251   -3.1228 H       1  UNL1        0.0695
     85 H           5.8351    5.1182   -5.0404 H       1  UNL1        0.1376
     86 H           6.2139    4.3081   -7.1818 H       1  UNL1        0.4529
     87 H           6.6139    2.6661   -8.8661 H       1  UNL1        0.0698
@<TRIPOS>UNITY_ATOM_ATTR
11 1
charge 1
14 1
charge 1
18 1
charge 1
35 1
charge 1
@<TRIPOS>BOND
     1     2     1    1
     2     3     2   ar
     3     3    38    1
     4     4     3   ar
     5     4    39    1
     6     5     4   ar
     7     6     5   ar
     8     7     6    1
     9     7    40    1
    10     8     7    1
    11     8    41    1
    12     8    42    1
    13     9     8    1
    14     9    43    1
    15     9    44    1
    16    10     9    1
    17    10    45    1
    18    10    46    1
    19    11    10    1
    20    11    47    1
    21    12    11    1
    22    12    48    1
    23    12    49    1
    24    13    12    1
    25    13    50    1
    26    13    51    1
    27    14    13    1
    28    14    52    1
    29    15    14    1
    30    15    53    1
    31    15    54    1
    32    16    15    1
    33    16    55    1
    34    16    56    1
    35    17    16    1
    36    17    57    1
    37    17    58    1
    38    18    17    1
    39    18    59    1
    40    18    60    1
    41    19    18    1
    42    19    61    1
    43    19    62    1
    44    20    19    1
    45    20    63    1
    46    20    64    1
    47    21    20    1
    48    22    21    1
    49    22    65    1
    50    22    66    1
    51    23    22    1
    52    23    67    1
    53    24    23    1
    54    24    68    1
    55    24    69    1
    56    25    24    1
    57    25    70    1
    58    26    25    1
    59    26    71    1
    60    26    72    1
    61    27    26    1
    62    27    73    1
    63    28    27    1
    64    28    23    1
    65    28    74    1
    66    28    75    1
    67    29    27    1
    68    29    21    1
    69    29    76    1
    70    29    77    1
    71    30    25    1
    72    30    21    1
    73    30    78    1
    74    30    79    1
    75    31    14    1
    76    31    80    1
    77    31    81    1
    78    32    31    1
    79    32    11    1
    80    32    82    1
    81    32    83    1
    82    33     6   ar
    83    33    84    1
    84    34    33   ar
    85    34    85    1
    86    35    34   ar
    87    35    86    1
    88    36    35   ar
    89    36     5   ar
    90    37    36   ar
    91    37     2   ar
    92    37    87    1
