@<TRIPOS>MOLECULE
mol_267_akc_acsmedchemlett8b00053
>259.sdf
 57 61 0 0 0
SMALL
GASTEIGER

@<TRIPOS>ATOM
      1 F           6.8042    0.0806   -2.8967 F       1  UNL1       -0.2055
      2 C           6.2897    0.0454   -1.6585 C.ar    1  UNL1        0.1240
      3 C           6.2717    1.1988   -0.8985 C.ar    1  UNL1       -0.0254
      4 C           5.7328    1.1682    0.3882 C.ar    1  UNL1       -0.0447
      5 C           5.2385   -0.0502    0.8952 C.ar    1  UNL1        0.0201
      6 S           4.5399   -0.2937    2.4474 S.2     1  UNL1       -0.0960
      7 C           4.3287   -1.9579    2.1721 C.ar    1  UNL1       -0.0155
      8 C           4.7488   -2.3631    0.9181 C.ar    1  UNL1       -0.0031
      9 C           5.2680   -1.2408    0.1529 C.ar    1  UNL1       -0.0004
     10 C           5.7920   -1.1589   -1.1669 C.ar    1  UNL1       -0.0176
     11 C           4.6948   -3.7834    0.5459 C.ar    1  UNL1       -0.0168
     12 C           3.6190   -4.5968    0.9294 C.ar    1  UNL1       -0.0536
     13 C           3.6169   -5.9696    0.6542 C.ar    1  UNL1       -0.0530
     14 C           4.6900   -6.5600   -0.0280 C.ar    1  UNL1       -0.0029
     15 C           4.7045   -8.0351   -0.3124 C.3     1  UNL1       -0.0077
     16 N           3.9481   -8.3550   -1.5593 N.4     1  UNL1        0.2303
     17 C           3.8548   -9.8172   -1.8602 C.3     1  UNL1       -0.0319
     18 C           3.0253  -10.0729   -3.1161 C.3     1  UNL1        0.0029
     19 C           1.5437   -9.7866   -2.8824 C.3     1  UNL1        0.0139
     20 N           0.7754   -9.9705   -4.0999 N.pl3   1  UNL1       -0.3431
     21 C          -0.6224   -9.7147   -4.0584 C.ar    1  UNL1        0.0378
     22 C          -1.2548   -9.2384   -2.9053 C.ar    1  UNL1       -0.0221
     23 C          -2.6174   -9.0143   -2.9241 C.ar    1  UNL1        0.0300
     24 N          -3.3913   -9.2192   -4.0003 N.ar    1  UNL1       -0.2548
     25 C          -2.8080   -9.6483   -5.1260 C.ar    1  UNL1        0.0741
     26 C          -3.6264   -9.8650   -6.2222 C.ar    1  UNL1       -0.0173
     27 C          -3.1067  -10.3089   -7.4330 C.ar    1  UNL1        0.0430
     28 CL         -4.1623  -10.6143   -8.7558 Cl      1  UNL1       -0.0835
     29 C          -1.7415  -10.5127   -7.5765 C.ar    1  UNL1       -0.0426
     30 C          -0.8994  -10.2996   -6.4841 C.ar    1  UNL1       -0.0494
     31 C          -1.4156   -9.8926   -5.2291 C.ar    1  UNL1        0.0213
     32 C           5.7470   -5.7450   -0.4510 C.ar    1  UNL1       -0.0530
     33 C           5.7548   -4.3779   -0.1510 C.ar    1  UNL1       -0.0536
     34 H           6.6714    2.1219   -1.3057 H       1  UNL1        0.0646
     35 H           5.7035    2.0726    0.9907 H       1  UNL1        0.0630
     36 H           3.9157   -2.5608    2.9684 H       1  UNL1        0.0700
     37 H           5.8190   -2.0279   -1.8151 H       1  UNL1        0.0653
     38 H           2.7739   -4.1702    1.4712 H       1  UNL1        0.0624
     39 H           2.7767   -6.5629    1.0109 H       1  UNL1        0.0622
     40 H           5.7271   -8.4059   -0.4457 H       1  UNL1        0.0866
     41 H           4.2395   -8.5900    0.5103 H       1  UNL1        0.0866
     42 H           3.0200   -7.9212   -1.4676 H       1  UNL1        0.2017
     43 H           4.3980   -7.8590   -2.3418 H       1  UNL1        0.2017
     44 H           4.8798  -10.1760   -1.9979 H       1  UNL1        0.0814
     45 H           3.4143  -10.3070   -0.9852 H       1  UNL1        0.0814
     46 H           3.4081   -9.4765   -3.9540 H       1  UNL1        0.0332
     47 H           3.1413  -11.1255   -3.4039 H       1  UNL1        0.0332
     48 H           1.1717  -10.4445   -2.0869 H       1  UNL1        0.0463
     49 H           1.4378   -8.7469   -2.5583 H       1  UNL1        0.0463
     50 H           0.9252  -10.8735   -4.5576 H       1  UNL1        0.1461
     51 H          -0.7340   -9.0609   -1.9748 H       1  UNL1        0.0651
     52 H          -3.1401   -8.6620   -2.0391 H       1  UNL1        0.0830
     53 H          -4.6949   -9.6898   -6.1204 H       1  UNL1        0.0653
     54 H          -1.3307  -10.8394   -8.5283 H       1  UNL1        0.0632
     55 H           0.1682  -10.4477   -6.6231 H       1  UNL1        0.0625
     56 H           6.6010   -6.1576   -0.9855 H       1  UNL1        0.0622
     57 H           6.6242   -3.7890   -0.4397 H       1  UNL1        0.0624
@<TRIPOS>UNITY_ATOM_ATTR
16 1
charge 1
@<TRIPOS>BOND
     1     2     1    1
     2     3     2   ar
     3     3    34    1
     4     4     3   ar
     5     4    35    1
     6     5     4   ar
     7     6     5   ar
     8     7     6   ar
     9     7    36    1
    10     8     7   ar
    11     9     8   ar
    12     9     5   ar
    13    10     9   ar
    14    10     2   ar
    15    10    37    1
    16    11     8    1
    17    12    11   ar
    18    12    38    1
    19    13    12   ar
    20    13    39    1
    21    14    13   ar
    22    15    14    1
    23    15    40    1
    24    15    41    1
    25    16    15    1
    26    16    42    1
    27    16    43    1
    28    17    16    1
    29    17    44    1
    30    17    45    1
    31    18    17    1
    32    18    46    1
    33    18    47    1
    34    19    18    1
    35    19    48    1
    36    19    49    1
    37    20    19    1
    38    20    50    1
    39    21    20    1
    40    22    21   ar
    41    22    51    1
    42    23    22   ar
    43    23    52    1
    44    24    23   ar
    45    25    24   ar
    46    26    25   ar
    47    26    53    1
    48    27    26   ar
    49    28    27    1
    50    29    27   ar
    51    29    54    1
    52    30    29   ar
    53    30    55    1
    54    31    30   ar
    55    31    21   ar
    56    31    25   ar
    57    32    14   ar
    58    32    56    1
    59    33    32   ar
    60    33    11   ar
    61    33    57    1
