@<TRIPOS>MOLECULE
mol_269_akc_jactatropica201803023
>261.sdf
 34 36 0 0 0
SMALL
GASTEIGER

@<TRIPOS>ATOM
      1 C           2.4589   -0.3484   -1.8922 C.3     1  UNL1        0.0790
      2 O           3.6582   -0.8167   -1.2882 O.3     1  UNL1       -0.4914
      3 C           3.5481   -1.6637   -0.2187 C.ar    1  UNL1        0.1628
      4 C           2.4835   -2.5316    0.0899 C.ar    1  UNL1        0.1699
      5 O           1.4181   -2.6190   -0.7818 O.3     1  UNL1       -0.4516
      6 C           0.1756   -2.9419   -0.2733 C.ar    1  UNL1        0.1392
      7 C          -0.4222   -2.1299    0.6839 C.ar    1  UNL1       -0.0006
      8 C          -1.6666   -2.5024    1.1436 C.ar    1  UNL1        0.0318
      9 N          -2.3219   -3.6066    0.7263 N.ar    1  UNL1       -0.2547
     10 C          -1.7407   -4.3869   -0.2010 C.ar    1  UNL1        0.0759
     11 C          -2.3859   -5.5505   -0.5914 C.ar    1  UNL1       -0.0173
     12 C          -1.8187   -6.4112   -1.5295 C.ar    1  UNL1        0.0430
     13 CL         -2.6058   -7.8915   -1.9170 Cl      1  UNL1       -0.0835
     14 C          -0.6097   -6.0952   -2.1361 C.ar    1  UNL1       -0.0426
     15 C           0.0538   -4.9288   -1.7637 C.ar    1  UNL1       -0.0477
     16 C          -0.4867   -4.0818   -0.7700 C.ar    1  UNL1        0.0427
     17 C           2.5814   -3.3654    1.2182 C.ar    1  UNL1       -0.0150
     18 C           3.7109   -3.3291    2.0388 C.ar    1  UNL1       -0.0478
     19 C           4.7652   -2.4742    1.7228 C.ar    1  UNL1        0.0179
     20 C           5.9806   -2.4460    2.5593 C.2     1  UNL1        0.1503
     21 O           6.0915   -3.1405    3.5643 O.2     1  UNL1       -0.2957
     22 C           4.6884   -1.6545    0.5961 C.ar    1  UNL1       -0.0061
     23 H           2.0407   -1.1047   -2.5627 H       1  UNL1        0.0660
     24 H           1.7283   -0.0177   -1.1463 H       1  UNL1        0.0660
     25 H           2.7167    0.5199   -2.5064 H       1  UNL1        0.0660
     26 H           0.0659   -1.2414    1.0660 H       1  UNL1        0.0670
     27 H          -2.1884   -1.9131    1.8930 H       1  UNL1        0.0831
     28 H          -3.3396   -5.7984   -0.1326 H       1  UNL1        0.0653
     29 H          -0.1717   -6.7565   -2.8789 H       1  UNL1        0.0632
     30 H           1.0056   -4.6895   -2.2340 H       1  UNL1        0.0626
     31 H           1.7938   -4.0762    1.4616 H       1  UNL1        0.0656
     32 H           3.7717   -3.9813    2.9082 H       1  UNL1        0.0626
     33 H           6.7874   -1.7673    2.2392 H       1  UNL1        0.1081
     34 H           5.5126   -0.9900    0.3413 H       1  UNL1        0.0662
@<TRIPOS>BOND
     1     1    23    1
     2     1    24    1
     3     1    25    1
     4     2     1    1
     5     3     2    1
     6     4     3   ar
     7     5     4    1
     8     6     5    1
     9     7     6   ar
    10     7    26    1
    11     8     7   ar
    12     8    27    1
    13     9     8   ar
    14    10     9   ar
    15    11    10   ar
    16    11    28    1
    17    12    11   ar
    18    13    12    1
    19    14    12   ar
    20    14    29    1
    21    15    14   ar
    22    15    30    1
    23    16    15   ar
    24    16     6   ar
    25    16    10   ar
    26    17     4   ar
    27    17    31    1
    28    18    17   ar
    29    18    32    1
    30    19    18   ar
    31    20    19    1
    32    20    33    1
    33    21    20    2
    34    22    19   ar
    35    22     3   ar
    36    22    34    1
