@<TRIPOS>MOLECULE
mol_26_akc_jejmech201203003
>26.sdf
 37 39 0 0 0
SMALL
GASTEIGER

@<TRIPOS>ATOM
      1 C           2.4977    0.5481   -0.2872 C.3     1  UNL1       -0.0397
      2 C           1.0468    0.6765    0.0779 C.ar    1  UNL1       -0.0503
      3 C           0.3566   -0.4102    0.6246 C.ar    1  UNL1       -0.0569
      4 C          -0.9789   -0.2761    1.0012 C.ar    1  UNL1       -0.0332
      5 C          -1.6342    0.9505    0.8312 C.ar    1  UNL1        0.1281
      6 C          -0.9630    2.0421    0.2798 C.ar    1  UNL1       -0.0332
      7 C           0.3767    1.8980   -0.0993 C.ar    1  UNL1       -0.0569
      8 S          -3.3016    1.1335    1.4459 S.O2    1  UNL1        0.1510
      9 O          -3.6877   -0.1994    1.8779 O.2     1  UNL1       -0.1314
     10 O          -3.2675    2.2558    2.3635 O.2     1  UNL1       -0.1314
     11 O          -4.1926    1.5421    0.1356 O.3     1  UNL1       -0.3396
     12 C          -5.5662    1.7915    0.1690 C.ar    1  UNL1        0.1916
     13 C          -6.4691    1.1720    0.9697 C.ar    1  UNL1        0.1355
     14 N          -6.2347    0.2234    1.9474 N.pl3   1  UNL1       -0.3508
     15 C          -7.9460    1.4876    0.7945 C.ar    1  UNL1        0.2737
     16 O          -8.7995    0.8651    1.4275 O.2     1  UNL1       -0.2658
     17 N          -8.2986    2.4515   -0.0940 N.ar    1  UNL1       -0.3204
     18 C          -7.3819    3.1448   -0.8771 C.ar    1  UNL1        0.0529
     19 C          -6.0179    2.8280   -0.7973 C.ar    1  UNL1        0.0449
     20 C          -5.1341    3.5522   -1.6114 C.ar    1  UNL1       -0.0490
     21 C          -5.6037    4.5684   -2.4558 C.ar    1  UNL1       -0.0610
     22 C          -6.9629    4.8693   -2.5076 C.ar    1  UNL1       -0.0598
     23 C          -7.8579    4.1486   -1.7247 C.ar    1  UNL1       -0.0376
     24 H           2.6426    0.7634   -1.3500 H       1  UNL1        0.0278
     25 H           3.0988    1.2414    0.3099 H       1  UNL1        0.0278
     26 H           2.8712   -0.4644   -0.0967 H       1  UNL1        0.0278
     27 H           0.8585   -1.3633    0.7819 H       1  UNL1        0.0621
     28 H          -1.4853   -1.1273    1.4524 H       1  UNL1        0.0638
     29 H          -1.4550    3.0050    0.1725 H       1  UNL1        0.0638
     30 H           0.9100    2.7521   -0.5129 H       1  UNL1        0.0621
     31 H          -5.4021   -0.3585    1.8431 H       1  UNL1        0.1426
     32 H          -7.0775   -0.3012    2.1906 H       1  UNL1        0.1426
     33 H          -9.2893    2.6385   -0.1641 H       1  UNL1        0.1690
     34 H          -4.0660    3.3521   -1.5927 H       1  UNL1        0.0625
     35 H          -4.9045    5.1345   -3.0674 H       1  UNL1        0.0618
     36 H          -7.3251    5.6674   -3.1515 H       1  UNL1        0.0618
     37 H          -8.9172    4.3874   -1.7678 H       1  UNL1        0.0638
@<TRIPOS>BOND
     1     1    24    1
     2     1    25    1
     3     1    26    1
     4     2     1    1
     5     3     2   ar
     6     3    27    1
     7     4     3   ar
     8     4    28    1
     9     5     4   ar
    10     6     5   ar
    11     6    29    1
    12     7     6   ar
    13     7     2   ar
    14     7    30    1
    15     8     5    1
    16     9     8    2
    17    10     8    2
    18    11     8    1
    19    12    11    1
    20    13    12   ar
    21    14    13    1
    22    14    31    1
    23    14    32    1
    24    15    13   ar
    25    16    15    2
    26    17    15   ar
    27    17    33    1
    28    18    17   ar
    29    19    18   ar
    30    19    12   ar
    31    20    19   ar
    32    20    34    1
    33    21    20   ar
    34    21    35    1
    35    22    21   ar
    36    22    36    1
    37    23    22   ar
    38    23    18   ar
    39    23    37    1
