@<TRIPOS>MOLECULE
mol_270_akc_jactatropica201803023
>262.sdf
 41 43 0 0 0
SMALL
GASTEIGER

@<TRIPOS>ATOM
      1 C           4.3942   -2.4615   -3.1487 C.3     1  UNL1        0.0790
      2 O           5.5185   -2.3267   -4.0172 O.3     1  UNL1       -0.4914
      3 C           6.4580   -1.4074   -3.6272 C.ar    1  UNL1        0.1627
      4 C           7.7831   -1.6249   -4.0400 C.ar    1  UNL1        0.1699
      5 O           8.0424   -2.6631   -4.9103 O.3     1  UNL1       -0.4516
      6 C           8.7237   -2.4107   -6.0970 C.ar    1  UNL1        0.1392
      7 C           9.0664   -1.1350   -6.5494 C.ar    1  UNL1       -0.0006
      8 C           9.8235   -1.0231   -7.6963 C.ar    1  UNL1        0.0318
      9 N          10.2117   -2.0712   -8.4434 N.ar    1  UNL1       -0.2547
     10 C           9.8110   -3.2943   -8.0682 C.ar    1  UNL1        0.0759
     11 C          10.1474   -4.3572   -8.8897 C.ar    1  UNL1       -0.0173
     12 C           9.7270   -5.6533   -8.5983 C.ar    1  UNL1        0.0430
     13 CL         10.1233   -6.9387   -9.6708 Cl      1  UNL1       -0.0835
     14 C           8.9762   -5.9077   -7.4599 C.ar    1  UNL1       -0.0426
     15 C           8.6511   -4.8540   -6.6020 C.ar    1  UNL1       -0.0477
     16 C           9.0553   -3.5327   -6.8966 C.ar    1  UNL1        0.0427
     17 C           8.8152   -0.8216   -3.5355 C.ar    1  UNL1       -0.0151
     18 C           8.5096    0.3224   -2.8004 C.ar    1  UNL1       -0.0494
     19 C           7.1735    0.6305   -2.5400 C.ar    1  UNL1       -0.0018
     20 C           6.7975    1.8903   -1.8728 C.2     1  UNL1        0.0529
     21 N           7.1538    3.1052   -2.1732 N.2     1  UNL1       -0.1885
     22 N           7.9200    3.3090   -3.2866 N.am    1  UNL1       -0.2186
     23 C           8.3256    4.5615   -3.6541 C.2     1  UNL1        0.1473
     24 N           7.9361    5.5692   -2.8388 N.am    1  UNL1       -0.3394
     25 S           9.2404    4.8279   -5.0113 S.2     1  UNL1       -0.0174
     26 C           6.1531   -0.2566   -2.8936 C.ar    1  UNL1       -0.0076
     27 H           4.6890   -2.4788   -2.0926 H       1  UNL1        0.0660
     28 H           3.6695   -1.6631   -3.3361 H       1  UNL1        0.0660
     29 H           3.9070   -3.4160   -3.3701 H       1  UNL1        0.0660
     30 H           8.7763   -0.2276   -6.0396 H       1  UNL1        0.0670
     31 H          10.1484   -0.0500   -8.0585 H       1  UNL1        0.0831
     32 H          10.7305   -4.1626   -9.7862 H       1  UNL1        0.0653
     33 H           8.6315   -6.9148   -7.2381 H       1  UNL1        0.0632
     34 H           8.0529   -5.0633   -5.7176 H       1  UNL1        0.0626
     35 H           9.8527   -1.0540   -3.7637 H       1  UNL1        0.0656
     36 H           9.3092    0.9769   -2.4596 H       1  UNL1        0.0625
     37 H           6.0999    1.7784   -1.0241 H       1  UNL1        0.0851
     38 H           8.1377    2.5476   -3.9185 H       1  UNL1        0.1762
     39 H           8.1106    6.5330   -3.0782 H       1  UNL1        0.1440
     40 H           7.2710    5.3310   -2.1114 H       1  UNL1        0.1440
     41 H           5.1260   -0.0127   -2.6395 H       1  UNL1        0.0662
@<TRIPOS>BOND
     1     1    27    1
     2     1    28    1
     3     1    29    1
     4     2     1    1
     5     3     2    1
     6     4     3   ar
     7     5     4    1
     8     6     5    1
     9     7     6   ar
    10     7    30    1
    11     8     7   ar
    12     8    31    1
    13     9     8   ar
    14    10     9   ar
    15    11    10   ar
    16    11    32    1
    17    12    11   ar
    18    13    12    1
    19    14    12   ar
    20    14    33    1
    21    15    14   ar
    22    15    34    1
    23    16    15   ar
    24    16     6   ar
    25    16    10   ar
    26    17     4   ar
    27    17    35    1
    28    18    17   ar
    29    18    36    1
    30    19    18   ar
    31    20    19    1
    32    20    37    1
    33    21    20    2
    34    22    21    1
    35    22    38    1
    36    23    22    1
    37    24    23    1
    38    24    39    1
    39    24    40    1
    40    25    23    2
    41    26    19   ar
    42    26     3   ar
    43    26    41    1
