@<TRIPOS>MOLECULE
mol_271_akc_jejmech201805014
>263.sdf
 55 59 0 0 0
SMALL
GASTEIGER

@<TRIPOS>ATOM
      1 C          -4.6381    0.7245    0.2003 C.3     1  UNL1       -0.0215
      2 C          -3.2364    0.2053    0.0590 C.ar    1  UNL1        0.0535
      3 N          -2.3086    1.1953    0.0185 N.ar    1  UNL1       -0.2510
      4 C          -1.0142    0.8906   -0.1034 C.ar    1  UNL1        0.0720
      5 C          -0.1050    1.9413   -0.0391 C.ar    1  UNL1       -0.0343
      6 C           1.2721    1.7411   -0.1414 C.ar    1  UNL1       -0.0413
      7 C           1.7437    0.4651   -0.3821 C.ar    1  UNL1        0.0417
      8 CL          3.4342    0.1786   -0.5103 Cl      1  UNL1       -0.0835
      9 C           0.8475   -0.5965   -0.4872 C.ar    1  UNL1       -0.0336
     10 C          -0.5513   -0.4316   -0.2711 C.ar    1  UNL1        0.0103
     11 C          -1.5218   -1.4980   -0.1884 C.ar    1  UNL1        0.0070
     12 C          -1.0831   -2.9256   -0.2706 C.ar    1  UNL1       -0.0164
     13 C           0.0060   -3.4029    0.4872 C.ar    1  UNL1       -0.0540
     14 C           0.5179   -4.6911    0.3110 C.ar    1  UNL1       -0.0612
     15 C          -0.1061   -5.5686   -0.5651 C.ar    1  UNL1       -0.0617
     16 C          -1.2276   -5.1486   -1.2727 C.ar    1  UNL1       -0.0612
     17 C          -1.7005   -3.8381   -1.1419 C.ar    1  UNL1       -0.0540
     18 C          -2.8852   -1.1454   -0.0083 C.ar    1  UNL1        0.0882
     19 C          -3.9069   -2.1734    0.2826 C.2     1  UNL1        0.3419
     20 O          -3.8596   -2.8986    1.2707 O.2     1  UNL1       -0.2449
     21 O          -4.8639   -2.1852   -0.6733 O.3     1  UNL1       -0.4547
     22 C          -5.9372   -3.1307   -0.4636 C.3     1  UNL1        0.1378
     23 C          -5.7213   -4.3818   -1.2351 C.ar    1  UNL1        0.1200
     24 C          -5.0909   -5.5522   -0.8696 C.ar    1  UNL1        0.0524
     25 N          -5.0751   -6.2926   -2.0171 N.ar    1  UNL1       -0.2470
     26 C          -4.2652   -7.4649   -2.3049 C.3     1  UNL1        0.0682
     27 C          -4.9892   -8.7656   -2.0832 C.ar    1  UNL1       -0.0261
     28 C          -6.1167   -9.1055   -2.8446 C.ar    1  UNL1       -0.0568
     29 C          -6.7665  -10.3238   -2.6413 C.ar    1  UNL1       -0.0614
     30 C          -6.2912  -11.2192   -1.6851 C.ar    1  UNL1       -0.0617
     31 C          -5.1569  -10.9047   -0.9405 C.ar    1  UNL1       -0.0614
     32 C          -4.5066   -9.6866   -1.1401 C.ar    1  UNL1       -0.0568
     33 N          -5.7148   -5.6504   -3.0142 N.ar    1  UNL1       -0.0650
     34 N          -6.1217   -4.4806   -2.5422 N.ar    1  UNL1       -0.1310
     35 H          -4.6937    1.4004    1.0581 H       1  UNL1        0.0293
     36 H          -4.9036    1.2884   -0.7013 H       1  UNL1        0.0293
     37 H          -5.3940   -0.0487    0.3478 H       1  UNL1        0.0293
     38 H          -0.4807    2.9502    0.1223 H       1  UNL1        0.0639
     39 H           1.9542    2.5801   -0.0407 H       1  UNL1        0.0633
     40 H           1.2603   -1.5739   -0.7215 H       1  UNL1        0.0639
     41 H           0.5072   -2.7516    1.2022 H       1  UNL1        0.0624
     42 H           1.4095   -4.9988    0.8517 H       1  UNL1        0.0618
     43 H           0.2833   -6.5743   -0.6984 H       1  UNL1        0.0618
     44 H          -1.7228   -5.8326   -1.9528 H       1  UNL1        0.0618
     45 H          -2.5555   -3.5418   -1.7472 H       1  UNL1        0.0624
     46 H          -6.0899   -3.3460    0.6010 H       1  UNL1        0.0765
     47 H          -6.8576   -2.6470   -0.8070 H       1  UNL1        0.0765
     48 H          -4.6143   -5.8707    0.0464 H       1  UNL1        0.0846
     49 H          -3.9128   -7.3920   -3.3405 H       1  UNL1        0.0559
     50 H          -3.3837   -7.4040   -1.6576 H       1  UNL1        0.0559
     51 H          -6.4983   -8.4226   -3.6029 H       1  UNL1        0.0621
     52 H          -7.6454  -10.5737   -3.2303 H       1  UNL1        0.0618
     53 H          -6.8034  -12.1639   -1.5228 H       1  UNL1        0.0618
     54 H          -4.7782  -11.6090   -0.2041 H       1  UNL1        0.0618
     55 H          -3.6162   -9.4670   -0.5543 H       1  UNL1        0.0621
@<TRIPOS>BOND
     1     1    35    1
     2     1    36    1
     3     1    37    1
     4     2     1    1
     5     3     2   ar
     6     4     3   ar
     7     5     4   ar
     8     5    38    1
     9     6     5   ar
    10     6    39    1
    11     7     6   ar
    12     8     7    1
    13     9     7   ar
    14     9    40    1
    15    10     9   ar
    16    10     4   ar
    17    11    10   ar
    18    12    11    1
    19    13    12   ar
    20    13    41    1
    21    14    13   ar
    22    14    42    1
    23    15    14   ar
    24    15    43    1
    25    16    15   ar
    26    16    44    1
    27    17    16   ar
    28    17    12   ar
    29    17    45    1
    30    18    11   ar
    31    18     2   ar
    32    19    18    1
    33    20    19    2
    34    21    19    1
    35    22    21    1
    36    22    46    1
    37    22    47    1
    38    23    22    1
    39    24    23   ar
    40    24    48    1
    41    25    24   ar
    42    26    25    1
    43    26    49    1
    44    26    50    1
    45    27    26    1
    46    28    27   ar
    47    28    51    1
    48    29    28   ar
    49    29    52    1
    50    30    29   ar
    51    30    53    1
    52    31    30   ar
    53    31    54    1
    54    32    31   ar
    55    32    27   ar
    56    32    55    1
    57    33    25   ar
    58    34    33   ar
    59    34    23   ar
