@<TRIPOS>MOLECULE
mol_272_akc_jexppara201804017
>264.sdf
 55 58 0 0 0
SMALL
GASTEIGER

@<TRIPOS>ATOM
      1 C          -0.8646   13.9574    1.7734 C.3     1  UNL1       -0.0397
      2 C          -1.2483   12.8287    2.6929 C.ar    1  UNL1       -0.0487
      3 C          -1.1463   11.4850    2.2595 C.ar    1  UNL1       -0.0375
      4 C          -1.5242   10.4235    3.0800 C.ar    1  UNL1        0.0367
      5 N          -1.4409    9.0586    2.6895 N.am    1  UNL1       -0.2511
      6 C          -1.0057    8.5110    1.4948 C.2     1  UNL1        0.4052
      7 O          -0.6151    9.1294    0.5111 O.2     1  UNL1       -0.2261
      8 O          -1.1328    7.1526    1.5260 O.3     1  UNL1       -0.4405
      9 C          -0.8051    6.3134    0.3442 C.3     1  UNL1        0.1451
     10 C          -1.4949    6.8099   -0.9573 C.3     1  UNL1        0.0536
     11 N          -1.8684    5.7902   -2.0217 N.pl3   1  UNL1       -0.3258
     12 C          -3.1633    6.2069   -2.6470 C.3     1  UNL1        0.0126
     13 C          -3.0506    7.6030   -3.3108 C.3     1  UNL1       -0.0332
     14 C          -1.6799    7.8762   -3.9446 C.3     1  UNL1       -0.0245
     15 C          -1.0182    6.5585   -4.2278 C.ar    1  UNL1       -0.0263
     16 C          -0.6025    6.2566   -5.5361 C.ar    1  UNL1       -0.0568
     17 C          -0.2340    4.9542   -5.8549 C.ar    1  UNL1       -0.0614
     18 C          -0.2414    3.9746   -4.8631 C.ar    1  UNL1       -0.0600
     19 C          -0.6309    4.2880   -3.5419 C.ar    1  UNL1       -0.0404
     20 C          -1.0379    5.5914   -3.1914 C.ar    1  UNL1        0.0330
     21 C           0.6854    6.0260    0.3084 C.ar    1  UNL1       -0.0056
     22 C           1.5248    6.4768   -0.7199 C.ar    1  UNL1       -0.0537
     23 C           2.8747    6.1130   -0.7530 C.ar    1  UNL1       -0.0430
     24 C           3.4026    5.3071    0.2511 C.ar    1  UNL1        0.0410
     25 CL          5.0565    4.8368    0.1925 Cl      1  UNL1       -0.0835
     26 C           2.5964    4.8737    1.2988 C.ar    1  UNL1       -0.0430
     27 C           1.2475    5.2370    1.3300 C.ar    1  UNL1       -0.0537
     28 C          -2.0068   10.7334    4.3663 C.ar    1  UNL1       -0.0404
     29 C          -2.0998   12.0583    4.8115 C.ar    1  UNL1       -0.0598
     30 C          -1.7197   13.1040    3.9727 C.ar    1  UNL1       -0.0587
     31 H          -1.7428   14.5742    1.5566 H       1  UNL1        0.0278
     32 H          -0.0933   14.5825    2.2338 H       1  UNL1        0.0278
     33 H          -0.4707   13.5880    0.8205 H       1  UNL1        0.0278
     34 H          -0.7694   11.3007    1.2560 H       1  UNL1        0.0639
     35 H          -1.7304    8.3628    3.3724 H       1  UNL1        0.1582
     36 H          -1.2870    5.3556    0.5825 H       1  UNL1        0.0802
     37 H          -2.4526    7.2006   -0.5838 H       1  UNL1        0.0504
     38 H          -0.9808    7.6719   -1.3786 H       1  UNL1        0.0504
     39 H          -3.9532    6.2152   -1.8858 H       1  UNL1        0.0464
     40 H          -3.4872    5.4577   -3.3854 H       1  UNL1        0.0464
     41 H          -3.2521    8.3898   -2.5750 H       1  UNL1        0.0283
     42 H          -3.8304    7.6859   -4.0746 H       1  UNL1        0.0283
     43 H          -1.0259    8.4487   -3.2785 H       1  UNL1        0.0314
     44 H          -1.7873    8.4875   -4.8465 H       1  UNL1        0.0314
     45 H          -0.6642    7.0000   -6.3227 H       1  UNL1        0.0621
     46 H           0.0038    4.6952   -6.8858 H       1  UNL1        0.0618
     47 H          -0.0048    2.9490   -5.1332 H       1  UNL1        0.0618
     48 H          -0.7173    3.4793   -2.8220 H       1  UNL1        0.0636
     49 H           1.1449    7.0990   -1.5263 H       1  UNL1        0.0622
     50 H           3.4999    6.4520   -1.5746 H       1  UNL1        0.0632
     51 H           3.0046    4.2432    2.0838 H       1  UNL1        0.0632
     52 H           0.6252    4.8800    2.1487 H       1  UNL1        0.0622
     53 H          -2.3235    9.9488    5.0470 H       1  UNL1        0.0636
     54 H          -2.4679   12.2839    5.8142 H       1  UNL1        0.0618
     55 H          -1.7860   14.1364    4.3247 H       1  UNL1        0.0620
@<TRIPOS>BOND
     1     1    31    1
     2     1    32    1
     3     1    33    1
     4     2     1    1
     5     3     2   ar
     6     3    34    1
     7     4     3   ar
     8     5     4    1
     9     5    35    1
    10     6     5   am
    11     7     6    2
    12     8     6    1
    13    10     9    1
    14    10    37    1
    15    10    38    1
    16    11    10    1
    17    12    11    1
    18    12    39    1
    19    12    40    1
    20    13    12    1
    21    13    41    1
    22    13    42    1
    23    14    13    1
    24    14    43    1
    25    14    44    1
    26    15    14    1
    27    16    15   ar
    28    16    45    1
    29    17    16   ar
    30    17    46    1
    31    18    17   ar
    32    18    47    1
    33    19    18   ar
    34    19    48    1
    35    20    19   ar
    36    20    11    1
    37    20    15   ar
    38    21     9    1
    39    22    21   ar
    40    22    49    1
    41    23    22   ar
    42    23    50    1
    43    24    23   ar
    44    25    24    1
    45    26    24   ar
    46    26    51    1
    47    27    26   ar
    48    27    21   ar
    49    27    52    1
    50    28     4   ar
    51    28    53    1
    52    29    28   ar
    53    29    54    1
    54    30    29   ar
    55    30     2   ar
    56    30    55    1
    57     9    36    1
    58     9     8    1
