@<TRIPOS>MOLECULE
mol_273_akc_jejmech201804033
>265.sdf
 40 43 0 0 0
SMALL
GASTEIGER

@<TRIPOS>ATOM
      1 C           2.7377    1.2255    1.2971 C.3     1  UNL1        0.0788
      2 O           3.3503    0.3170    0.3895 O.3     1  UNL1       -0.4951
      3 C           3.5397    0.7638   -0.8896 C.ar    1  UNL1        0.1207
      4 C           3.1505    2.0100   -1.3872 C.ar    1  UNL1       -0.0108
      5 C           3.3973    2.3831   -2.7240 C.ar    1  UNL1        0.0038
      6 C           4.0576    1.4534   -3.5483 C.ar    1  UNL1       -0.0523
      7 C           4.4451    0.2034   -3.0608 C.ar    1  UNL1       -0.0577
      8 C           4.1841   -0.1371   -1.7359 C.ar    1  UNL1       -0.0199
      9 C           2.9985    3.7187   -3.2120 C.ar    1  UNL1        0.0725
     10 N           3.0399    4.7116   -2.2995 N.ar    1  UNL1       -0.2451
     11 C           2.7414    5.9600   -2.6907 C.ar    1  UNL1        0.0904
     12 C           2.7858    6.9592   -1.7314 C.ar    1  UNL1       -0.0328
     13 C           2.5069    8.2816   -2.0509 C.ar    1  UNL1       -0.0415
     14 C           2.1938    8.5675   -3.3588 C.ar    1  UNL1        0.0284
     15 N           2.1355    7.6285   -4.3259 N.ar    1  UNL1       -0.2528
     16 C           2.3898    6.3293   -4.0111 C.ar    1  UNL1        0.0969
     17 C           2.3165    5.2798   -4.9547 C.ar    1  UNL1        0.0116
     18 C           2.6124    3.9684   -4.5210 C.ar    1  UNL1       -0.0259
     19 C           1.9469    5.4953   -6.3874 C.ar    1  UNL1       -0.0157
     20 C           2.5328    4.7279   -7.4166 C.ar    1  UNL1       -0.0540
     21 C           2.1821    4.9025   -8.7601 C.ar    1  UNL1       -0.0612
     22 C           1.2507    5.8700   -9.1163 C.ar    1  UNL1       -0.0617
     23 C           0.6611    6.6497   -8.1283 C.ar    1  UNL1       -0.0612
     24 C           0.9949    6.4522   -6.7834 C.ar    1  UNL1       -0.0540
     25 H           3.3324    2.1384    1.4077 H       1  UNL1        0.0660
     26 H           1.7121    1.4549    0.9901 H       1  UNL1        0.0660
     27 H           2.6910    0.7400    2.2758 H       1  UNL1        0.0660
     28 H           2.6461    2.7296   -0.7463 H       1  UNL1        0.0661
     29 H           4.3028    1.6999   -4.5787 H       1  UNL1        0.0624
     30 H           4.9603   -0.4997   -3.7103 H       1  UNL1        0.0619
     31 H           4.4921   -1.1080   -1.3565 H       1  UNL1        0.0654
     32 H           3.0465    6.6972   -0.7096 H       1  UNL1        0.0640
     33 H           2.5382    9.0612   -1.2979 H       1  UNL1        0.0633
     34 H           1.9712    9.5806   -3.6802 H       1  UNL1        0.0830
     35 H           2.5204    3.1350   -5.2115 H       1  UNL1        0.0646
     36 H           3.2884    3.9797   -7.1892 H       1  UNL1        0.0624
     37 H           2.6457    4.2858   -9.5257 H       1  UNL1        0.0618
     38 H           0.9874    6.0190  -10.1597 H       1  UNL1        0.0618
     39 H          -0.0607    7.4167   -8.3967 H       1  UNL1        0.0618
     40 H           0.4942    7.0730   -6.0432 H       1  UNL1        0.0624
@<TRIPOS>BOND
     1     1    25    1
     2     1    26    1
     3     1    27    1
     4     2     1    1
     5     3     2    1
     6     4     3   ar
     7     4    28    1
     8     5     4   ar
     9     6     5   ar
    10     6    29    1
    11     7     6   ar
    12     7    30    1
    13     8     7   ar
    14     8     3   ar
    15     8    31    1
    16     9     5    1
    17    10     9   ar
    18    11    10   ar
    19    12    11   ar
    20    12    32    1
    21    13    12   ar
    22    13    33    1
    23    14    13   ar
    24    14    34    1
    25    15    14   ar
    26    16    15   ar
    27    16    11   ar
    28    17    16   ar
    29    18    17   ar
    30    18     9   ar
    31    18    35    1
    32    19    17    1
    33    20    19   ar
    34    20    36    1
    35    21    20   ar
    36    21    37    1
    37    22    21   ar
    38    22    38    1
    39    23    22   ar
    40    23    39    1
    41    24    23   ar
    42    24    19   ar
    43    24    40    1
