@<TRIPOS>MOLECULE
mol_274_akc_aac37122550
>266.sdf
 47 48 0 0 0
SMALL
GASTEIGER

@<TRIPOS>ATOM
      1 C           0.8438   -0.1101   -0.0412 C.3     1  UNL1        0.0788
      2 O           2.2641   -0.1653   -0.0504 O.3     1  UNL1       -0.4944
      3 C           2.9603    1.0167    0.0242 C.ar    1  UNL1        0.1307
      4 C           2.3411    2.2672    0.0457 C.ar    1  UNL1        0.0224
      5 C           3.0933    3.4492    0.0610 C.ar    1  UNL1        0.1243
      6 O           2.3947    4.6239    0.0827 O.3     1  UNL1       -0.5063
      7 C           4.4954    3.4378    0.0362 C.ar    1  UNL1        0.0042
      8 C           5.1039    2.1529    0.0303 C.ar    1  UNL1       -0.0436
      9 C           4.3673    0.9460    0.0566 C.ar    1  UNL1        0.0173
     10 C           5.1251   -0.3299    0.0626 C.2     1  UNL1       -0.0475
     11 C           4.7031   -1.4394    0.6910 C.2     1  UNL1       -0.0137
     12 C           5.4470   -2.7241    0.6254 C.2     1  UNL1        0.1861
     13 O           6.6422   -2.7792    0.3560 O.2     1  UNL1       -0.2873
     14 C           4.6715   -3.9568    0.9507 C.ar    1  UNL1        0.0219
     15 C           3.3215   -4.0907    0.5919 C.ar    1  UNL1       -0.0475
     16 C           2.6151   -5.2517    0.9199 C.ar    1  UNL1       -0.0195
     17 C           3.2624   -6.2768    1.6021 C.ar    1  UNL1        0.1169
     18 O           2.6092   -7.4220    1.9480 O.3     1  UNL1       -0.5068
     19 C           4.6047   -6.1658    1.9482 C.ar    1  UNL1       -0.0195
     20 C           5.3170   -5.0086    1.6161 C.ar    1  UNL1       -0.0475
     21 C           5.3929    4.7053   -0.0255 C.3     1  UNL1        0.0113
     22 C           6.2248    4.6494   -1.3338 C.3     1  UNL1       -0.0522
     23 C           4.6348    6.0566   -0.0714 C.3     1  UNL1       -0.0522
     24 C           6.3829    4.8533    1.1390 C.2     1  UNL1       -0.0811
     25 C           6.5095    4.1230    2.2560 C.2     1  UNL1       -0.1018
     26 H           0.4714    0.3634    0.8734 H       1  UNL1        0.0660
     27 H           0.4655    0.3957   -0.9353 H       1  UNL1        0.0660
     28 H           0.4697   -1.1380   -0.0560 H       1  UNL1        0.0660
     29 H           1.2606    2.3450    0.0361 H       1  UNL1        0.0691
     30 H           1.4419    4.4481    0.1246 H       1  UNL1        0.2921
     31 H           6.1934    2.0902    0.0259 H       1  UNL1        0.0629
     32 H           6.0678   -0.3381   -0.4805 H       1  UNL1        0.0626
     33 H           3.7837   -1.4503    1.2643 H       1  UNL1        0.0656
     34 H           2.8120   -3.3050    0.0388 H       1  UNL1        0.0626
     35 H           1.5714   -5.3381    0.6332 H       1  UNL1        0.0654
     36 H           1.6963   -7.3762    1.6196 H       1  UNL1        0.2921
     37 H           5.0989   -6.9788    2.4748 H       1  UNL1        0.0654
     38 H           6.3668   -4.9271    1.8821 H       1  UNL1        0.0626
     39 H           5.5728    4.5927   -2.2138 H       1  UNL1        0.0241
     40 H           6.8507    5.5440   -1.4489 H       1  UNL1        0.0241
     41 H           6.9007    3.7878   -1.3654 H       1  UNL1        0.0241
     42 H           4.0392    6.2212    0.8346 H       1  UNL1        0.0241
     43 H           5.3243    6.9077   -0.1454 H       1  UNL1        0.0241
     44 H           3.9777    6.1229   -0.9469 H       1  UNL1        0.0241
     45 H           7.0661    5.6992    1.0416 H       1  UNL1        0.0575
     46 H           5.8806    3.2689    2.4769 H       1  UNL1        0.0532
     47 H           7.2672    4.3802    2.9911 H       1  UNL1        0.0532
@<TRIPOS>BOND
     1     1    26    1
     2     1    27    1
     3     1    28    1
     4     2     1    1
     5     3     2    1
     6     4     3   ar
     7     4    29    1
     8     5     4   ar
     9     6     5    1
    10     6    30    1
    11     7     5   ar
    12     8     7   ar
    13     8    31    1
    14     9     8   ar
    15     9     3   ar
    16    10     9    1
    17    10    32    1
    18    11    10    2
    19    11    33    1
    20    12    11    1
    21    13    12    2
    22    14    12    1
    23    15    14   ar
    24    15    34    1
    25    16    15   ar
    26    16    35    1
    27    17    16   ar
    28    18    17    1
    29    18    36    1
    30    19    17   ar
    31    19    37    1
    32    20    19   ar
    33    20    14   ar
    34    20    38    1
    35    21     7    1
    36    22    21    1
    37    22    39    1
    38    22    40    1
    39    22    41    1
    40    23    21    1
    41    23    42    1
    42    23    43    1
    43    23    44    1
    44    24    21    1
    45    24    45    1
    46    25    24    2
    47    25    46    1
    48    25    47    1
