@<TRIPOS>MOLECULE
mol_275_akc_aac4351234
>267.sdf
 34 35 0 0 0
SMALL
GASTEIGER

@<TRIPOS>ATOM
      1 C           1.1582    0.1452   -0.4772 C.3     1  UNL1        0.0788
      2 O           2.4623    0.0390    0.0813 O.3     1  UNL1       -0.4949
      3 C           3.0796   -1.1786   -0.0032 C.ar    1  UNL1        0.1271
      4 C           2.5544   -2.3198   -0.6120 C.ar    1  UNL1        0.0225
      5 C           3.2891   -3.5137   -0.6279 C.ar    1  UNL1        0.1346
      6 O           2.7524   -4.5879   -1.2851 O.3     1  UNL1       -0.5058
      7 C           4.5509   -3.5955   -0.0202 C.ar    1  UNL1        0.1045
      8 C           5.3703   -4.8385    0.0415 C.2     1  UNL1        0.1931
      9 O           6.5955   -4.7374    0.1384 O.2     1  UNL1       -0.2870
     10 C           4.6997   -6.1649    0.0836 C.2     1  UNL1       -0.0135
     11 C           5.4272   -7.2910    0.0675 C.2     1  UNL1       -0.0510
     12 C           4.7832   -8.6035    0.0833 C.ar    1  UNL1       -0.0249
     13 C           4.4635   -9.2387   -1.1217 C.ar    1  UNL1       -0.0546
     14 C           3.8503  -10.4930   -1.1141 C.ar    1  UNL1       -0.0612
     15 C           3.5509  -11.1156    0.0970 C.ar    1  UNL1       -0.0617
     16 C           3.8572  -10.4818    1.3010 C.ar    1  UNL1       -0.0612
     17 C           4.4699   -9.2266    1.2954 C.ar    1  UNL1       -0.0546
     18 C           5.0792   -2.4261    0.5546 C.ar    1  UNL1        0.1346
     19 O           6.3235   -2.3679    1.1307 O.3     1  UNL1       -0.5058
     20 C           4.3483   -1.2369    0.5724 C.ar    1  UNL1        0.0225
     21 H           1.1797   -0.0237   -1.5588 H       1  UNL1        0.0660
     22 H           0.4602   -0.5399    0.0155 H       1  UNL1        0.0660
     23 H           0.8001    1.1649   -0.3059 H       1  UNL1        0.0660
     24 H           1.5811   -2.2902   -1.0862 H       1  UNL1        0.0691
     25 H           1.8749   -4.3593   -1.6369 H       1  UNL1        0.2922
     26 H           3.6201   -6.2065    0.1387 H       1  UNL1        0.0656
     27 H           6.5131   -7.2806    0.0257 H       1  UNL1        0.0625
     28 H           4.6932   -8.7619   -2.0718 H       1  UNL1        0.0623
     29 H           3.6100  -10.9851   -2.0530 H       1  UNL1        0.0618
     30 H           3.0803  -12.0954    0.1025 H       1  UNL1        0.0618
     31 H           3.6225  -10.9667    2.2450 H       1  UNL1        0.0618
     32 H           4.7049   -8.7424    2.2402 H       1  UNL1        0.0623
     33 H           6.8036   -3.1953    0.8984 H       1  UNL1        0.2922
     34 H           4.7768   -0.3505    1.0344 H       1  UNL1        0.0691
@<TRIPOS>BOND
     1     1    21    1
     2     1    22    1
     3     1    23    1
     4     2     1    1
     5     3     2    1
     6     4     3   ar
     7     4    24    1
     8     5     4   ar
     9     6     5    1
    10     6    25    1
    11     7     5   ar
    12     8     7    1
    13     9     8    2
    14    10     8    1
    15    10    26    1
    16    11    10    2
    17    11    27    1
    18    12    11    1
    19    13    12   ar
    20    13    28    1
    21    14    13   ar
    22    14    29    1
    23    15    14   ar
    24    15    30    1
    25    16    15   ar
    26    16    31    1
    27    17    16   ar
    28    17    12   ar
    29    17    32    1
    30    18     7   ar
    31    19    18    1
    32    19    33    1
    33    20    18   ar
    34    20     3   ar
    35    20    34    1
