@<TRIPOS>MOLECULE
mol_276_akc_jbmc200510005
>268.sdf
 39 40 0 0 0
SMALL
GASTEIGER

@<TRIPOS>ATOM
      1 C           1.0675   -0.0541   -0.0146 C.3     1  UNL1        0.0788
      2 O           2.4907   -0.0244   -0.0532 O.3     1  UNL1       -0.4949
      3 C           3.0869    1.2067   -0.0619 C.ar    1  UNL1        0.1271
      4 C           2.4214    2.4307   -0.0377 C.ar    1  UNL1        0.0227
      5 C           3.1240    3.6513   -0.0717 C.ar    1  UNL1        0.1379
      6 O           2.4651    4.8506   -0.0719 O.3     1  UNL1       -0.4942
      7 C           1.0502    4.8827    0.0614 C.3     1  UNL1        0.0788
      8 C           4.5366    3.6567   -0.1278 C.ar    1  UNL1        0.1047
      9 C           5.4072    4.8885   -0.2205 C.2     1  UNL1        0.1931
     10 O           6.6270    4.7617   -0.3402 O.2     1  UNL1       -0.2870
     11 C           4.8246    6.2659   -0.1622 C.2     1  UNL1       -0.0135
     12 C           5.4965    7.3400   -0.6071 C.2     1  UNL1       -0.0507
     13 C           4.8909    8.6693   -0.4773 C.ar    1  UNL1       -0.0185
     14 C           4.0703    9.1906   -1.4848 C.ar    1  UNL1        0.0227
     15 C           3.4571   10.4408   -1.3011 C.ar    1  UNL1        0.2737
     16 C           3.6525   11.1711   -0.1199 C.ar    1  UNL1        0.0156
     17 C           4.4687   10.6436    0.8803 C.ar    1  UNL1       -0.0548
     18 C           5.0827    9.4014    0.7028 C.ar    1  UNL1       -0.0542
     19 N           2.5925   10.9924   -2.3531 N.pl3   1  UNL1        0.0796
     20 O           2.4353   10.3178   -3.3817 O.co2   1  UNL1       -0.5760
     21 O           2.0656   12.0946   -2.1500 O.2     1  UNL1        0.0414
     22 C           5.1894    2.4010   -0.1296 C.ar    1  UNL1        0.1346
     23 O           6.5547    2.2486   -0.1617 O.3     1  UNL1       -0.5058
     24 C           4.4754    1.1986   -0.1013 C.ar    1  UNL1        0.0225
     25 H           0.6919    0.3953    0.9111 H       1  UNL1        0.0660
     26 H           0.6363    0.4375   -0.8937 H       1  UNL1        0.0660
     27 H           0.7484   -1.1003   -0.0306 H       1  UNL1        0.0660
     28 H           1.3400    2.4356   -0.0044 H       1  UNL1        0.0691
     29 H           0.5660    4.3906   -0.7872 H       1  UNL1        0.0660
     30 H           0.7296    4.4499    1.0150 H       1  UNL1        0.0660
     31 H           0.7443    5.9332    0.0537 H       1  UNL1        0.0660
     32 H           3.8563    6.4094    0.2829 H       1  UNL1        0.0656
     33 H           6.4899    7.2758   -1.0385 H       1  UNL1        0.0625
     34 H           3.9066    8.6181   -2.3968 H       1  UNL1        0.0691
     35 H           3.1802   12.1375    0.0335 H       1  UNL1        0.0685
     36 H           4.6243   11.1988    1.8029 H       1  UNL1        0.0620
     37 H           5.7084    9.0003    1.4984 H       1  UNL1        0.0623
     38 H           6.9640    3.1426   -0.2015 H       1  UNL1        0.2922
     39 H           5.0121    0.2524   -0.1163 H       1  UNL1        0.0691
@<TRIPOS>UNITY_ATOM_ATTR
19 1
charge 1
20 1
charge -1
@<TRIPOS>BOND
     1     1    25    1
     2     1    26    1
     3     1    27    1
     4     2     1    1
     5     3     2    1
     6     4     3   ar
     7     4    28    1
     8     5     4   ar
     9     6     5    1
    10     7     6    1
    11     7    29    1
    12     7    30    1
    13     7    31    1
    14     8     5   ar
    15     9     8    1
    16    10     9    2
    17    11     9    1
    18    11    32    1
    19    12    11    2
    20    12    33    1
    21    13    12    1
    22    14    13   ar
    23    14    34    1
    24    15    14   ar
    25    16    15   ar
    26    16    35    1
    27    17    16   ar
    28    17    36    1
    29    18    17   ar
    30    18    13   ar
    31    18    37    1
    32    19    15    1
    33    20    19    1
    34    21    19    2
    35    22     8   ar
    36    23    22    1
    37    23    38    1
    38    24    22   ar
    39    24     3   ar
    40    24    39    1
