@<TRIPOS>MOLECULE
mol_278_akc_jbmcl2016
>270.sdf
 59 61 0 0 0
SMALL
GASTEIGER

@<TRIPOS>ATOM
      1 C           7.3254    0.7536   -1.6563 C.3     1  UNL1       -0.0440
      2 C           6.2232    0.9331   -0.6499 C.2     1  UNL1       -0.0793
      3 C           5.6075    2.3043   -0.6009 C.3     1  UNL1       -0.0440
      4 C           5.8245   -0.0793    0.1467 C.2     1  UNL1       -0.0807
      5 C           4.7169   -0.0300    1.1686 C.3     1  UNL1       -0.0023
      6 C           5.1780   -0.3612    2.5737 C.ar    1  UNL1        0.0403
      7 C           5.1612   -1.6826    3.0494 C.ar    1  UNL1        0.1308
      8 O           4.6933   -2.6555    2.2042 O.3     1  UNL1       -0.5060
      9 C           5.5885   -2.0251    4.3451 C.ar    1  UNL1        0.0406
     10 C           5.7037   -3.4735    4.7748 C.3     1  UNL1       -0.0023
     11 C           4.4775   -4.0237    5.4517 C.2     1  UNL1       -0.0807
     12 C           3.7313   -5.0882    5.0895 C.2     1  UNL1       -0.0793
     13 C           3.9122   -5.9037    3.8395 C.3     1  UNL1       -0.0440
     14 C           2.6414   -5.5797    6.0075 C.3     1  UNL1       -0.0440
     15 C           5.9788   -0.9845    5.2119 C.ar    1  UNL1        0.1423
     16 O           6.2893   -1.3360    6.5005 O.3     1  UNL1       -0.4826
     17 C           7.0576   -0.3730    7.2364 C.3     1  UNL1        0.1323
     18 C           6.4458    1.0148    7.1578 C.3     1  UNL1        0.0520
     19 C           6.3541    1.4002    5.7148 C.2     1  UNL1        0.1740
     20 O           6.4910    2.5617    5.3281 O.2     1  UNL1       -0.2917
     21 C           5.9930    0.3380    4.7601 C.ar    1  UNL1        0.1012
     22 C           5.6212    0.6459    3.4442 C.ar    1  UNL1        0.1378
     23 O           5.6308    1.9369    2.9784 O.3     1  UNL1       -0.5055
     24 C           7.1234   -0.8222    8.6899 C.ar    1  UNL1       -0.0033
     25 C           6.0652   -1.5307    9.2896 C.ar    1  UNL1       -0.0514
     26 C           6.1192   -1.9165   10.6328 C.ar    1  UNL1       -0.0162
     27 C           7.2384   -1.5856   11.3846 C.ar    1  UNL1        0.1582
     28 O           7.3531   -1.9337   12.7017 O.3     1  UNL1       -0.5033
     29 C           8.2862   -0.8749   10.8066 C.ar    1  UNL1        0.1586
     30 O           9.3779   -0.5428   11.5582 O.3     1  UNL1       -0.5033
     31 C           8.2388   -0.4877    9.4729 C.ar    1  UNL1       -0.0099
     32 H           6.9465    0.9397   -2.6668 H       1  UNL1        0.0274
     33 H           8.1406    1.4560   -1.4555 H       1  UNL1        0.0274
     34 H           7.7438   -0.2581   -1.6389 H       1  UNL1        0.0274
     35 H           4.5295    2.2544   -0.7825 H       1  UNL1        0.0274
     36 H           5.7905    2.7756    0.3694 H       1  UNL1        0.0274
     37 H           6.0346    2.9600   -1.3666 H       1  UNL1        0.0274
     38 H           6.3105   -1.0495    0.0519 H       1  UNL1        0.0575
     39 H           4.2067    0.9393    1.1755 H       1  UNL1        0.0358
     40 H           3.9369   -0.7375    0.8600 H       1  UNL1        0.0358
     41 H           4.0882   -3.2154    2.7229 H       1  UNL1        0.2922
     42 H           6.0095   -4.0769    3.9137 H       1  UNL1        0.0358
     43 H           6.5459   -3.5786    5.4719 H       1  UNL1        0.0358
     44 H           4.2431   -3.5344    6.3980 H       1  UNL1        0.0575
     45 H           4.1330   -6.9455    4.0942 H       1  UNL1        0.0274
     46 H           2.9902   -5.8815    3.2473 H       1  UNL1        0.0274
     47 H           4.7146   -5.5442    3.1930 H       1  UNL1        0.0274
     48 H           3.0823   -6.0895    6.8716 H       1  UNL1        0.0274
     49 H           2.0146   -4.7558    6.3631 H       1  UNL1        0.0274
     50 H           1.9854   -6.2973    5.5024 H       1  UNL1        0.0274
     51 H           8.0733   -0.3826    6.8205 H       1  UNL1        0.0789
     52 H           5.4335    1.0496    7.5772 H       1  UNL1        0.0385
     53 H           7.0702    1.7467    7.6845 H       1  UNL1        0.0385
     54 H           6.0039    2.5224    3.6749 H       1  UNL1        0.2922
     55 H           5.1809   -1.7905    8.7068 H       1  UNL1        0.0623
     56 H           5.2912   -2.4686   11.0609 H       1  UNL1        0.0655
     57 H           6.5574   -2.4337   12.9527 H       1  UNL1        0.2923
     58 H           9.1864   -0.9133   12.4435 H       1  UNL1        0.2923
     59 H           9.0731    0.0698    9.0574 H       1  UNL1        0.0659
@<TRIPOS>BOND
     1     1    32    1
     2     1    33    1
     3     1    34    1
     4     2     1    1
     5     3     2    1
     6     3    35    1
     7     3    36    1
     8     3    37    1
     9     4     2    2
    10     4    38    1
    11     5     4    1
    12     5    39    1
    13     5    40    1
    14     6     5    1
    15     7     6   ar
    16     8     7    1
    17     8    41    1
    18     9     7   ar
    19    10     9    1
    20    10    42    1
    21    10    43    1
    22    11    10    1
    23    11    44    1
    24    12    11    2
    25    13    12    1
    26    13    45    1
    27    13    46    1
    28    13    47    1
    29    14    12    1
    30    14    48    1
    31    14    49    1
    32    14    50    1
    33    15     9   ar
    34    16    15    1
    35    17    16    1
    36    18    17    1
    37    18    52    1
    38    18    53    1
    39    19    18    1
    40    20    19    2
    41    21    19    1
    42    21    15   ar
    43    22    21   ar
    44    22     6   ar
    45    23    22    1
    46    23    54    1
    47    25    24   ar
    48    25    55    1
    49    26    25   ar
    50    26    56    1
    51    27    26   ar
    52    28    27    1
    53    28    57    1
    54    29    27   ar
    55    30    29    1
    56    30    58    1
    57    31    29   ar
    58    31    24   ar
    59    31    59    1
    60    17    24    1
    61    17    51    1
