@<TRIPOS>MOLECULE
mol_279_akc_molecules190913251
>271.sdf
 55 58 0 0 0
SMALL
GASTEIGER

@<TRIPOS>ATOM
      1 CL          7.2145   -8.7347   -9.1333 Cl      1  UNL1       -0.0835
      2 C           5.9908   -7.9436   -8.2190 C.ar    1  UNL1        0.0426
      3 C           5.6337   -6.6326   -8.5261 C.ar    1  UNL1       -0.0215
      4 C           4.6198   -6.0033   -7.7979 C.ar    1  UNL1        0.0845
      5 CL          4.1970   -4.3828   -8.2210 Cl      1  UNL1       -0.0797
      6 C           3.9605   -6.6828   -6.7643 C.ar    1  UNL1        0.1469
      7 O           2.9463   -6.0245   -6.0936 O.3     1  UNL1       -0.4509
      8 C           1.8706   -6.7571   -5.6314 C.ar    1  UNL1        0.1700
      9 C           1.2867   -6.3792   -4.4113 C.ar    1  UNL1        0.1639
     10 O           1.7301   -5.2227   -3.8241 O.3     1  UNL1       -0.4882
     11 C           0.7410   -4.3685   -3.2293 C.3     1  UNL1        0.0898
     12 C           0.1437   -3.3535   -4.2144 C.3     1  UNL1       -0.0185
     13 C          -0.6867   -3.9337   -5.3673 C.3     1  UNL1       -0.0469
     14 C          -1.8832   -4.7898   -4.9529 C.3     1  UNL1       -0.0185
     15 C          -2.9383   -4.0218   -4.1767 C.3     1  UNL1        0.0896
     16 O          -3.9491   -4.9463   -3.7695 O.3     1  UNL1       -0.4918
     17 C          -5.0071   -4.4078   -3.0887 C.ar    1  UNL1        0.1240
     18 C          -5.1378   -3.0590   -2.7422 C.ar    1  UNL1       -0.0190
     19 C          -6.2811   -2.6101   -2.0827 C.ar    1  UNL1       -0.0439
     20 C          -7.2912   -3.5152   -1.7676 C.ar    1  UNL1        0.0642
     21 C          -8.5223   -3.0598   -1.1003 C.ar    1  UNL1        0.1925
     22 O          -8.7000   -1.8916   -0.7860 O.2     1  UNL1       -0.2871
     23 C          -9.5405   -4.0827   -0.8342 C.ar    1  UNL1        0.0207
     24 C          -9.2794   -5.3477   -1.1889 C.ar    1  UNL1        0.0961
     25 O          -8.1299   -5.7953   -1.7960 O.2     1  UNL1       -0.4626
     26 C          -7.1620   -4.8671   -2.0888 C.ar    1  UNL1        0.1418
     27 C          -6.0159   -5.3133   -2.7459 C.ar    1  UNL1        0.0231
     28 C           0.2941   -7.1895   -3.8543 C.ar    1  UNL1        0.0021
     29 C          -0.2241   -8.2610   -4.5832 C.ar    1  UNL1        0.0447
     30 CL         -1.5264   -9.1810   -3.9364 Cl      1  UNL1       -0.0834
     31 C           0.2660   -8.5612   -5.8493 C.ar    1  UNL1       -0.0397
     32 C           1.3138   -7.8085   -6.3745 C.ar    1  UNL1       -0.0143
     33 C           4.3754   -7.9804   -6.4273 C.ar    1  UNL1       -0.0165
     34 C           5.3682   -8.6201   -7.1727 C.ar    1  UNL1       -0.0398
     35 H           6.1376   -6.1056   -9.3316 H       1  UNL1        0.0648
     36 H          -0.0423   -4.9079   -2.6895 H       1  UNL1        0.0696
     37 H           1.2725   -3.7964   -2.4585 H       1  UNL1        0.0696
     38 H          -0.4721   -2.6407   -3.6515 H       1  UNL1        0.0298
     39 H           0.9605   -2.7691   -4.6554 H       1  UNL1        0.0298
     40 H          -1.0506   -3.1015   -5.9833 H       1  UNL1        0.0267
     41 H          -0.0355   -4.5212   -6.0222 H       1  UNL1        0.0267
     42 H          -2.3401   -5.2339   -5.8462 H       1  UNL1        0.0298
     43 H          -1.5771   -5.6370   -4.3440 H       1  UNL1        0.0298
     44 H          -2.4880   -3.5737   -3.2849 H       1  UNL1        0.0696
     45 H          -3.3655   -3.2480   -4.8241 H       1  UNL1        0.0696
     46 H          -4.3732   -2.3261   -2.9781 H       1  UNL1        0.0654
     47 H          -6.3815   -1.5570   -1.8280 H       1  UNL1        0.0627
     48 H         -10.4597   -3.7707   -0.3620 H       1  UNL1        0.0687
     49 H          -9.9673   -6.1646   -1.0305 H       1  UNL1        0.1031
     50 H          -5.9104   -6.3648   -3.0026 H       1  UNL1        0.0691
     51 H          -0.1219   -6.9752   -2.8755 H       1  UNL1        0.0670
     52 H          -0.1543   -9.3792   -6.4277 H       1  UNL1        0.0633
     53 H           1.6931   -8.0526   -7.3633 H       1  UNL1        0.0656
     54 H           3.9194   -8.5153   -5.5976 H       1  UNL1        0.0655
     55 H           5.6486   -9.6425   -6.9310 H       1  UNL1        0.0633
@<TRIPOS>BOND
     1     2     1    1
     2     3     2   ar
     3     3    35    1
     4     4     3   ar
     5     5     4    1
     6     6     4   ar
     7     7     6    1
     8     8     7    1
     9     9     8   ar
    10    10     9    1
    11    11    10    1
    12    11    36    1
    13    11    37    1
    14    12    11    1
    15    12    38    1
    16    12    39    1
    17    13    12    1
    18    13    40    1
    19    13    41    1
    20    14    13    1
    21    14    42    1
    22    14    43    1
    23    15    14    1
    24    15    44    1
    25    15    45    1
    26    16    15    1
    27    17    16    1
    28    18    17   ar
    29    18    46    1
    30    19    18   ar
    31    19    47    1
    32    20    19   ar
    33    21    20   ar
    34    22    21    2
    35    23    21   ar
    36    23    48    1
    37    24    23   ar
    38    24    49    1
    39    25    24   ar
    40    26    25   ar
    41    26    20   ar
    42    27    26   ar
    43    27    17   ar
    44    27    50    1
    45    28     9   ar
    46    28    51    1
    47    29    28   ar
    48    30    29    1
    49    31    29   ar
    50    31    52    1
    51    32    31   ar
    52    32     8   ar
    53    32    53    1
    54    33     6   ar
    55    33    54    1
    56    34    33   ar
    57    34     2   ar
    58    34    55    1
