@<TRIPOS>MOLECULE
mol_27_akc_jejmech201203003
>27.sdf
 32 33 0 0 0
SMALL
GASTEIGER

@<TRIPOS>ATOM
      1 C           5.4588   -1.8863   -2.2257 C.3     1  UNL1       -0.0648
      2 C           4.6255   -1.5391   -1.0020 C.3     1  UNL1       -0.0476
      3 C           5.4850   -1.5226    0.2557 C.3     1  UNL1        0.0240
      4 C           4.7029   -1.0784    1.4841 C.2     1  UNL1        0.2174
      5 O           3.4815   -1.1843    1.5709 O.2     1  UNL1       -0.2755
      6 N           5.4138   -0.6957    2.5947 N.am    1  UNL1       -0.2783
      7 C           6.7838   -0.6274    2.6986 C.ar    1  UNL1        0.1411
      8 C           7.4578   -1.5328    3.4257 C.ar    1  UNL1        0.1523
      9 O           6.8349   -2.5768    4.0872 O.3     1  UNL1       -0.5041
     10 C           8.9270   -1.5364    3.4454 C.ar    1  UNL1        0.0418
     11 C           9.6141   -0.5384    2.7394 C.ar    1  UNL1        0.0528
     12 N           8.8919    0.4373    2.0426 N.ar    1  UNL1       -0.3204
     13 C           7.5253    0.4633    1.9702 C.ar    1  UNL1        0.2741
     14 O           6.9379    1.3355    1.3388 O.2     1  UNL1       -0.2657
     15 C          11.0089   -0.5170    2.7017 C.ar    1  UNL1       -0.0376
     16 C          11.7308   -1.5136    3.3587 C.ar    1  UNL1       -0.0598
     17 C          11.0603   -2.5191    4.0545 C.ar    1  UNL1       -0.0610
     18 C           9.6648   -2.5284    4.1020 C.ar    1  UNL1       -0.0491
     19 H           4.8412   -1.8529   -3.1279 H       1  UNL1        0.0230
     20 H           6.2835   -1.1769   -2.3528 H       1  UNL1        0.0230
     21 H           5.8839   -2.8914   -2.1382 H       1  UNL1        0.0230
     22 H           4.1643   -0.5550   -1.1448 H       1  UNL1        0.0267
     23 H           3.8099   -2.2635   -0.8959 H       1  UNL1        0.0267
     24 H           5.8707   -2.5303    0.4571 H       1  UNL1        0.0358
     25 H           6.3396   -0.8666    0.0831 H       1  UNL1        0.0358
     26 H           4.8552   -0.5909    3.4335 H       1  UNL1        0.1551
     27 H           5.8893   -2.5518    3.8551 H       1  UNL1        0.2923
     28 H           9.3751    1.1705    1.5399 H       1  UNL1        0.1690
     29 H          11.5432    0.2554    2.1557 H       1  UNL1        0.0638
     30 H          12.8173   -1.5120    3.3230 H       1  UNL1        0.0618
     31 H          11.6223   -3.3025    4.5573 H       1  UNL1        0.0618
     32 H           9.1573   -3.3253    4.6410 H       1  UNL1        0.0625
@<TRIPOS>BOND
     1     1    19    1
     2     1    20    1
     3     1    21    1
     4     2     1    1
     5     2    22    1
     6     2    23    1
     7     3     2    1
     8     3    24    1
     9     3    25    1
    10     4     3    1
    11     5     4    2
    12     6     4   am
    13     6    26    1
    14     7     6    1
    15     8     7   ar
    16     9     8    1
    17     9    27    1
    18    10     8   ar
    19    11    10   ar
    20    12    11   ar
    21    12    28    1
    22    13    12   ar
    23    13     7   ar
    24    14    13    2
    25    15    11   ar
    26    15    29    1
    27    16    15   ar
    28    16    30    1
    29    17    16   ar
    30    17    31    1
    31    18    17   ar
    32    18    10   ar
    33    18    32    1
