@<TRIPOS>MOLECULE
mol_280_akc_s00044_017_1846_5
>272.sdf
 46 49 0 0 0
SMALL
GASTEIGER

@<TRIPOS>ATOM
      1 O           5.9880   -5.8847    6.3235 O.2     1  UNL1       -0.2871
      2 C           5.2163   -5.8285    5.3754 C.ar    1  UNL1        0.1925
      3 C           4.0955   -6.7736    5.2475 C.ar    1  UNL1        0.0207
      4 C           3.2928   -6.6689    4.1849 C.ar    1  UNL1        0.0961
      5 O           3.4071   -5.7460    3.1717 O.2     1  UNL1       -0.4626
      6 C           4.4305   -4.8324    3.2562 C.ar    1  UNL1        0.1418
      7 C           4.5301   -3.8821    2.2382 C.ar    1  UNL1        0.0231
      8 C           5.5415   -2.9164    2.2726 C.ar    1  UNL1        0.1240
      9 O           5.5279   -2.0235    1.2309 O.3     1  UNL1       -0.4918
     10 C           6.5901   -1.0686    1.2178 C.3     1  UNL1        0.0897
     11 C           6.4749   -0.1795   -0.0183 C.3     1  UNL1       -0.0156
     12 C           7.5632    0.9028   -0.0686 C.3     1  UNL1       -0.0156
     13 C           8.9891    0.3451   -0.0877 C.3     1  UNL1        0.0898
     14 O           9.1285   -0.5223   -1.2111 O.3     1  UNL1       -0.4898
     15 C          10.3506   -1.1439   -1.3618 C.ar    1  UNL1        0.1463
     16 C          10.7894   -1.3691   -2.6809 C.ar    1  UNL1        0.1124
     17 N          10.0817   -0.9460   -3.7585 N.ar    1  UNL1       -0.2513
     18 C          10.5592   -1.1994   -4.9967 C.ar    1  UNL1        0.0284
     19 C          11.7404   -1.8677   -5.2441 C.ar    1  UNL1       -0.0430
     20 C          12.4760   -2.3038   -4.1527 C.ar    1  UNL1       -0.0510
     21 C          12.0131   -2.0614   -2.8527 C.ar    1  UNL1        0.0040
     22 C          12.7505   -2.5069   -1.7430 C.ar    1  UNL1       -0.0523
     23 C          12.2862   -2.2850   -0.4533 C.ar    1  UNL1       -0.0576
     24 C          11.0861   -1.6116   -0.2618 C.ar    1  UNL1       -0.0178
     25 C           6.4583   -2.9186    3.3312 C.ar    1  UNL1       -0.0190
     26 C           6.3636   -3.8711    4.3482 C.ar    1  UNL1       -0.0439
     27 C           5.3454   -4.8234    4.3072 C.ar    1  UNL1        0.0642
     28 H           3.9674   -7.5163    6.0225 H       1  UNL1        0.0687
     29 H           2.4457   -7.3198    4.0108 H       1  UNL1        0.1031
     30 H           3.8184   -3.8888    1.4165 H       1  UNL1        0.0691
     31 H           6.5287   -0.4374    2.1128 H       1  UNL1        0.0696
     32 H           7.5456   -1.6029    1.1958 H       1  UNL1        0.0696
     33 H           6.5075   -0.7994   -0.9223 H       1  UNL1        0.0299
     34 H           5.4884    0.3008   -0.0269 H       1  UNL1        0.0299
     35 H           7.4029    1.5053   -0.9703 H       1  UNL1        0.0299
     36 H           7.4537    1.5721    0.7934 H       1  UNL1        0.0299
     37 H           9.7071    1.1701   -0.1632 H       1  UNL1        0.0696
     38 H           9.1649   -0.1788    0.8556 H       1  UNL1        0.0696
     39 H           9.9399   -0.8356   -5.8120 H       1  UNL1        0.0830
     40 H          12.0790   -2.0465   -6.2582 H       1  UNL1        0.0633
     41 H          13.4113   -2.8346   -4.3201 H       1  UNL1        0.0625
     42 H          13.6875   -3.0432   -1.8806 H       1  UNL1        0.0624
     43 H          12.8492   -2.6503    0.4027 H       1  UNL1        0.0619
     44 H          10.7302   -1.4934    0.7547 H       1  UNL1        0.0655
     45 H           7.2598   -2.1899    3.4000 H       1  UNL1        0.0654
     46 H           7.0776   -3.8643    5.1691 H       1  UNL1        0.0627
@<TRIPOS>BOND
     1     2     1    2
     2     3     2   ar
     3     3    28    1
     4     4     3   ar
     5     4    29    1
     6     5     4   ar
     7     6     5   ar
     8     7     6   ar
     9     7    30    1
    10     8     7   ar
    11     9     8    1
    12    10     9    1
    13    10    31    1
    14    10    32    1
    15    11    10    1
    16    11    33    1
    17    11    34    1
    18    12    11    1
    19    12    35    1
    20    12    36    1
    21    13    12    1
    22    13    37    1
    23    13    38    1
    24    14    13    1
    25    15    14    1
    26    16    15   ar
    27    17    16   ar
    28    18    17   ar
    29    18    39    1
    30    19    18   ar
    31    19    40    1
    32    20    19   ar
    33    20    41    1
    34    21    20   ar
    35    21    16   ar
    36    22    21   ar
    37    22    42    1
    38    23    22   ar
    39    23    43    1
    40    24    23   ar
    41    24    15   ar
    42    24    44    1
    43    25     8   ar
    44    25    45    1
    45    26    25   ar
    46    26    46    1
    47    27    26   ar
    48    27     2   ar
    49    27     6   ar
