@<TRIPOS>MOLECULE
mol_282_akc_jm401893j
>274.sdf
 53 55 0 0 0
SMALL
GASTEIGER

@<TRIPOS>ATOM
      1 C           1.0244   -2.8462    0.0388 C.3     1  UNL1       -0.0440
      2 C           2.5180   -2.6874    0.0021 C.2     1  UNL1       -0.0796
      3 C           3.1310   -1.9662    1.1725 C.3     1  UNL1       -0.0440
      4 C           3.2482   -3.1590   -1.0248 C.2     1  UNL1       -0.0851
      5 C           4.7502   -3.1140   -1.1169 C.3     1  UNL1       -0.0306
      6 C           5.2583   -1.8699   -1.8553 C.3     1  UNL1       -0.0060
      7 C           6.8019   -1.7626   -1.8858 C.3     1  UNL1        0.1266
      8 C           7.4352   -2.9575   -2.6129 C.3     1  UNL1       -0.0212
      9 O           7.2564   -1.8338   -0.5163 O.3     1  UNL1       -0.4812
     10 C           8.0142   -0.8210   -0.0059 C.ar    1  UNL1        0.1324
     11 C           8.3951    0.3156   -0.7176 C.ar    1  UNL1        0.0586
     12 C           7.9416    0.4640   -2.0954 C.2     1  UNL1       -0.0478
     13 C           7.1918   -0.5046   -2.6292 C.2     1  UNL1       -0.0405
     14 C           9.1975    1.2856   -0.0882 C.ar    1  UNL1        0.1382
     15 O           9.5549    2.3860   -0.8344 O.3     1  UNL1       -0.5053
     16 C           9.6137    1.1302    1.2548 C.ar    1  UNL1        0.0638
     17 C           9.2008   -0.0192    1.9468 C.ar    1  UNL1       -0.0439
     18 C           8.4089   -0.9841    1.3211 C.ar    1  UNL1       -0.0184
     19 C          10.4711    2.1818    1.8823 C.2     1  UNL1        0.1896
     20 O          10.8084    3.1597    1.2135 O.2     1  UNL1       -0.2872
     21 C          10.9052    2.0518    3.2975 C.2     1  UNL1       -0.0136
     22 C          11.6688    2.9999    3.8628 C.2     1  UNL1       -0.0495
     23 C          12.0463    2.8685    5.2666 C.ar    1  UNL1       -0.0068
     24 C          11.2317    3.3921    6.2702 C.ar    1  UNL1       -0.0517
     25 C          11.5530    3.1633    7.6057 C.ar    1  UNL1       -0.0430
     26 C          12.6870    2.4195    7.8909 C.ar    1  UNL1        0.0276
     27 N          13.5076    1.9086    6.9474 N.ar    1  UNL1       -0.2627
     28 C          13.1707    2.1464    5.6575 C.ar    1  UNL1        0.0347
     29 H           0.7284   -3.4040    0.9328 H       1  UNL1        0.0274
     30 H           0.5384   -1.8660    0.0598 H       1  UNL1        0.0274
     31 H           0.6450   -3.3909   -0.8323 H       1  UNL1        0.0274
     32 H           3.8211   -2.6187    1.7158 H       1  UNL1        0.0274
     33 H           3.6690   -1.0743    0.8355 H       1  UNL1        0.0274
     34 H           2.3656   -1.6353    1.8809 H       1  UNL1        0.0274
     35 H           2.7474   -3.6549   -1.8552 H       1  UNL1        0.0571
     36 H           5.1885   -3.1726   -0.1142 H       1  UNL1        0.0309
     37 H           5.0687   -4.0242   -1.6363 H       1  UNL1        0.0309
     38 H           4.8533   -1.8569   -2.8759 H       1  UNL1        0.0310
     39 H           4.8564   -0.9817   -1.3473 H       1  UNL1        0.0310
     40 H           7.2113   -3.9038   -2.1096 H       1  UNL1        0.0271
     41 H           7.0968   -3.0281   -3.6522 H       1  UNL1        0.0271
     42 H           8.5290   -2.8773   -2.6105 H       1  UNL1        0.0271
     43 H           8.2172    1.3518   -2.6559 H       1  UNL1        0.0624
     44 H           6.8510   -0.3993   -3.6565 H       1  UNL1        0.0611
     45 H          10.1196    2.9705   -0.2801 H       1  UNL1        0.2922
     46 H           9.4733   -0.2128    2.9789 H       1  UNL1        0.0627
     47 H           8.0986   -1.8700    1.8678 H       1  UNL1        0.0654
     48 H          10.5948    1.1990    3.8837 H       1  UNL1        0.0656
     49 H          12.0076    3.8851    3.3281 H       1  UNL1        0.0625
     50 H          10.3401    3.9616    6.0198 H       1  UNL1        0.0624
     51 H          10.9275    3.5470    8.4039 H       1  UNL1        0.0633
     52 H          12.9709    2.2043    8.9172 H       1  UNL1        0.0829
     53 H          13.8438    1.7087    4.9247 H       1  UNL1        0.0835
@<TRIPOS>BOND
     1     1    29    1
     2     1    30    1
     3     1    31    1
     4     2     1    1
     5     3     2    1
     6     3    32    1
     7     3    33    1
     8     3    34    1
     9     4     2    2
    10     4    35    1
    11     5     4    1
    12     5    36    1
    13     5    37    1
    14     6     5    1
    15     6    38    1
    16     6    39    1
    17     7     6    1
    18     8     7    1
    19     8    40    1
    20     8    41    1
    21     8    42    1
    22     9     7    1
    23    10     9    1
    24    11    10   ar
    25    12    11    1
    26    12    43    1
    27    13    12    2
    28    13     7    1
    29    13    44    1
    30    14    11   ar
    31    15    14    1
    32    15    45    1
    33    16    14   ar
    34    17    16   ar
    35    17    46    1
    36    18    17   ar
    37    18    10   ar
    38    18    47    1
    39    19    16    1
    40    20    19    2
    41    21    19    1
    42    21    48    1
    43    22    21    2
    44    22    49    1
    45    23    22    1
    46    24    23   ar
    47    24    50    1
    48    25    24   ar
    49    25    51    1
    50    26    25   ar
    51    26    52    1
    52    27    26   ar
    53    28    27   ar
    54    28    23   ar
    55    28    53    1
