@<TRIPOS>MOLECULE
mol_283_akc_jm401893j
>274_2.sdf
 53 55 0 0 0
SMALL
GASTEIGER

@<TRIPOS>ATOM
      1 C           9.5522    1.7334   -7.8373 C.3     1  UNL1       -0.0440
      2 C           8.9422    1.8375   -6.4686 C.2     1  UNL1       -0.0796
      3 C           9.7514    2.5940   -5.4500 C.3     1  UNL1       -0.0440
      4 C           7.7457    1.2816   -6.1890 C.2     1  UNL1       -0.0851
      5 C           7.0031    1.4261   -4.8898 C.3     1  UNL1       -0.0306
      6 C           7.3235    0.3177   -3.8827 C.3     1  UNL1       -0.0060
      7 C           6.6320    0.4795   -2.5030 C.3     1  UNL1        0.1266
      8 C           5.1081    0.3461   -2.6389 C.3     1  UNL1       -0.0212
      9 O           7.0417   -0.6626   -1.7097 O.3     1  UNL1       -0.4812
     10 C           7.8671   -0.4647   -0.6381 C.ar    1  UNL1        0.1324
     11 C           8.2535    0.7874   -0.1598 C.ar    1  UNL1        0.0586
     12 C           7.7236    1.9784   -0.8092 C.2     1  UNL1       -0.0478
     13 C           6.9521    1.8233   -1.8857 C.2     1  UNL1       -0.0405
     14 C           9.1077    0.8692    0.9570 C.ar    1  UNL1        0.1382
     15 O           9.4656    2.1308    1.3833 O.3     1  UNL1       -0.5053
     16 C           9.5663   -0.2946    1.6089 C.ar    1  UNL1        0.0638
     17 C           9.1479   -1.5401    1.1150 C.ar    1  UNL1       -0.0439
     18 C           8.3061   -1.6210    0.0016 C.ar    1  UNL1       -0.0184
     19 C          10.4697   -0.1604    2.7969 C.2     1  UNL1        0.1896
     20 O          10.8308    0.9616    3.1540 O.2     1  UNL1       -0.2872
     21 C          10.9102   -1.3677    3.5382 C.2     1  UNL1       -0.0136
     22 C          11.7078   -1.2603    4.6103 C.2     1  UNL1       -0.0495
     23 C          12.0985   -2.4739    5.3215 C.ar    1  UNL1       -0.0068
     24 C          11.3128   -2.9684    6.3632 C.ar    1  UNL1       -0.0517
     25 C          11.6370   -4.1918    6.9454 C.ar    1  UNL1       -0.0430
     26 C          12.7405   -4.8778    6.4613 C.ar    1  UNL1        0.0276
     27 N          13.5290   -4.4253    5.4632 N.ar    1  UNL1       -0.2627
     28 C          13.1915   -3.2333    4.9171 C.ar    1  UNL1        0.0347
     29 H           9.7349    2.7343   -8.2432 H       1  UNL1        0.0274
     30 H          10.5050    1.1959   -7.7913 H       1  UNL1        0.0274
     31 H           8.9011    1.2061   -8.5431 H       1  UNL1        0.0274
     32 H           9.2291    3.5000   -5.1287 H       1  UNL1        0.0274
     33 H           9.9576    1.9677   -4.5763 H       1  UNL1        0.0274
     34 H          10.7193    2.9005   -5.8602 H       1  UNL1        0.0274
     35 H           7.2222    0.7255   -6.9662 H       1  UNL1        0.0571
     36 H           7.2226    2.4110   -4.4668 H       1  UNL1        0.0309
     37 H           5.9307    1.4318   -5.1165 H       1  UNL1        0.0309
     38 H           7.0510   -0.6571   -4.3110 H       1  UNL1        0.0310
     39 H           8.4099    0.2580   -3.7273 H       1  UNL1        0.0310
     40 H           4.6566    1.1994   -3.1551 H       1  UNL1        0.0271
     41 H           4.8442   -0.5654   -3.1882 H       1  UNL1        0.0271
     42 H           4.6360    0.2569   -1.6528 H       1  UNL1        0.0271
     43 H           7.9536    2.9573   -0.4027 H       1  UNL1        0.0624
     44 H           6.5430    2.7132   -2.3563 H       1  UNL1        0.0611
     45 H          10.0769    2.0407    2.1487 H       1  UNL1        0.2922
     46 H           9.4492   -2.4808    1.5607 H       1  UNL1        0.0627
     47 H           7.9868   -2.5934   -0.3673 H       1  UNL1        0.0654
     48 H          10.5778   -2.3456    3.2214 H       1  UNL1        0.0656
     49 H          12.0704   -0.3086    4.9898 H       1  UNL1        0.0625
     50 H          10.4426   -2.4186    6.7130 H       1  UNL1        0.0624
     51 H          11.0368   -4.6049    7.7480 H       1  UNL1        0.0633
     52 H          13.0228   -5.8427    6.8732 H       1  UNL1        0.0829
     53 H          13.8358   -2.9071    4.1047 H       1  UNL1        0.0835
@<TRIPOS>BOND
     1     1    29    1
     2     1    30    1
     3     1    31    1
     4     2     1    1
     5     3     2    1
     6     3    32    1
     7     3    33    1
     8     3    34    1
     9     4     2    2
    10     4    35    1
    11     5     4    1
    12     5    36    1
    13     5    37    1
    14     6     5    1
    15     6    38    1
    16     6    39    1
    17     8    40    1
    18     8    41    1
    19     8    42    1
    20     9     7    1
    21    10     9    1
    22    11    10   ar
    23    12    11    1
    24    12    43    1
    25    13    12    2
    26    13     7    1
    27    13    44    1
    28    14    11   ar
    29    15    14    1
    30    15    45    1
    31    16    14   ar
    32    17    16   ar
    33    17    46    1
    34    18    17   ar
    35    18    10   ar
    36    18    47    1
    37    19    16    1
    38    20    19    2
    39    21    19    1
    40    21    48    1
    41    22    21    2
    42    22    49    1
    43    23    22    1
    44    24    23   ar
    45    24    50    1
    46    25    24   ar
    47    25    51    1
    48    26    25   ar
    49    26    52    1
    50    27    26   ar
    51    28    27   ar
    52    28    23   ar
    53    28    53    1
    54     7     8    1
    55     7     6    1
