@<TRIPOS>MOLECULE
mol_285_akc_jejmech201612017
>276.sdf
 41 42 0 0 0
SMALL
GASTEIGER

@<TRIPOS>ATOM
      1 C           0.9776    0.0194   -0.1315 C.3     1  UNL1        0.0788
      2 O           2.1329   -0.2230   -0.9269 O.3     1  UNL1       -0.4951
      3 C           2.9151    0.8631   -1.2174 C.ar    1  UNL1        0.1207
      4 C           2.6215    2.1846   -0.8787 C.ar    1  UNL1       -0.0199
      5 C           3.5104    3.2048   -1.2101 C.ar    1  UNL1       -0.0577
      6 C           4.6915    2.9055   -1.8881 C.ar    1  UNL1       -0.0544
      7 C           4.9958    1.5887   -2.2669 C.ar    1  UNL1       -0.0215
      8 C           6.2582    1.2487   -2.9527 C.2     1  UNL1       -0.0508
      9 C           6.9086    2.1267   -3.7313 C.2     1  UNL1       -0.0137
     10 C           8.2488    1.8427   -4.3100 C.2     1  UNL1        0.1897
     11 O           8.7981    0.7499   -4.2035 O.2     1  UNL1       -0.2872
     12 C           8.9891    2.9856   -4.9126 C.ar    1  UNL1        0.0667
     13 C          10.3874    3.0125   -4.8594 C.ar    1  UNL1        0.1313
     14 O          11.1334    1.9722   -4.3690 O.3     1  UNL1       -0.5059
     15 C          11.0993    4.1401   -5.2832 C.ar    1  UNL1        0.0259
     16 C          10.4273    5.2603   -5.7876 C.ar    1  UNL1        0.1650
     17 O          11.0510    6.4255   -6.1431 O.3     1  UNL1       -0.4913
     18 C          12.4532    6.5258   -5.9282 C.3     1  UNL1        0.0790
     19 C           9.0278    5.2067   -5.9148 C.ar    1  UNL1        0.1624
     20 O           8.1956    6.1977   -6.3730 O.3     1  UNL1       -0.4914
     21 C           8.7090    7.0509   -7.3866 C.3     1  UNL1        0.0790
     22 C           8.3256    4.0766   -5.4806 C.ar    1  UNL1       -0.0020
     23 C           4.0979    0.5731   -1.9122 C.ar    1  UNL1       -0.0128
     24 H           1.2466    0.4529    0.8380 H       1  UNL1        0.0660
     25 H           0.2614    0.6552   -0.6627 H       1  UNL1        0.0660
     26 H           0.4920   -0.9422    0.0586 H       1  UNL1        0.0660
     27 H           1.7141    2.4550   -0.3482 H       1  UNL1        0.0654
     28 H           3.2882    4.2315   -0.9364 H       1  UNL1        0.0619
     29 H           5.3736    3.7251   -2.0967 H       1  UNL1        0.0623
     30 H           6.6646    0.2558   -2.7726 H       1  UNL1        0.0625
     31 H           6.4922    3.1090   -3.8986 H       1  UNL1        0.0656
     32 H          10.5299    1.2086   -4.2187 H       1  UNL1        0.2922
     33 H          12.1781    4.1136   -5.1835 H       1  UNL1        0.0692
     34 H          12.7050    6.3996   -4.8701 H       1  UNL1        0.0660
     35 H          12.9970    5.8130   -6.5561 H       1  UNL1        0.0660
     36 H          12.7628    7.5330   -6.2244 H       1  UNL1        0.0660
     37 H           9.2714    7.8789   -6.9458 H       1  UNL1        0.0660
     38 H           9.3050    6.5039   -8.1252 H       1  UNL1        0.0660
     39 H           7.8527    7.4850   -7.9122 H       1  UNL1        0.0660
     40 H           7.2462    4.0809   -5.6048 H       1  UNL1        0.0663
     41 H           4.3105   -0.4620   -2.1717 H       1  UNL1        0.0660
@<TRIPOS>BOND
     1     1    24    1
     2     1    25    1
     3     1    26    1
     4     2     1    1
     5     3     2    1
     6     4     3   ar
     7     4    27    1
     8     5     4   ar
     9     5    28    1
    10     6     5   ar
    11     6    29    1
    12     7     6   ar
    13     8     7    1
    14     8    30    1
    15     9     8    2
    16     9    31    1
    17    10     9    1
    18    11    10    2
    19    12    10    1
    20    13    12   ar
    21    14    13    1
    22    14    32    1
    23    15    13   ar
    24    15    33    1
    25    16    15   ar
    26    17    16    1
    27    18    17    1
    28    18    34    1
    29    18    35    1
    30    18    36    1
    31    19    16   ar
    32    20    19    1
    33    21    20    1
    34    21    37    1
    35    21    38    1
    36    21    39    1
    37    22    19   ar
    38    22    12   ar
    39    22    40    1
    40    23     7   ar
    41    23     3   ar
    42    23    41    1
