@<TRIPOS>MOLECULE
mol_286_akc_jbmcl201704010
>277.sdf
 42 44 0 0 0
SMALL
GASTEIGER

@<TRIPOS>ATOM
      1 O           1.1735   -0.1729   -0.0336 O.2     1  UNL1       -0.2873
      2 C           2.3876   -0.0139   -0.0392 C.2     1  UNL1        0.1862
      3 C           3.1393    0.3490   -1.2677 C.2     1  UNL1       -0.0109
      4 C           2.4979    0.8361   -2.3392 C.2     1  UNL1       -0.0156
      5 C           3.2192    1.1331   -3.5281 C.ar    1  UNL1        0.1308
      6 C           2.7490    1.6512   -4.7327 C.ar    1  UNL1       -0.0141
      7 C           3.8377    1.7358   -5.6386 C.ar    1  UNL1        0.0086
      8 C           4.9195    1.2735   -4.9346 C.ar    1  UNL1        0.2802
      9 O           4.5767    0.9182   -3.6716 O.2     1  UNL1       -0.4346
     10 N           6.2914    1.1023   -5.2910 N.pl3   1  UNL1        0.0926
     11 O           6.5989    1.4031   -6.4515 O.2     1  UNL1       -0.1231
     12 O           7.0634    0.6750   -4.4220 O.2     1  UNL1       -0.1231
     13 C           3.1810   -0.2337    1.1968 C.ar    1  UNL1        0.0218
     14 C           2.7719   -1.2146    2.0998 C.ar    1  UNL1       -0.0492
     15 C           3.5058   -1.4452    3.2731 C.ar    1  UNL1       -0.0400
     16 C           4.6485   -0.6945    3.5922 C.ar    1  UNL1        0.0300
     17 C           5.0278    0.2950    2.6693 C.ar    1  UNL1       -0.0400
     18 C           4.3083    0.5318    1.4910 C.ar    1  UNL1       -0.0492
     19 N           5.3628   -0.8988    4.7594 N.pl3   1  UNL1       -0.3198
     20 C           5.4739   -2.2206    5.3956 C.3     1  UNL1        0.0524
     21 C           4.9514   -2.1607    6.8437 C.3     1  UNL1       -0.0175
     22 N           5.6283   -1.0387    7.6009 N.4     1  UNL1        0.2292
     23 C           5.4740    0.2973    6.9125 C.3     1  UNL1       -0.0175
     24 C           6.0003    0.2253    5.4642 C.3     1  UNL1        0.0524
     25 H           4.2111    0.1773   -1.2728 H       1  UNL1        0.0657
     26 H           1.4228    1.0008   -2.3209 H       1  UNL1        0.0655
     27 H           1.7203    1.9252   -4.9349 H       1  UNL1        0.0656
     28 H           3.8306    2.0807   -6.6625 H       1  UNL1        0.0673
     29 H           1.8811   -1.8066    1.8943 H       1  UNL1        0.0625
     30 H           3.1300   -2.2125    3.9439 H       1  UNL1        0.0636
     31 H           5.9217    0.8929    2.8306 H       1  UNL1        0.0636
     32 H           4.6402    1.3256    0.8261 H       1  UNL1        0.0625
     33 H           6.5336   -2.5064    5.4091 H       1  UNL1        0.0516
     34 H           4.9551   -3.0134    4.8474 H       1  UNL1        0.0516
     35 H           3.8762   -1.9569    6.8770 H       1  UNL1        0.0829
     36 H           5.1690   -3.0837    7.3885 H       1  UNL1        0.0829
     37 H           5.2378   -0.9808    8.5496 H       1  UNL1        0.2015
     38 H           6.6285   -1.2528    7.7020 H       1  UNL1        0.2015
     39 H           6.0303    1.0283    7.5056 H       1  UNL1        0.0829
     40 H           4.4061    0.5397    6.9374 H       1  UNL1        0.0829
     41 H           7.0865    0.0755    5.4673 H       1  UNL1        0.0516
     42 H           5.8033    1.1951    4.9957 H       1  UNL1        0.0516
@<TRIPOS>UNITY_ATOM_ATTR
22 1
charge 1
@<TRIPOS>BOND
     1     2     1    2
     2     3     2    1
     3     3    25    1
     4     4     3    2
     5     4    26    1
     6     5     4    1
     7     6     5   ar
     8     6    27    1
     9     7     6   ar
    10     7    28    1
    11     8     7   ar
    12     9     8   ar
    13     9     5   ar
    14    10     8    1
    15    11    10    2
    16    12    10    2
    17    13     2    1
    18    14    13   ar
    19    14    29    1
    20    15    14   ar
    21    15    30    1
    22    16    15   ar
    23    17    16   ar
    24    17    31    1
    25    18    17   ar
    26    18    13   ar
    27    18    32    1
    28    19    16    1
    29    20    19    1
    30    20    33    1
    31    20    34    1
    32    21    20    1
    33    21    35    1
    34    21    36    1
    35    22    21    1
    36    22    37    1
    37    22    38    1
    38    23    22    1
    39    23    39    1
    40    23    40    1
    41    24    23    1
    42    24    19    1
    43    24    41    1
    44    24    42    1
