@<TRIPOS>MOLECULE
mol_288_akc_jbmcl201802023
>279.sdf
 70 75 0 0 0
SMALL
GASTEIGER

@<TRIPOS>ATOM
      1 O           1.9313   -0.1952   -2.1854 O.3     1  UNL1       -0.5068
      2 C           0.6562   -0.0980   -1.7127 C.ar    1  UNL1        0.1169
      3 C          -0.4112    0.1859   -2.5581 C.ar    1  UNL1       -0.0199
      4 C          -1.7043    0.2644   -2.0332 C.ar    1  UNL1       -0.0536
      5 C          -1.9336    0.0585   -0.6646 C.ar    1  UNL1       -0.0295
      6 C          -3.3333    0.0913   -0.0913 C.3     1  UNL1        0.0451
      7 N          -3.9345   -1.2216   -0.0525 N.am    1  UNL1       -0.2625
      8 C          -3.7428   -2.1029    1.0076 C.2     1  UNL1        0.2524
      9 O          -3.1522   -1.8600    2.0426 O.2     1  UNL1       -0.2696
     10 C          -4.4391   -3.3948    0.5936 C.2     1  UNL1        0.0544
     11 C          -4.3622   -4.5488    1.3031 C.2     1  UNL1        0.0020
     12 C          -5.0159   -5.7968    0.8401 C.ar    1  UNL1       -0.0164
     13 C          -4.3468   -6.6765   -0.0257 C.ar    1  UNL1       -0.0505
     14 C          -4.9466   -7.8798   -0.4129 C.ar    1  UNL1       -0.0196
     15 C          -6.2106   -8.2007    0.0703 C.ar    1  UNL1        0.1169
     16 O          -6.8314   -9.3647   -0.2748 O.3     1  UNL1       -0.5068
     17 C          -6.8838   -7.3431    0.9325 C.ar    1  UNL1       -0.0196
     18 C          -6.2855   -6.1424    1.3202 C.ar    1  UNL1       -0.0505
     19 C          -3.5914   -4.5896    2.5730 C.ar    1  UNL1       -0.0164
     20 C          -4.2266   -4.3130    3.7920 C.ar    1  UNL1       -0.0505
     21 C          -3.5017   -4.3298    4.9855 C.ar    1  UNL1       -0.0196
     22 C          -2.1431   -4.6306    4.9555 C.ar    1  UNL1        0.1169
     23 O          -1.3958   -4.6427    6.0964 O.3     1  UNL1       -0.5068
     24 C          -1.5023   -4.9235    3.7575 C.ar    1  UNL1       -0.0196
     25 C          -2.2252   -4.9048    2.5634 C.ar    1  UNL1       -0.0505
     26 C          -5.1047   -3.0963   -0.6966 C.ar    1  UNL1        0.0097
     27 C          -4.7392   -1.7887   -1.0479 C.ar    1  UNL1        0.0448
     28 C          -5.1780   -1.1946   -2.2196 C.ar    1  UNL1       -0.0391
     29 C          -6.0262   -1.9255   -3.0525 C.ar    1  UNL1       -0.0528
     30 C          -6.4438   -3.2248   -2.7066 C.ar    1  UNL1       -0.0243
     31 C          -7.3355   -3.9374   -3.6362 C.2     1  UNL1       -0.0540
     32 C          -8.2654   -4.8308   -3.2596 C.2     1  UNL1       -0.0539
     33 C          -9.1460   -5.5477   -4.1959 C.ar    1  UNL1       -0.0213
     34 C          -9.6612   -4.9471   -5.3560 C.ar    1  UNL1       -0.0094
     35 C         -10.5032   -5.6745   -6.1927 C.ar    1  UNL1        0.1588
     36 O         -11.0204   -5.1403   -7.3413 O.3     1  UNL1       -0.5033
     37 C         -10.8499   -6.9856   -5.8782 C.ar    1  UNL1        0.1582
     38 O         -11.6751   -7.6903   -6.7064 O.3     1  UNL1       -0.5033
     39 C         -10.3697   -7.5876   -4.7272 C.ar    1  UNL1       -0.0160
     40 C          -9.5208   -6.8661   -3.8836 C.ar    1  UNL1       -0.0509
     41 C          -5.9618   -3.8137   -1.5229 C.ar    1  UNL1       -0.0449
     42 C          -0.8396   -0.2263    0.1684 C.ar    1  UNL1       -0.0536
     43 C           0.4521   -0.2992   -0.3542 C.ar    1  UNL1       -0.0199
     44 H           1.9139   -0.0799   -3.1490 H       1  UNL1        0.2921
     45 H          -0.2589    0.3435   -3.6210 H       1  UNL1        0.0654
     46 H          -2.5309    0.4815   -2.7038 H       1  UNL1        0.0622
     47 H          -3.2876    0.4868    0.9315 H       1  UNL1        0.0518
     48 H          -3.9681    0.7874   -0.6509 H       1  UNL1        0.0518
     49 H          -3.3522   -6.4347   -0.3929 H       1  UNL1        0.0625
     50 H          -4.4112   -8.5500   -1.0786 H       1  UNL1        0.0654
     51 H          -6.2265   -9.8894   -0.8250 H       1  UNL1        0.2921
     52 H          -7.8635   -7.6145    1.3140 H       1  UNL1        0.0654
     53 H          -6.8122   -5.4849    2.0080 H       1  UNL1        0.0625
     54 H          -5.2838   -4.0627    3.8150 H       1  UNL1        0.0625
     55 H          -4.0079   -4.0982    5.9162 H       1  UNL1        0.0654
     56 H          -1.9526   -4.3309    6.8282 H       1  UNL1        0.2921
     57 H          -0.4404   -5.1501    3.7504 H       1  UNL1        0.0654
     58 H          -1.7134   -5.1160    1.6288 H       1  UNL1        0.0625
     59 H          -4.8968   -0.1857   -2.4951 H       1  UNL1        0.0636
     60 H          -6.3799   -1.4637   -3.9729 H       1  UNL1        0.0624
     61 H          -7.2003   -3.6907   -4.6862 H       1  UNL1        0.0624
     62 H          -8.4017   -5.0864   -2.2112 H       1  UNL1        0.0624
     63 H          -9.4130   -3.9181   -5.5932 H       1  UNL1        0.0661
     64 H         -10.6875   -4.2309   -7.4295 H       1  UNL1        0.2923
     65 H         -11.8813   -7.0692   -7.4328 H       1  UNL1        0.2923
     66 H         -10.6507   -8.6084   -4.4862 H       1  UNL1        0.0655
     67 H          -9.1463   -7.3473   -2.9817 H       1  UNL1        0.0625
     68 H          -6.2642   -4.8216   -1.2677 H       1  UNL1        0.0630
     69 H          -0.9910   -0.4062    1.2324 H       1  UNL1        0.0622
     70 H           1.2921   -0.5231    0.2972 H       1  UNL1        0.0654
@<TRIPOS>BOND
     1     1    44    1
     2     2     1    1
     3     3     2   ar
     4     3    45    1
     5     4     3   ar
     6     4    46    1
     7     5     4   ar
     8     6     5    1
     9     6    47    1
    10     6    48    1
    11     7     6    1
    12     8     7   am
    13     9     8    2
    14    10     8    1
    15    11    10    2
    16    12    11    1
    17    13    12   ar
    18    13    49    1
    19    14    13   ar
    20    14    50    1
    21    15    14   ar
    22    16    15    1
    23    16    51    1
    24    17    15   ar
    25    17    52    1
    26    18    17   ar
    27    18    12   ar
    28    18    53    1
    29    19    11    1
    30    20    19   ar
    31    20    54    1
    32    21    20   ar
    33    21    55    1
    34    22    21   ar
    35    23    22    1
    36    23    56    1
    37    24    22   ar
    38    24    57    1
    39    25    24   ar
    40    25    19   ar
    41    25    58    1
    42    26    10    1
    43    27    26   ar
    44    27     7    1
    45    28    27   ar
    46    28    59    1
    47    29    28   ar
    48    29    60    1
    49    30    29   ar
    50    31    30    1
    51    31    61    1
    52    32    31    2
    53    32    62    1
    54    33    32    1
    55    34    33   ar
    56    34    63    1
    57    35    34   ar
    58    36    35    1
    59    36    64    1
    60    37    35   ar
    61    38    37    1
    62    38    65    1
    63    39    37   ar
    64    39    66    1
    65    40    39   ar
    66    40    33   ar
    67    40    67    1
    68    41    30   ar
    69    41    26   ar
    70    41    68    1
    71    42     5   ar
    72    42    69    1
    73    43    42   ar
    74    43     2   ar
    75    43    70    1
