@<TRIPOS>MOLECULE
mol_289_akc_journalpntd0007235
>280.sdf
 66 67 0 0 0
SMALL
GASTEIGER

@<TRIPOS>ATOM
      1 O           1.0613    1.6097    2.6492 O.3     1  UNL1       -0.3950
      2 C           1.5923    1.4549    1.3384 C.3     1  UNL1        0.0442
      3 C           2.7761    2.3926    1.1559 C.3     1  UNL1       -0.0297
      4 C           3.4044    2.2863   -0.2346 C.3     1  UNL1       -0.0510
      5 C           4.5500    3.2897   -0.3639 C.3     1  UNL1       -0.0530
      6 C           5.1967    3.2942   -1.7518 C.3     1  UNL1       -0.0527
      7 C           6.2509    4.4076   -1.8232 C.3     1  UNL1       -0.0458
      8 C           7.0195    4.4785   -3.1531 C.3     1  UNL1        0.0118
      9 C           6.1508    4.8901   -4.3443 C.3     1  UNL1        0.0880
     10 O           6.5868    4.1437   -5.4789 O.3     1  UNL1       -0.2315
     11 O           7.3268    5.0461   -6.3508 O.3     1  UNL1       -0.1965
     12 C           8.7182    4.7254   -6.2792 C.3     1  UNL1        0.2347
     13 C           9.1141    3.3663   -6.9496 C.3     1  UNL1        0.0069
     14 C           8.0770    2.2538   -7.1864 C.3     1  UNL1       -0.0480
     15 C           7.5235    2.2152   -8.6214 C.3     1  UNL1       -0.0529
     16 C           6.4021    3.2214   -8.8915 C.3     1  UNL1       -0.0531
     17 C           6.5387    3.9315  -10.2416 C.3     1  UNL1       -0.0531
     18 C           6.0129    5.3806  -10.2092 C.3     1  UNL1       -0.0531
     19 C           7.1465    6.4128  -10.0580 C.3     1  UNL1       -0.0531
     20 C           7.0839    7.2052   -8.7486 C.3     1  UNL1       -0.0531
     21 C           8.4473    7.7833   -8.3372 C.3     1  UNL1       -0.0529
     22 C           8.9532    7.2829   -6.9690 C.3     1  UNL1       -0.0480
     23 C           9.5246    5.8514   -7.0109 C.3     1  UNL1        0.0069
     24 O           9.2103    4.6415   -4.9139 O.3     1  UNL1       -0.1965
     25 O           8.7949    5.8574   -4.2262 O.3     1  UNL1       -0.2315
     26 C           8.2083    5.4456   -2.9942 C.3     1  UNL1        0.0880
     27 H           0.8163    2.5443    2.7602 H       1  UNL1        0.2094
     28 H           1.8970    0.4114    1.2197 H       1  UNL1        0.0557
     29 H           0.7973    1.6686    0.6172 H       1  UNL1        0.0557
     30 H           2.4479    3.4238    1.3389 H       1  UNL1        0.0287
     31 H           3.5281    2.1799    1.9263 H       1  UNL1        0.0287
     32 H           3.7767    1.2680   -0.4011 H       1  UNL1        0.0266
     33 H           2.6455    2.4861   -0.9999 H       1  UNL1        0.0266
     34 H           4.1693    4.2951   -0.1457 H       1  UNL1        0.0265
     35 H           5.3155    3.0665    0.3895 H       1  UNL1        0.0265
     36 H           5.6631    2.3214   -1.9479 H       1  UNL1        0.0265
     37 H           4.4226    3.4442   -2.5113 H       1  UNL1        0.0265
     38 H           5.7731    5.3749   -1.6256 H       1  UNL1        0.0269
     39 H           6.9747    4.2419   -1.0136 H       1  UNL1        0.0269
     40 H           7.4320    3.4812   -3.3576 H       1  UNL1        0.0347
     41 H           6.1760    5.9781   -4.5380 H       1  UNL1        0.0595
     42 H           5.1019    4.6281   -4.1964 H       1  UNL1        0.0595
     43 H           9.5998    3.5527   -7.9148 H       1  UNL1        0.0319
     44 H           9.9145    2.9269   -6.3364 H       1  UNL1        0.0319
     45 H           8.6114    1.3038   -7.0456 H       1  UNL1        0.0267
     46 H           7.2769    2.2294   -6.4465 H       1  UNL1        0.0267
     47 H           8.3529    2.3354   -9.3279 H       1  UNL1        0.0265
     48 H           7.1273    1.2077   -8.8040 H       1  UNL1        0.0265
     49 H           5.4442    2.6836   -8.8823 H       1  UNL1        0.0265
     50 H           6.3277    3.9525   -8.0929 H       1  UNL1        0.0265
     51 H           7.5745    3.9167  -10.6004 H       1  UNL1        0.0265
     52 H           5.9543    3.3666  -10.9751 H       1  UNL1        0.0265
     53 H           5.5121    5.5714  -11.1657 H       1  UNL1        0.0265
     54 H           5.2432    5.5045   -9.4375 H       1  UNL1        0.0265
     55 H           8.1229    5.9305  -10.1662 H       1  UNL1        0.0265
     56 H           7.0702    7.1304  -10.8863 H       1  UNL1        0.0265
     57 H           6.3821    8.0376   -8.8895 H       1  UNL1        0.0265
     58 H           6.6577    6.5996   -7.9499 H       1  UNL1        0.0265
     59 H           9.2104    7.5991   -9.1041 H       1  UNL1        0.0265
     60 H           8.3497    8.8746   -8.2768 H       1  UNL1        0.0265
     61 H           9.7719    7.9526   -6.6721 H       1  UNL1        0.0267
     62 H           8.1748    7.4058   -6.2100 H       1  UNL1        0.0267
     63 H          10.5361    5.8764   -6.5817 H       1  UNL1        0.0319
     64 H           9.6552    5.5901   -8.0669 H       1  UNL1        0.0319
     65 H           7.8784    6.3619   -2.4912 H       1  UNL1        0.0595
     66 H           8.9854    4.9975   -2.3646 H       1  UNL1        0.0595
@<TRIPOS>BOND
     1     1    27    1
     2     2     1    1
     3     2    28    1
     4     2    29    1
     5     3     2    1
     6     3    30    1
     7     3    31    1
     8     4     3    1
     9     4    32    1
    10     4    33    1
    11     5     4    1
    12     5    34    1
    13     5    35    1
    14     6     5    1
    15     6    36    1
    16     6    37    1
    17     7     6    1
    18     7    38    1
    19     7    39    1
    20     8     7    1
    21     8    40    1
    22     9     8    1
    23     9    41    1
    24     9    42    1
    25    10     9    1
    26    11    10    1
    27    12    11    1
    28    13    12    1
    29    13    43    1
    30    13    44    1
    31    14    13    1
    32    14    45    1
    33    14    46    1
    34    15    14    1
    35    15    47    1
    36    15    48    1
    37    16    15    1
    38    16    49    1
    39    16    50    1
    40    17    16    1
    41    17    51    1
    42    17    52    1
    43    18    17    1
    44    18    53    1
    45    18    54    1
    46    19    18    1
    47    19    55    1
    48    19    56    1
    49    20    19    1
    50    20    57    1
    51    20    58    1
    52    21    20    1
    53    21    59    1
    54    21    60    1
    55    22    21    1
    56    22    61    1
    57    22    62    1
    58    23    22    1
    59    23    12    1
    60    23    63    1
    61    23    64    1
    62    24    12    1
    63    25    24    1
    64    26    25    1
    65    26     8    1
    66    26    65    1
    67    26    66    1
