@<TRIPOS>MOLECULE
mol_28_akc_jvetpar201601002
>28.sdf
 18 19 0 0 0
SMALL
GASTEIGER

@<TRIPOS>ATOM
      1 O          -1.7114    2.0430    0.0108 O.3     1  UNL1       -0.5046
      2 C          -1.3210    0.7230    0.0085 C.ar    1  UNL1        0.1427
      3 C          -2.3061   -0.2699    0.0104 C.ar    1  UNL1       -0.0180
      4 C          -1.9314   -1.6084    0.0056 C.ar    1  UNL1       -0.0576
      5 C          -0.5798   -1.9459    0.0019 C.ar    1  UNL1       -0.0523
      6 C           0.4088   -0.9447    0.0040 C.ar    1  UNL1        0.0040
      7 C           0.0494    0.4218    0.0055 C.ar    1  UNL1        0.1122
      8 N           0.9913    1.3944    0.0050 N.ar    1  UNL1       -0.2513
      9 C           2.2923    1.0387    0.0058 C.ar    1  UNL1        0.0284
     10 C           2.7300   -0.2696    0.0076 C.ar    1  UNL1       -0.0430
     11 C           1.7716   -1.2746    0.0057 C.ar    1  UNL1       -0.0510
     12 H          -2.6784    2.0937    0.0003 H       1  UNL1        0.2922
     13 H          -3.3609   -0.0133    0.0163 H       1  UNL1        0.0655
     14 H          -2.6884   -2.3885    0.0056 H       1  UNL1        0.0619
     15 H          -0.2989   -2.9971   -0.0020 H       1  UNL1        0.0624
     16 H           2.9940    1.8676    0.0054 H       1  UNL1        0.0830
     17 H           3.7888   -0.5001    0.0108 H       1  UNL1        0.0633
     18 H           2.0921   -2.3133    0.0069 H       1  UNL1        0.0625
@<TRIPOS>BOND
     1     1    12    1
     2     2     1    1
     3     3     2   ar
     4     3    13    1
     5     4     3   ar
     6     4    14    1
     7     5     4   ar
     8     5    15    1
     9     6     5   ar
    10     7     6   ar
    11     7     2   ar
    12     8     7   ar
    13     9     8   ar
    14     9    16    1
    15    10     9   ar
    16    10    17    1
    17    11    10   ar
    18    11     6   ar
    19    11    18    1
