@<TRIPOS>MOLECULE
mol_291_akc_jphytol201108001
>282.sdf
 41 42 0 0 0
SMALL
GASTEIGER

@<TRIPOS>ATOM
      1 C           0.8861   -0.0757    0.1060 C.3     1  UNL1        0.0790
      2 O           2.3067   -0.1141    0.0768 O.3     1  UNL1       -0.4912
      3 C           3.0101    1.0612    0.0560 C.ar    1  UNL1        0.1687
      4 C           2.3807    2.3159    0.0951 C.ar    1  UNL1        0.0264
      5 C           3.1069    3.5189    0.0637 C.ar    1  UNL1        0.1381
      6 O           2.5072    4.7467    0.1749 O.3     1  UNL1       -0.4942
      7 C           1.0853    4.8105    0.2276 C.3     1  UNL1        0.0788
      8 C           4.5081    3.4766   -0.0373 C.ar    1  UNL1        0.1084
      9 C           5.3739    4.6977   -0.1124 C.2     1  UNL1        0.1932
     10 O           6.5294    4.6281    0.3084 O.2     1  UNL1       -0.2870
     11 C           4.8726    5.9415   -0.7594 C.2     1  UNL1       -0.0135
     12 C           5.6133    7.0596   -0.7578 C.2     1  UNL1       -0.0510
     13 C           5.0956    8.3035   -1.3278 C.ar    1  UNL1       -0.0249
     14 C           4.4334    9.2207   -0.5024 C.ar    1  UNL1       -0.0546
     15 C           3.9056   10.3981   -1.0371 C.ar    1  UNL1       -0.0612
     16 C           4.0353   10.6649   -2.3989 C.ar    1  UNL1       -0.0617
     17 C           4.6960    9.7559   -3.2263 C.ar    1  UNL1       -0.0612
     18 C           5.2238    8.5774   -2.6928 C.ar    1  UNL1       -0.0546
     19 C           5.1436    2.2145   -0.0372 C.ar    1  UNL1        0.1768
     20 O           6.5210    2.1068   -0.0827 O.3     1  UNL1       -0.5027
     21 C           4.4118    1.0049    0.0059 C.ar    1  UNL1        0.2043
     22 O           5.1997   -0.1210   -0.0027 O.3     1  UNL1       -0.4885
     23 C           4.6065   -1.4064    0.0716 C.3     1  UNL1        0.0791
     24 H           0.5240    0.3913    1.0276 H       1  UNL1        0.0660
     25 H           0.4851    0.4263   -0.7805 H       1  UNL1        0.0660
     26 H           0.5242   -1.1083    0.0938 H       1  UNL1        0.0660
     27 H           1.3015    2.3552    0.1642 H       1  UNL1        0.0692
     28 H           0.6315    4.3461   -0.6534 H       1  UNL1        0.0660
     29 H           0.7114    4.3615    1.1529 H       1  UNL1        0.0660
     30 H           0.7981    5.8657    0.2273 H       1  UNL1        0.0660
     31 H           3.8970    5.9333   -1.2293 H       1  UNL1        0.0656
     32 H           6.6023    7.1024   -0.3063 H       1  UNL1        0.0625
     33 H           4.3231    9.0216    0.5613 H       1  UNL1        0.0623
     34 H           3.3926   11.1059   -0.3904 H       1  UNL1        0.0618
     35 H           3.6238   11.5802   -2.8154 H       1  UNL1        0.0618
     36 H           4.7983    9.9655   -4.2882 H       1  UNL1        0.0618
     37 H           5.7360    7.8767   -3.3494 H       1  UNL1        0.0623
     38 H           6.9115    2.9866    0.1137 H       1  UNL1        0.2923
     39 H           4.0381   -1.5352    0.9984 H       1  UNL1        0.0660
     40 H           4.0021   -1.6145   -0.8168 H       1  UNL1        0.0660
     41 H           5.4148   -2.1443    0.0890 H       1  UNL1        0.0660
@<TRIPOS>BOND
     1     1    24    1
     2     1    25    1
     3     1    26    1
     4     2     1    1
     5     3     2    1
     6     4     3   ar
     7     4    27    1
     8     5     4   ar
     9     6     5    1
    10     7     6    1
    11     7    28    1
    12     7    29    1
    13     7    30    1
    14     8     5   ar
    15     9     8    1
    16    10     9    2
    17    11     9    1
    18    11    31    1
    19    12    11    2
    20    12    32    1
    21    13    12    1
    22    14    13   ar
    23    14    33    1
    24    15    14   ar
    25    15    34    1
    26    16    15   ar
    27    16    35    1
    28    17    16   ar
    29    17    36    1
    30    18    17   ar
    31    18    13   ar
    32    18    37    1
    33    19     8   ar
    34    20    19    1
    35    20    38    1
    36    21    19   ar
    37    21     3   ar
    38    22    21    1
    39    23    22    1
    40    23    39    1
    41    23    40    1
    42    23    41    1
