@<TRIPOS>MOLECULE
mol_292_akc_slct201703095
>283.sdf
 40 43 0 0 0
SMALL
GASTEIGER

@<TRIPOS>ATOM
      1 S           1.0217   -0.5270   -0.8436 S.3     1  UNL1       -0.1227
      2 C           2.7101   -0.1451   -0.4116 C.ar    1  UNL1        0.1060
      3 N           3.4481   -1.2651   -0.2446 N.ar    1  UNL1       -0.2400
      4 C           4.7594   -1.1661   -0.0262 C.ar    1  UNL1        0.0729
      5 C           5.4765   -2.3535    0.0332 C.ar    1  UNL1       -0.0343
      6 C           6.8582   -2.3741    0.2178 C.ar    1  UNL1       -0.0413
      7 C           7.5311   -1.1771    0.3873 C.ar    1  UNL1        0.0417
      8 CL          9.2360   -1.1751    0.6073 Cl      1  UNL1       -0.0835
      9 C           6.8282    0.0271    0.3585 C.ar    1  UNL1       -0.0336
     10 C           5.4270    0.0689    0.1094 C.ar    1  UNL1        0.0102
     11 C           4.6468    1.2665   -0.0383 C.ar    1  UNL1        0.0047
     12 C           5.3061    2.6003    0.0241 C.ar    1  UNL1       -0.0165
     13 C           6.3305    2.9381   -0.8826 C.ar    1  UNL1       -0.0540
     14 C           7.0028    4.1601   -0.8002 C.ar    1  UNL1       -0.0612
     15 C           6.6361    5.0900    0.1660 C.ar    1  UNL1       -0.0617
     16 C           5.6001    4.7946    1.0510 C.ar    1  UNL1       -0.0612
     17 C           4.9502    3.5569    0.9885 C.ar    1  UNL1       -0.0540
     18 C           3.2556    1.1355   -0.2965 C.ar    1  UNL1        0.0621
     19 C           2.4392    2.3200   -0.6444 C.2     1  UNL1        0.1963
     20 O           2.7927    2.9837   -1.6208 O.2     1  UNL1       -0.2865
     21 C           1.1661    2.6690    0.0498 C.ar    1  UNL1        0.0224
     22 C           0.2479    3.4692   -0.6463 C.ar    1  UNL1       -0.0509
     23 C          -1.0106    3.7407   -0.1082 C.ar    1  UNL1       -0.0611
     24 C          -1.3573    3.2203    1.1366 C.ar    1  UNL1       -0.0617
     25 C          -0.4383    2.4520    1.8519 C.ar    1  UNL1       -0.0611
     26 C           0.8279    2.1821    1.3176 C.ar    1  UNL1       -0.0509
     27 H           0.8570    0.4566   -1.7384 H       1  UNL1        0.1086
     28 H           4.9443   -3.2950   -0.0935 H       1  UNL1        0.0639
     29 H           7.3898   -3.3216    0.2251 H       1  UNL1        0.0633
     30 H           7.3905    0.9453    0.5125 H       1  UNL1        0.0639
     31 H           6.6267    2.2362   -1.6604 H       1  UNL1        0.0624
     32 H           7.8105    4.3829   -1.4932 H       1  UNL1        0.0618
     33 H           7.1482    6.0469    0.2230 H       1  UNL1        0.0618
     34 H           5.3002    5.5303    1.7929 H       1  UNL1        0.0618
     35 H           4.1563    3.3542    1.7034 H       1  UNL1        0.0624
     36 H           0.4998    3.8664   -1.6293 H       1  UNL1        0.0625
     37 H          -1.7217    4.3432   -0.6673 H       1  UNL1        0.0618
     38 H          -2.3465    3.4114    1.5461 H       1  UNL1        0.0618
     39 H          -0.7179    2.0473    2.8215 H       1  UNL1        0.0618
     40 H           1.5143    1.5706    1.8957 H       1  UNL1        0.0625
@<TRIPOS>BOND
     1     1    27    1
     2     2     1    1
     3     3     2   ar
     4     4     3   ar
     5     5     4   ar
     6     5    28    1
     7     6     5   ar
     8     6    29    1
     9     7     6   ar
    10     8     7    1
    11     9     7   ar
    12     9    30    1
    13    10     9   ar
    14    10     4   ar
    15    11    10   ar
    16    12    11    1
    17    13    12   ar
    18    13    31    1
    19    14    13   ar
    20    14    32    1
    21    15    14   ar
    22    15    33    1
    23    16    15   ar
    24    16    34    1
    25    17    16   ar
    26    17    12   ar
    27    17    35    1
    28    18    11   ar
    29    18     2   ar
    30    19    18    1
    31    20    19    2
    32    21    19    1
    33    22    21   ar
    34    22    36    1
    35    23    22   ar
    36    23    37    1
    37    24    23   ar
    38    24    38    1
    39    25    24   ar
    40    25    39    1
    41    26    25   ar
    42    26    21   ar
    43    26    40    1
