@<TRIPOS>MOLECULE
mol_293_akc_jejpb201308014
>284.sdf
 43 45 0 0 0
SMALL
GASTEIGER

@<TRIPOS>ATOM
      1 C           0.9123    0.0036    0.0076 C.3     1  UNL1       -0.0597
      2 C           2.4371   -0.1988   -0.0681 C.3     1  UNL1       -0.0123
      3 C           2.7348   -1.5965   -0.6406 C.3     1  UNL1        0.0585
      4 O           3.9758   -1.5670   -1.3320 O.3     1  UNL1       -0.3915
      5 C           2.7211   -2.7129    0.4116 C.3     1  UNL1       -0.0212
      6 C           3.3698   -2.3598    1.7722 C.3     1  UNL1       -0.0097
      7 C           2.7229   -1.0717    2.2854 C.3     1  UNL1       -0.0417
      8 C           3.0880    0.0626    1.3233 C.3     1  UNL1       -0.0053
      9 C           4.6382    0.2082    1.3201 C.3     1  UNL1        0.0875
     10 O           5.3200   -1.0217    1.0521 O.3     1  UNL1       -0.3656
     11 C           4.9150   -2.1949    1.7556 C.3     1  UNL1        0.0676
     12 C           5.4786   -2.1702    3.1915 C.3     1  UNL1       -0.0358
     13 C           5.6105   -3.3609    1.0316 C.3     1  UNL1       -0.0358
     14 C           5.1564    1.2959    0.3812 C.ar    1  UNL1       -0.0186
     15 C           4.7456    2.6307    0.5289 C.ar    1  UNL1       -0.0561
     16 C           5.2208    3.6305   -0.3273 C.ar    1  UNL1       -0.0614
     17 C           6.1219    3.3107   -1.3451 C.ar    1  UNL1       -0.0617
     18 C           6.5405    1.9960   -1.5049 C.ar    1  UNL1       -0.0614
     19 C           6.0632    0.9997   -0.6538 C.ar    1  UNL1       -0.0561
     20 H           0.6653    0.9704    0.4576 H       1  UNL1        0.0233
     21 H           0.4764   -0.0134   -0.9974 H       1  UNL1        0.0233
     22 H           0.4160   -0.7801    0.5884 H       1  UNL1        0.0233
     23 H           2.8095    0.5560   -0.7720 H       1  UNL1        0.0327
     24 H           1.9878   -1.8375   -1.4074 H       1  UNL1        0.0596
     25 H           4.0168   -2.3427   -1.9141 H       1  UNL1        0.2098
     26 H           1.6705   -2.9627    0.6147 H       1  UNL1        0.0294
     27 H           3.1690   -3.6253    0.0037 H       1  UNL1        0.0294
     28 H           3.1185   -3.1754    2.4635 H       1  UNL1        0.0329
     29 H           1.6382   -1.1932    2.3732 H       1  UNL1        0.0272
     30 H           3.0646   -0.8289    3.2978 H       1  UNL1        0.0272
     31 H           2.6636    0.9948    1.7193 H       1  UNL1        0.0333
     32 H           4.9524    0.5204    2.3255 H       1  UNL1        0.0649
     33 H           5.2353   -3.0976    3.7232 H       1  UNL1        0.0257
     34 H           6.5689   -2.0592    3.1819 H       1  UNL1        0.0257
     35 H           5.0995   -1.3326    3.7822 H       1  UNL1        0.0257
     36 H           5.4354   -3.3310   -0.0481 H       1  UNL1        0.0257
     37 H           6.6995   -3.2948    1.1465 H       1  UNL1        0.0257
     38 H           5.2837   -4.3320    1.4168 H       1  UNL1        0.0257
     39 H           4.0470    2.9104    1.3148 H       1  UNL1        0.0621
     40 H           4.8882    4.6567   -0.2063 H       1  UNL1        0.0618
     41 H           6.4926    4.0874   -2.0095 H       1  UNL1        0.0618
     42 H           7.2446    1.7368   -2.2953 H       1  UNL1        0.0618
     43 H           6.3953   -0.0245   -0.8077 H       1  UNL1        0.0621
@<TRIPOS>BOND
     1     1    20    1
     2     1    21    1
     3     1    22    1
     4     2     1    1
     5     2    23    1
     6     3     2    1
     7     4    25    1
     8     5     3    1
     9     5    26    1
    10     5    27    1
    11     6     5    1
    12     6    28    1
    13     7     6    1
    14     7    29    1
    15     7    30    1
    16     8     7    1
    17     8     2    1
    18     8    31    1
    19     9     8    1
    20     9    32    1
    21    10     9    1
    22    11    10    1
    23    11     6    1
    24    12    11    1
    25    12    33    1
    26    12    34    1
    27    12    35    1
    28    13    11    1
    29    13    36    1
    30    13    37    1
    31    13    38    1
    32    14     9    1
    33    15    14   ar
    34    15    39    1
    35    16    15   ar
    36    16    40    1
    37    17    16   ar
    38    17    41    1
    39    18    17   ar
    40    18    42    1
    41    19    18   ar
    42    19    14   ar
    43    19    43    1
    44     3     4    1
    45     3    24    1
