@<TRIPOS>MOLECULE
mol_295_akc_cbdd13088
>286.sdf
 56 60 0 0 0
SMALL
GASTEIGER

@<TRIPOS>ATOM
      1 O          -2.2069   -2.0926    5.2717 O.3     1  UNL1       -0.2951
      2 N          -1.5619   -1.2732    4.3197 N.am    1  UNL1       -0.1962
      3 C          -0.5306   -1.8444    3.6264 C.2     1  UNL1        0.2533
      4 O          -0.2014   -3.0176    3.8054 O.2     1  UNL1       -0.2720
      5 C           0.2668   -0.8936    2.7602 C.3     1  UNL1        0.1006
      6 N          -0.3759   -0.3241    1.5810 N.am    1  UNL1       -0.2303
      7 C           0.4156   -0.4683    0.4361 C.2     1  UNL1        0.2396
      8 O           0.6645   -1.5317   -0.1096 O.2     1  UNL1       -0.2734
      9 C           1.0516    0.8666    0.1019 C.3     1  UNL1        0.0901
     10 C           2.1405    0.8360   -0.9856 C.3     1  UNL1       -0.0037
     11 C           2.6671    2.2571   -1.1431 C.ar    1  UNL1       -0.0454
     12 C           3.3364    2.8709   -0.0726 C.ar    1  UNL1       -0.0585
     13 C           3.4539    4.2581   -0.0221 C.ar    1  UNL1       -0.0615
     14 C           2.9490    5.0379   -1.0610 C.ar    1  UNL1       -0.0617
     15 C           2.3597    4.4300   -2.1683 C.ar    1  UNL1       -0.0615
     16 C           2.2219    3.0434   -2.2159 C.ar    1  UNL1       -0.0585
     17 N           0.0177    1.8547   -0.2261 N.3     1  UNL1       -0.2918
     18 C          -1.2984    1.7523    0.4512 C.3     1  UNL1        0.1029
     19 C          -2.3144    1.1764   -0.5806 C.3     1  UNL1       -0.0134
     20 C          -3.7581    1.2468   -0.0301 C.3     1  UNL1       -0.0452
     21 C          -4.1631    2.7048    0.2480 C.3     1  UNL1       -0.0401
     22 C          -4.0817    3.5285   -1.0483 C.3     1  UNL1       -0.0473
     23 C          -2.6495    3.4859   -1.5958 C.3     1  UNL1       -0.0401
     24 C          -2.2828    2.0172   -1.8880 C.3     1  UNL1       -0.0452
     25 C          -1.7160    4.0912   -0.5319 C.3     1  UNL1       -0.0452
     26 C          -1.7476    3.2260    0.7637 C.3     1  UNL1       -0.0134
     27 C          -3.1989    3.2873    1.2895 C.3     1  UNL1       -0.0452
     28 C          -1.1200    0.8525    1.7492 C.2     1  UNL1        0.2430
     29 O          -1.5258    1.1861    2.8648 O.2     1  UNL1       -0.2731
     30 H          -1.6917   -2.9288    5.2146 H       1  UNL1        0.2414
     31 H          -1.8622   -0.3027    4.2242 H       1  UNL1        0.1822
     32 H           1.1830   -1.4224    2.4648 H       1  UNL1        0.0566
     33 H           0.6051   -0.0670    3.4015 H       1  UNL1        0.0566
     34 H           1.5316    1.1891    1.0380 H       1  UNL1        0.0560
     35 H           1.7402    0.4571   -1.9347 H       1  UNL1        0.0333
     36 H           2.9589    0.1658   -0.6978 H       1  UNL1        0.0333
     37 H           3.6800    2.2810    0.7749 H       1  UNL1        0.0620
     38 H           3.9010    4.7337    0.8471 H       1  UNL1        0.0618
     39 H           3.0028    6.1216   -1.0014 H       1  UNL1        0.0618
     40 H           1.9583    5.0402   -2.9742 H       1  UNL1        0.0618
     41 H           1.6775    2.5922   -3.0429 H       1  UNL1        0.0620
     42 H           0.4292    2.7723   -0.0852 H       1  UNL1        0.1236
     43 H          -2.0826    0.1313   -0.8187 H       1  UNL1        0.0324
     44 H          -3.8469    0.6512    0.8852 H       1  UNL1        0.0271
     45 H          -4.4531    0.8105   -0.7588 H       1  UNL1        0.0271
     46 H          -5.1887    2.7414    0.6336 H       1  UNL1        0.0301
     47 H          -4.7805    3.1356   -1.7969 H       1  UNL1        0.0271
     48 H          -4.3751    4.5690   -0.8577 H       1  UNL1        0.0271
     49 H          -2.5839    4.0734   -2.5192 H       1  UNL1        0.0301
     50 H          -1.2989    1.9630   -2.3687 H       1  UNL1        0.0271
     51 H          -2.9915    1.5978   -2.6139 H       1  UNL1        0.0271
     52 H          -2.0301    5.1166   -0.2974 H       1  UNL1        0.0271
     53 H          -0.7041    4.1887   -0.9384 H       1  UNL1        0.0271
     54 H          -1.0809    3.6722    1.5127 H       1  UNL1        0.0324
     55 H          -3.2987    2.7458    2.2361 H       1  UNL1        0.0271
     56 H          -3.4678    4.3290    1.5024 H       1  UNL1        0.0271
@<TRIPOS>BOND
     1     1    30    1
     2     2     1    1
     3     2    31    1
     4     3     2   am
     5     4     3    2
     6     5     3    1
     7     5    32    1
     8     5    33    1
     9     6     5    1
    10     7     6   am
    11     8     7    2
    12     9     7    1
    13    10    35    1
    14    10    36    1
    15    11    10    1
    16    12    11   ar
    17    12    37    1
    18    13    12   ar
    19    13    38    1
    20    14    13   ar
    21    14    39    1
    22    15    14   ar
    23    15    40    1
    24    16    15   ar
    25    16    11   ar
    26    16    41    1
    27    17     9    1
    28    17    42    1
    29    18    17    1
    30    19    18    1
    31    19    43    1
    32    20    19    1
    33    20    44    1
    34    20    45    1
    35    21    20    1
    36    21    46    1
    37    22    21    1
    38    22    47    1
    39    22    48    1
    40    23    22    1
    41    23    49    1
    42    24    23    1
    43    24    19    1
    44    24    50    1
    45    24    51    1
    46    25    23    1
    47    25    52    1
    48    25    53    1
    49    26    25    1
    50    26    18    1
    51    26    54    1
    52    27    26    1
    53    27    21    1
    54    27    55    1
    55    27    56    1
    56    28    18    1
    57    28     6   am
    58    29    28    2
    59     9    10    1
    60     9    34    1
