@<TRIPOS>MOLECULE
mol_296_akc_cbdd13088
>286_2.sdf
 56 60 0 0 0
SMALL
GASTEIGER

@<TRIPOS>ATOM
      1 O           5.3702   -5.6986   -1.1735 O.3     1  UNL1       -0.2951
      2 N           5.1375   -5.0868    0.0690 N.am    1  UNL1       -0.1962
      3 C           3.8976   -4.5395    0.3131 C.2     1  UNL1        0.2533
      4 O           3.5664   -4.2621    1.4703 O.2     1  UNL1       -0.2720
      5 C           3.0156   -4.3056   -0.9022 C.3     1  UNL1        0.1006
      6 N           1.8621   -3.4677   -0.5944 N.am    1  UNL1       -0.2303
      7 C           0.6933   -4.1029   -0.2036 C.2     1  UNL1        0.2396
      8 O           0.6640   -5.2892    0.1379 O.2     1  UNL1       -0.2734
      9 C          -0.5791   -3.2502   -0.1898 C.3     1  UNL1        0.0901
     10 C          -1.7213   -4.0153   -0.9269 C.3     1  UNL1       -0.0037
     11 C          -1.3549   -4.2594   -2.3841 C.ar    1  UNL1       -0.0454
     12 C          -0.7106   -5.4474   -2.7486 C.ar    1  UNL1       -0.0585
     13 C          -0.0349   -5.5314   -3.9643 C.ar    1  UNL1       -0.0615
     14 C          -0.0141   -4.4387   -4.8300 C.ar    1  UNL1       -0.0617
     15 C          -0.7319   -3.2874   -4.5173 C.ar    1  UNL1       -0.0615
     16 C          -1.4281   -3.2105   -3.3137 C.ar    1  UNL1       -0.0585
     17 N          -0.3852   -1.9601   -0.8655 N.3     1  UNL1       -0.2918
     18 C           0.7868   -1.1662   -0.4592 C.3     1  UNL1        0.1029
     19 C           0.5873   -0.5685    0.9634 C.3     1  UNL1       -0.0134
     20 C           1.7427    0.3908    1.3256 C.3     1  UNL1       -0.0452
     21 C           1.8091    1.5661    0.3336 C.3     1  UNL1       -0.0401
     22 C           0.4846    2.3485    0.3643 C.3     1  UNL1       -0.0473
     23 C          -0.6736    1.4144   -0.0189 C.3     1  UNL1       -0.0401
     24 C          -0.7227    0.2681    1.0132 C.3     1  UNL1       -0.0452
     25 C          -0.4177    0.8794   -1.4421 C.3     1  UNL1       -0.0452
     26 C           0.8888    0.0440   -1.4634 C.3     1  UNL1       -0.0134
     27 C           2.0243    1.0275   -1.0871 C.3     1  UNL1       -0.0452
     28 C           2.0529   -2.0880   -0.6168 C.2     1  UNL1        0.2430
     29 O           3.1940   -1.6300   -0.7253 O.2     1  UNL1       -0.2731
     30 H           6.0171   -5.0894   -1.5804 H       1  UNL1        0.2414
     31 H           5.6126   -5.4797    0.8812 H       1  UNL1        0.1822
     32 H           3.6049   -3.8232   -1.6894 H       1  UNL1        0.0566
     33 H           2.6765   -5.2763   -1.2796 H       1  UNL1        0.0566
     34 H          -0.8648   -3.0927    0.8561 H       1  UNL1        0.0560
     35 H          -1.9269   -4.9715   -0.4284 H       1  UNL1        0.0333
     36 H          -2.6551   -3.4397   -0.8771 H       1  UNL1        0.0333
     37 H          -0.6553   -6.2805   -2.0491 H       1  UNL1        0.0620
     38 H           0.5185   -6.4327   -4.2109 H       1  UNL1        0.0618
     39 H           0.5715   -4.4796   -5.7435 H       1  UNL1        0.0618
     40 H          -0.7090   -2.4289   -5.1826 H       1  UNL1        0.0618
     41 H          -1.9327   -2.2815   -3.0581 H       1  UNL1        0.0620
     42 H          -1.2496   -1.4317   -0.8172 H       1  UNL1        0.1236
     43 H           0.5449   -1.3642    1.7160 H       1  UNL1        0.0324
     44 H           1.5888    0.7800    2.3403 H       1  UNL1        0.0271
     45 H           2.6974   -0.1451    1.3449 H       1  UNL1        0.0271
     46 H           2.6331    2.2346    0.6057 H       1  UNL1        0.0301
     47 H           0.3151    2.7696    1.3622 H       1  UNL1        0.0271
     48 H           0.5303    3.1937   -0.3339 H       1  UNL1        0.0271
     49 H          -1.6177    1.9704   -0.0025 H       1  UNL1        0.0301
     50 H          -0.8527    0.6868    2.0195 H       1  UNL1        0.0271
     51 H          -1.6058   -0.3572    0.8440 H       1  UNL1        0.0271
     52 H          -1.2756    0.3007   -1.7995 H       1  UNL1        0.0271
     53 H          -0.3268    1.7183   -2.1448 H       1  UNL1        0.0271
     54 H           1.0685   -0.3271   -2.4810 H       1  UNL1        0.0324
     55 H           2.0373    1.8615   -1.8011 H       1  UNL1        0.0271
     56 H           3.0124    0.5707   -1.1699 H       1  UNL1        0.0271
@<TRIPOS>BOND
     1     1    30    1
     2     2     1    1
     3     2    31    1
     4     3     2   am
     5     4     3    2
     6     5     3    1
     7     5    32    1
     8     5    33    1
     9     6     5    1
    10     7     6   am
    11     8     7    2
    12     9     7    1
    13     9    34    1
    14    10     9    1
    15    10    35    1
    16    10    36    1
    17    11    10    1
    18    12    11   ar
    19    12    37    1
    20    13    12   ar
    21    13    38    1
    22    14    13   ar
    23    14    39    1
    24    15    14   ar
    25    15    40    1
    26    16    15   ar
    27    16    11   ar
    28    16    41    1
    29    17     9    1
    30    17    42    1
    31    18    17    1
    32    19    18    1
    33    19    43    1
    34    20    19    1
    35    20    44    1
    36    20    45    1
    37    21    20    1
    38    21    46    1
    39    22    21    1
    40    22    47    1
    41    22    48    1
    42    23    22    1
    43    23    49    1
    44    24    23    1
    45    24    19    1
    46    24    50    1
    47    24    51    1
    48    25    23    1
    49    25    52    1
    50    25    53    1
    51    26    25    1
    52    26    18    1
    53    26    54    1
    54    27    26    1
    55    27    21    1
    56    27    55    1
    57    27    56    1
    58    28    18    1
    59    28     6   am
    60    29    28    2
