@<TRIPOS>MOLECULE
mol_297_akc_s00044_017_2076_6
>287.sdf
 61 63 0 0 0
SMALL
GASTEIGER

@<TRIPOS>ATOM
      1 C           1.1301    0.0303   -0.0082 C.3     1  UNL1        0.0896
      2 C           0.6145    0.4459   -1.3781 C.3     1  UNL1       -0.0186
      3 C          -0.9100    0.4262   -1.4157 C.3     1  UNL1       -0.0500
      4 C          -1.4316    0.8435   -2.7871 C.3     1  UNL1       -0.0529
      5 C          -2.9574    0.8208   -2.8172 C.3     1  UNL1       -0.0529
      6 C          -3.4836    1.2366   -4.1883 C.3     1  UNL1       -0.0473
      7 C          -5.0084    1.2126   -4.2159 C.3     1  UNL1        0.0070
      8 C          -5.5410    1.6297   -5.5806 C.3     1  UNL1        0.1520
      9 N          -7.0042    1.6043   -5.5956 N.ar    1  UNL1       -0.1876
     10 C          -7.7900    2.6429   -5.2744 C.ar    1  UNL1        0.2477
     11 N          -9.0633    2.2376   -5.3896 N.ar    1  UNL1       -0.2988
     12 C         -10.2203    3.0824   -5.1262 C.3     1  UNL1        0.0167
     13 C          -9.0916    0.9127   -5.7930 C.ar    1  UNL1        0.0729
     14 C          -7.7927    0.5152   -5.9304 C.ar    1  UNL1        0.1888
     15 O           2.5576    0.0620   -0.0384 O.3     1  UNL1       -0.4920
     16 C           3.1895   -0.3048    1.1186 C.ar    1  UNL1        0.1205
     17 C           2.5485   -0.6737    2.3010 C.ar    1  UNL1       -0.0193
     18 C           3.2882   -1.0515    3.4292 C.ar    1  UNL1       -0.0475
     19 C           4.6876   -1.0658    3.3893 C.ar    1  UNL1        0.0219
     20 C           5.3287   -0.7128    2.1927 C.ar    1  UNL1       -0.0475
     21 C           4.5840   -0.3226    1.0709 C.ar    1  UNL1       -0.0193
     22 C           5.5347   -1.4677    4.5561 C.2     1  UNL1        0.1862
     23 O           6.6382   -1.9739    4.3670 O.2     1  UNL1       -0.2873
     24 C           5.0215   -1.2161    5.9286 C.2     1  UNL1       -0.0109
     25 C           5.7488   -1.5492    7.0141 C.2     1  UNL1       -0.0157
     26 C           5.2085   -1.3453    8.3144 C.ar    1  UNL1        0.1278
     27 C           5.7697   -1.6241    9.5581 C.ar    1  UNL1       -0.0165
     28 C           4.8365   -1.2456   10.5541 C.ar    1  UNL1       -0.0233
     29 C           3.7471   -0.7600    9.8801 C.ar    1  UNL1        0.0925
     30 O           3.9564   -0.8119    8.5448 O.2     1  UNL1       -0.4635
     31 H           0.7716   -0.9853    0.2063 H       1  UNL1        0.0696
     32 H           0.9942    1.4440   -1.6262 H       1  UNL1        0.0298
     33 H           1.0218   -0.2337   -2.1369 H       1  UNL1        0.0298
     34 H          -1.2736   -0.5808   -1.1754 H       1  UNL1        0.0266
     35 H          -1.3059    1.1029   -0.6487 H       1  UNL1        0.0266
     36 H          -1.0725    1.8514   -3.0274 H       1  UNL1        0.0265
     37 H          -1.0365    0.1667   -3.5546 H       1  UNL1        0.0265
     38 H          -3.3164   -0.1869   -2.5740 H       1  UNL1        0.0265
     39 H          -3.3517    1.4980   -2.0497 H       1  UNL1        0.0265
     40 H          -3.1246    2.2439   -4.4319 H       1  UNL1        0.0267
     41 H          -3.0901    0.5579   -4.9549 H       1  UNL1        0.0267
     42 H          -5.3679    0.2057   -3.9709 H       1  UNL1        0.0326
     43 H          -5.4083    1.8834   -3.4457 H       1  UNL1        0.0326
     44 H          -5.2112    2.6439   -5.8328 H       1  UNL1        0.1031
     45 H          -5.1776    0.9567   -6.3657 H       1  UNL1        0.1031
     46 H          -7.4566    3.6299   -4.9723 H       1  UNL1        0.1600
     47 H         -10.1792    3.4256   -4.0891 H       1  UNL1        0.0457
     48 H         -10.1929    3.9400   -5.8035 H       1  UNL1        0.0457
     49 H         -11.1438    2.5201   -5.2875 H       1  UNL1        0.0457
     50 H         -10.0388    0.4202   -5.9306 H       1  UNL1        0.0871
     51 H          -7.3201   -0.4088   -6.2171 H       1  UNL1        0.1392
     52 H           1.4662   -0.6972    2.3769 H       1  UNL1        0.0654
     53 H           2.7325   -1.3541    4.3110 H       1  UNL1        0.0626
     54 H           6.4152   -0.7354    2.1267 H       1  UNL1        0.0626
     55 H           5.0990   -0.0462    0.1529 H       1  UNL1        0.0654
     56 H           4.0526   -0.7517    6.0430 H       1  UNL1        0.0657
     57 H           6.7406   -1.9817    6.9210 H       1  UNL1        0.0655
     58 H           6.7497   -2.0483    9.7264 H       1  UNL1        0.0655
     59 H           4.9471   -1.3145   11.6276 H       1  UNL1        0.0649
     60 H           2.7936   -0.3556   10.1870 H       1  UNL1        0.1029
     61 H           0.7571    0.7241    0.7557 H       1  UNL1        0.0696
@<TRIPOS>UNITY_ATOM_ATTR
9 1
charge 1
@<TRIPOS>BOND
     1     1    31    1
     2     1    61    1
     3     2     1    1
     4     2    32    1
     5     2    33    1
     6     3     2    1
     7     3    34    1
     8     3    35    1
     9     4     3    1
    10     4    36    1
    11     4    37    1
    12     5     4    1
    13     5    38    1
    14     5    39    1
    15     6     5    1
    16     6    40    1
    17     6    41    1
    18     7     6    1
    19     7    42    1
    20     7    43    1
    21     8     7    1
    22     8    44    1
    23     8    45    1
    24     9     8    1
    25    10     9   ar
    26    10    46    1
    27    11    10   ar
    28    12    11    1
    29    12    47    1
    30    12    48    1
    31    12    49    1
    32    13    11   ar
    33    13    50    1
    34    14    13   ar
    35    14     9   ar
    36    14    51    1
    37    15     1    1
    38    16    15    1
    39    17    16   ar
    40    17    52    1
    41    18    17   ar
    42    18    53    1
    43    19    18   ar
    44    20    19   ar
    45    20    54    1
    46    21    20   ar
    47    21    16   ar
    48    21    55    1
    49    22    19    1
    50    23    22    2
    51    24    22    1
    52    24    56    1
    53    25    24    2
    54    25    57    1
    55    26    25    1
    56    27    26   ar
    57    27    58    1
    58    28    27   ar
    59    28    59    1
    60    29    28   ar
    61    29    60    1
    62    30    29   ar
    63    30    26   ar
