@<TRIPOS>MOLECULE
mol_299_akc_acsjnatprod7b00876
>289.sdf
 48 49 0 0 0
SMALL
GASTEIGER

@<TRIPOS>ATOM
      1 BR         -8.4308   -2.6691    7.2069 Br      1  UNL1       -0.0425
      2 C          -7.9326   -1.0366    6.4364 C.ar    1  UNL1        0.0556
      3 C          -7.5188    0.0524    7.1562 C.ar    1  UNL1       -0.0399
      4 C          -7.2178    1.1543    6.2979 C.ar    1  UNL1       -0.0414
      5 C          -7.4213    0.8589    4.9597 C.ar    1  UNL1        0.0749
      6 S          -7.9580   -0.7654    4.7672 S.2     1  UNL1       -0.0769
      7 C          -7.2509    1.7495    3.8204 C.2     1  UNL1        0.2507
      8 O          -6.9506    2.9380    3.9197 O.2     1  UNL1       -0.2696
      9 N          -7.4646    1.1657    2.5831 N.am    1  UNL1       -0.3109
     10 C          -7.1688    1.8645    1.3557 C.3     1  UNL1        0.0121
     11 C          -7.5958    1.0458    0.1368 C.3     1  UNL1       -0.0326
     12 C          -9.0738    0.6212    0.1411 C.3     1  UNL1       -0.0112
     13 C         -10.0083    1.8175    0.1788 C.3     1  UNL1       -0.0336
     14 N         -11.4257    1.3477    0.1884 N.4     1  UNL1        0.2270
     15 C         -12.3996    2.4850    0.2117 C.3     1  UNL1       -0.0322
     16 C         -13.8108    1.9363    0.2206 C.3     1  UNL1        0.0030
     17 C         -14.8209    3.0809    0.3068 C.3     1  UNL1        0.0167
     18 N         -16.1804    2.6060    0.3195 N.am    1  UNL1       -0.3107
     19 C         -16.7087    1.8933    1.3780 C.2     1  UNL1        0.2507
     20 O         -15.9951    1.5507    2.3227 O.2     1  UNL1       -0.2696
     21 C         -18.1210    1.5651    1.2843 C.ar    1  UNL1        0.0749
     22 C         -18.8603    0.8071    2.1762 C.ar    1  UNL1       -0.0414
     23 C         -20.2237    0.6664    1.7785 C.ar    1  UNL1       -0.0399
     24 C         -20.4652    1.3273    0.6023 C.ar    1  UNL1        0.0556
     25 BR        -22.1372    1.3744   -0.2386 Br      1  UNL1       -0.0425
     26 S         -19.0975    2.1009   -0.0242 S.2     1  UNL1       -0.0769
     27 H          -7.4346    0.0747    8.2367 H       1  UNL1        0.0634
     28 H          -6.8740    2.1235    6.6435 H       1  UNL1        0.0631
     29 H          -7.4435    0.1499    2.5880 H       1  UNL1        0.1490
     30 H          -7.6739    2.8377    1.3772 H       1  UNL1        0.0462
     31 H          -6.0927    2.0641    1.3237 H       1  UNL1        0.0462
     32 H          -7.3861    1.6230   -0.7717 H       1  UNL1        0.0282
     33 H          -6.9800    0.1393    0.0854 H       1  UNL1        0.0282
     34 H          -9.2657    0.0260   -0.7593 H       1  UNL1        0.0317
     35 H          -9.2702   -0.0403    0.9943 H       1  UNL1        0.0317
     36 H          -9.8744    2.4187    1.0822 H       1  UNL1        0.0814
     37 H          -9.8798    2.4433   -0.7100 H       1  UNL1        0.0814
     38 H         -11.6059    0.7492   -0.6287 H       1  UNL1        0.2013
     39 H         -11.5855    0.7529    1.0157 H       1  UNL1        0.2013
     40 H         -12.1899    3.0718    1.1118 H       1  UNL1        0.0814
     41 H         -12.2125    3.0911   -0.6807 H       1  UNL1        0.0814
     42 H         -13.9980    1.3423   -0.6824 H       1  UNL1        0.0332
     43 H         -13.9247    1.2523    1.0691 H       1  UNL1        0.0332
     44 H         -14.6568    3.6752    1.2133 H       1  UNL1        0.0464
     45 H         -14.7171    3.7424   -0.5595 H       1  UNL1        0.0464
     46 H         -16.8446    2.9672   -0.3629 H       1  UNL1        0.1490
     47 H         -18.4356    0.3702    3.0739 H       1  UNL1        0.0631
     48 H         -20.9721    0.1119    2.3328 H       1  UNL1        0.0634
@<TRIPOS>UNITY_ATOM_ATTR
14 1
charge 1
@<TRIPOS>BOND
     1     2     1    1
     2     3     2   ar
     3     3    27    1
     4     4     3   ar
     5     4    28    1
     6     5     4   ar
     7     6     5   ar
     8     6     2   ar
     9     7     5    1
    10     8     7    2
    11     9     7   am
    12     9    29    1
    13    10     9    1
    14    10    30    1
    15    10    31    1
    16    11    10    1
    17    11    32    1
    18    11    33    1
    19    12    11    1
    20    12    34    1
    21    12    35    1
    22    13    12    1
    23    13    36    1
    24    13    37    1
    25    14    13    1
    26    14    38    1
    27    14    39    1
    28    15    14    1
    29    15    40    1
    30    15    41    1
    31    16    15    1
    32    16    42    1
    33    16    43    1
    34    17    16    1
    35    17    44    1
    36    17    45    1
    37    18    17    1
    38    18    46    1
    39    19    18   am
    40    20    19    2
    41    21    19    1
    42    22    21   ar
    43    22    47    1
    44    23    22   ar
    45    23    48    1
    46    24    23   ar
    47    25    24    1
    48    26    24   ar
    49    26    21   ar
