@<TRIPOS>MOLECULE
mol_2_akc_1573406414666180226163222
>2.sdf
 42 46 0 0 0
SMALL
GASTEIGER

@<TRIPOS>ATOM
      1 C           0.9938    0.2011   -0.0328 C.3     1  UNL1       -0.0396
      2 C           2.4904    0.1015   -0.0540 C.ar    1  UNL1       -0.0484
      3 C           3.2750    1.2601   -0.0660 C.ar    1  UNL1       -0.0328
      4 C           4.6642    1.2235   -0.0698 C.ar    1  UNL1        0.0725
      5 N           5.2962    2.4039   -0.0964 N.ar    1  UNL1       -0.2459
      6 C           6.6452    2.4296   -0.0900 C.ar    1  UNL1        0.0839
      7 C           7.4032    1.2578   -0.0165 C.ar    1  UNL1        0.0598
      8 C           8.8585    1.4747    0.0858 C.2     1  UNL1        0.2356
      9 O           9.6010    0.8442    0.8156 O.2     1  UNL1       -0.2831
     10 C           9.4001    2.6606   -0.7017 C.2     1  UNL1        0.2336
     11 O          10.3859    2.5647   -1.4006 O.2     1  UNL1       -0.2832
     12 C           8.6250    3.8961   -0.5342 C.ar    1  UNL1        0.0347
     13 C           7.2705    3.7701   -0.1816 C.ar    1  UNL1        0.0120
     14 C           6.5625    4.9606    0.0462 C.ar    1  UNL1       -0.0519
     15 C           7.1887    6.2097   -0.0720 C.ar    1  UNL1       -0.0611
     16 C           8.5289    6.2963   -0.4481 C.ar    1  UNL1       -0.0610
     17 C           9.2532    5.1353   -0.6924 C.ar    1  UNL1       -0.0502
     18 C           6.7777   -0.0132    0.0123 C.ar    1  UNL1        0.0043
     19 C           7.5786   -1.2769    0.1146 C.ar    1  UNL1       -0.0164
     20 C           7.2483   -2.2860    1.0421 C.ar    1  UNL1       -0.0529
     21 C           8.0039   -3.4600    1.1611 C.ar    1  UNL1       -0.0472
     22 C           9.1586   -3.6159    0.4052 C.ar    1  UNL1        0.0179
     23 BR         10.2308   -5.1556    0.6266 Br      1  UNL1       -0.0503
     24 C           9.5323   -2.6331   -0.5018 C.ar    1  UNL1       -0.0472
     25 C           8.7272   -1.4983   -0.6721 C.ar    1  UNL1       -0.0529
     26 C           5.3394   -0.0230   -0.0505 C.ar    1  UNL1        0.0088
     27 C           4.5262   -1.1879   -0.1047 C.ar    1  UNL1       -0.0517
     28 C           3.1306   -1.1293   -0.0838 C.ar    1  UNL1       -0.0581
     29 H           0.6632    0.7559    0.8510 H       1  UNL1        0.0278
     30 H           0.6361    0.7102   -0.9326 H       1  UNL1        0.0278
     31 H           0.5273   -0.7892    0.0024 H       1  UNL1        0.0278
     32 H           2.7844    2.2328   -0.0706 H       1  UNL1        0.0642
     33 H           5.5101    4.9268    0.3278 H       1  UNL1        0.0624
     34 H           6.6238    7.1173    0.1285 H       1  UNL1        0.0618
     35 H           9.0088    7.2689   -0.5412 H       1  UNL1        0.0618
     36 H          10.3026    5.1926   -0.9782 H       1  UNL1        0.0625
     37 H           6.3887   -2.1728    1.6999 H       1  UNL1        0.0624
     38 H           7.6931   -4.2295    1.8628 H       1  UNL1        0.0629
     39 H          10.4550   -2.7229   -1.0698 H       1  UNL1        0.0629
     40 H           9.0592   -0.7605   -1.4002 H       1  UNL1        0.0624
     41 H           4.9708   -2.1778   -0.1682 H       1  UNL1        0.0624
     42 H           2.5575   -2.0539   -0.0925 H       1  UNL1        0.0620
@<TRIPOS>BOND
     1     1    29    1
     2     1    30    1
     3     1    31    1
     4     2     1    1
     5     3     2   ar
     6     3    32    1
     7     4     3   ar
     8     5     4   ar
     9     6     5   ar
    10     7     6   ar
    11     8     7    1
    12     9     8    2
    13    10     8    1
    14    11    10    2
    15    12    10    1
    16    13    12   ar
    17    13     6    1
    18    14    13   ar
    19    14    33    1
    20    15    14   ar
    21    15    34    1
    22    16    15   ar
    23    16    35    1
    24    17    16   ar
    25    17    12   ar
    26    17    36    1
    27    18     7   ar
    28    19    18    1
    29    20    19   ar
    30    20    37    1
    31    21    20   ar
    32    21    38    1
    33    22    21   ar
    34    23    22    1
    35    24    22   ar
    36    24    39    1
    37    25    24   ar
    38    25    19   ar
    39    25    40    1
    40    26    18   ar
    41    26     4   ar
    42    27    26   ar
    43    27    41    1
    44    28    27   ar
    45    28     2   ar
    46    28    42    1
