@<TRIPOS>MOLECULE
mol_300_akc_1568026618666181002110116
>290.sdf
 60 64 0 0 0
SMALL
GASTEIGER

@<TRIPOS>ATOM
      1 C           4.6940    1.3528    7.7500 C.3     1  UNL1       -0.0653
      2 C           4.2812    0.4068    6.6338 C.3     1  UNL1       -0.0559
      3 C           4.8764    0.8394    5.2918 C.3     1  UNL1       -0.0517
      4 C           4.4988   -0.1417    4.1794 C.3     1  UNL1       -0.0350
      5 C           5.1223    0.2008    2.8170 C.3     1  UNL1        0.0233
      6 N           6.6019    0.2823    2.8469 N.ar    1  UNL1       -0.3456
      7 C           7.2518    1.4943    2.6028 C.ar    1  UNL1        0.0228
      8 C           8.5804    1.7060    2.6168 C.ar    1  UNL1        0.1222
      9 C           9.1865    2.9923    2.2205 C.2     1  UNL1        0.3444
     10 O          10.3479    3.1035    1.8180 O.2     1  UNL1       -0.2448
     11 O           8.3225    4.0462    2.3176 O.3     1  UNL1       -0.4613
     12 C           8.9203    5.2910    1.9390 C.3     1  UNL1        0.0900
     13 C           7.8979    6.4024    2.0476 C.3     1  UNL1       -0.0306
     14 C           9.4307    0.5531    2.9905 C.ar    1  UNL1        0.2034
     15 O          10.6149    0.6659    3.2684 O.2     1  UNL1       -0.2863
     16 C           8.8026   -0.7919    3.0419 C.ar    1  UNL1        0.0480
     17 C           7.3922   -0.8915    2.9461 C.ar    1  UNL1        0.0529
     18 C           6.8684   -2.1879    2.9400 C.ar    1  UNL1       -0.0355
     19 C           7.7016   -3.3175    3.0107 C.ar    1  UNL1       -0.0342
     20 C           9.0990   -3.1956    3.1226 C.ar    1  UNL1        0.0686
     21 C           9.6514   -1.9217    3.1681 C.ar    1  UNL1       -0.0234
     22 N           9.8974   -4.3917    3.3087 N.ar    1  UNL1       -0.2084
     23 N           9.3869   -5.5863    2.8645 N.ar    1  UNL1       -0.0594
     24 N           8.9910   -6.2405    3.9549 N.ar    1  UNL1       -0.1251
     25 C           9.5278   -5.5606    5.0043 C.ar    1  UNL1        0.1639
     26 C          10.5262   -4.7060    4.5358 C.ar    1  UNL1        0.1455
     27 C          11.2460   -3.8549    5.4344 C.2     1  UNL1        0.2143
     28 O          12.4510   -3.6502    5.4181 O.2     1  UNL1       -0.2849
     29 C          10.3474   -3.2219    6.4385 C.ar    1  UNL1        0.0347
     30 C           9.0780   -3.7989    6.6464 C.ar    1  UNL1        0.0348
     31 C           8.0129   -2.9664    6.9805 C.ar    1  UNL1       -0.0502
     32 C           8.2536   -1.6054    7.2013 C.ar    1  UNL1       -0.0610
     33 C           9.5585   -1.0960    7.1859 C.ar    1  UNL1       -0.0610
     34 C          10.6223   -1.9090    6.8148 C.ar    1  UNL1       -0.0502
     35 C           8.8198   -5.2210    6.2287 C.2     1  UNL1        0.2159
     36 O           7.9784   -5.9114    6.7791 O.2     1  UNL1       -0.2849
     37 H           4.2706    1.0233    8.7039 H       1  UNL1        0.0230
     38 H           5.7834    1.3819    7.8546 H       1  UNL1        0.0230
     39 H           4.3401    2.3694    7.5525 H       1  UNL1        0.0230
     40 H           4.6200   -0.6060    6.8817 H       1  UNL1        0.0263
     41 H           3.1876    0.3760    6.5690 H       1  UNL1        0.0263
     42 H           4.5193    1.8435    5.0344 H       1  UNL1        0.0266
     43 H           5.9661    0.8946    5.3905 H       1  UNL1        0.0266
     44 H           4.7745   -1.1550    4.4858 H       1  UNL1        0.0282
     45 H           3.4091   -0.1436    4.0641 H       1  UNL1        0.0282
     46 H           4.7940   -0.5195    2.0584 H       1  UNL1        0.0492
     47 H           4.7027    1.1611    2.4932 H       1  UNL1        0.0492
     48 H           6.5696    2.3000    2.3519 H       1  UNL1        0.0818
     49 H           9.7651    5.5095    2.6036 H       1  UNL1        0.0695
     50 H           9.2787    5.2321    0.9043 H       1  UNL1        0.0695
     51 H           7.0486    6.2130    1.3827 H       1  UNL1        0.0262
     52 H           7.5030    6.4676    3.0666 H       1  UNL1        0.0262
     53 H           8.3433    7.3655    1.7804 H       1  UNL1        0.0262
     54 H           5.7996   -2.3693    2.8690 H       1  UNL1        0.0639
     55 H           7.2216   -4.2975    3.0247 H       1  UNL1        0.0639
     56 H          10.7257   -1.7734    3.2588 H       1  UNL1        0.0646
     57 H           6.9933   -3.3457    6.9657 H       1  UNL1        0.0625
     58 H           7.4183   -0.9276    7.3621 H       1  UNL1        0.0618
     59 H           9.7365   -0.0407    7.3843 H       1  UNL1        0.0618
     60 H          11.6224   -1.4939    6.6980 H       1  UNL1        0.0625
@<TRIPOS>BOND
     1     1    37    1
     2     1    38    1
     3     1    39    1
     4     2     1    1
     5     2    40    1
     6     2    41    1
     7     3     2    1
     8     3    42    1
     9     3    43    1
    10     4     3    1
    11     4    44    1
    12     4    45    1
    13     5     4    1
    14     5    46    1
    15     5    47    1
    16     6     5    1
    17     7     6   ar
    18     7    48    1
    19     8     7   ar
    20     9     8    1
    21    10     9    2
    22    11     9    1
    23    12    11    1
    24    12    49    1
    25    12    50    1
    26    13    12    1
    27    13    51    1
    28    13    52    1
    29    13    53    1
    30    14     8   ar
    31    15    14    2
    32    16    14   ar
    33    17    16   ar
    34    17     6   ar
    35    18    17   ar
    36    18    54    1
    37    19    18   ar
    38    19    55    1
    39    20    19   ar
    40    21    20   ar
    41    21    16   ar
    42    21    56    1
    43    22    20    1
    44    23    22   ar
    45    24    23   ar
    46    25    24   ar
    47    26    25   ar
    48    26    22   ar
    49    27    26    1
    50    28    27    2
    51    29    27    1
    52    30    29   ar
    53    31    30   ar
    54    31    57    1
    55    32    31   ar
    56    32    58    1
    57    33    32   ar
    58    33    59    1
    59    34    33   ar
    60    34    29   ar
    61    34    60    1
    62    35    30    1
    63    35    25    1
    64    36    35    2
