@<TRIPOS>MOLECULE
mol_301_akc_0103_505320180134
>291.sdf
 51 55 0 0 0
SMALL
GASTEIGER

@<TRIPOS>ATOM
      1 O           1.0106   -0.3547   -0.0986 O.2     1  UNL1       -0.2667
      2 C           2.2127   -0.1424   -0.0105 C.2     1  UNL1        0.2840
      3 N           2.8682    1.0259   -0.3947 N.am    1  UNL1       -0.2016
      4 N           2.1289    2.0971   -0.8155 N.2     1  UNL1       -0.1874
      5 C           2.7657    3.2149   -0.9700 C.2     1  UNL1        0.0528
      6 C           2.0908    4.4445   -1.4419 C.ar    1  UNL1       -0.0055
      7 C           0.7309    4.4408   -1.7661 C.ar    1  UNL1       -0.0531
      8 C           0.1240    5.6096   -2.2349 C.ar    1  UNL1       -0.0612
      9 C           0.8723    6.7778   -2.3756 C.ar    1  UNL1       -0.0617
     10 C           2.2284    6.7849   -2.0437 C.ar    1  UNL1       -0.0612
     11 C           2.8396    5.6187   -1.5754 C.ar    1  UNL1       -0.0531
     12 C           3.1052   -1.2129    0.6269 C.ar    1  UNL1        0.1586
     13 N           2.8401   -2.4682    0.3736 N.ar    1  UNL1       -0.1578
     14 N           3.5402   -3.5096    1.0279 N.ar    1  UNL1       -0.1943
     15 C           2.9762   -4.8210    0.8135 C.ar    1  UNL1        0.0693
     16 C           3.2386   -5.9074    1.6684 C.ar    1  UNL1       -0.0361
     17 C           2.6826   -7.1713    1.4516 C.ar    1  UNL1       -0.0598
     18 C           1.8431   -7.3809    0.3665 C.ar    1  UNL1       -0.0616
     19 C           1.5553   -6.3245   -0.4917 C.ar    1  UNL1       -0.0598
     20 C           2.1091   -5.0570   -0.2661 C.ar    1  UNL1       -0.0361
     21 C           4.6389   -3.2858    1.8981 C.ar    1  UNL1        0.2981
     22 O           5.2532   -4.1669    2.4881 O.2     1  UNL1       -0.2635
     23 C           4.9676   -1.8971    2.0528 C.ar    1  UNL1        0.1429
     24 C           4.1893   -0.8940    1.5245 C.ar    1  UNL1        0.0577
     25 C           4.6668    0.2767    2.1194 C.ar    1  UNL1        0.0600
     26 N           5.7151    0.0480    2.9106 N.ar    1  UNL1       -0.1734
     27 N           5.9582   -1.2955    2.8030 N.ar    1  UNL1       -0.2267
     28 C           7.1113   -1.8516    3.4256 C.ar    1  UNL1        0.0662
     29 C           7.6428   -1.2300    4.5634 C.ar    1  UNL1       -0.0362
     30 C           8.7145   -1.8127    5.2456 C.ar    1  UNL1       -0.0598
     31 C           9.2804   -2.9986    4.7808 C.ar    1  UNL1       -0.0616
     32 C           8.7988   -3.5874    3.6161 C.ar    1  UNL1       -0.0598
     33 C           7.7284   -3.0074    2.9290 C.ar    1  UNL1       -0.0362
     34 H           3.8758    1.1173   -0.3441 H       1  UNL1        0.1776
     35 H           3.8444    3.2998   -0.7495 H       1  UNL1        0.0851
     36 H           0.1379    3.5353   -1.6596 H       1  UNL1        0.0624
     37 H          -0.9321    5.6048   -2.4913 H       1  UNL1        0.0618
     38 H           0.3995    7.6844   -2.7440 H       1  UNL1        0.0618
     39 H           2.8068    7.6991   -2.1536 H       1  UNL1        0.0618
     40 H           3.8958    5.6423   -1.3223 H       1  UNL1        0.0624
     41 H           3.8519   -5.8077    2.5587 H       1  UNL1        0.0639
     42 H           2.9034   -7.9824    2.1397 H       1  UNL1        0.0618
     43 H           1.4081   -8.3630    0.1969 H       1  UNL1        0.0618
     44 H           0.8950   -6.4820   -1.3413 H       1  UNL1        0.0618
     45 H           1.8628   -4.2590   -0.9627 H       1  UNL1        0.0639
     46 H           4.2997    1.2927    2.0416 H       1  UNL1        0.0855
     47 H           7.2018   -0.3170    4.9592 H       1  UNL1        0.0639
     48 H           9.0967   -1.3496    6.1517 H       1  UNL1        0.0618
     49 H          10.0988   -3.4642    5.3240 H       1  UNL1        0.0618
     50 H           9.2447   -4.5048    3.2408 H       1  UNL1        0.0618
     51 H           7.4093   -3.4803    2.0077 H       1  UNL1        0.0639
@<TRIPOS>BOND
     1     2     1    2
     2     3     2   am
     3     3    34    1
     4     4     3    1
     5     5     4    2
     6     5    35    1
     7     6     5    1
     8     7     6   ar
     9     7    36    1
    10     8     7   ar
    11     8    37    1
    12     9     8   ar
    13     9    38    1
    14    10     9   ar
    15    10    39    1
    16    11    10   ar
    17    11     6   ar
    18    11    40    1
    19    12     2    1
    20    13    12   ar
    21    14    13   ar
    22    15    14    1
    23    16    15   ar
    24    16    41    1
    25    17    16   ar
    26    17    42    1
    27    18    17   ar
    28    18    43    1
    29    19    18   ar
    30    19    44    1
    31    20    19   ar
    32    20    15   ar
    33    20    45    1
    34    21    14   ar
    35    22    21    2
    36    23    21   ar
    37    24    23   ar
    38    24    12   ar
    39    25    24   ar
    40    25    46    1
    41    26    25   ar
    42    27    26   ar
    43    27    23   ar
    44    28    27    1
    45    29    28   ar
    46    29    47    1
    47    30    29   ar
    48    30    48    1
    49    31    30   ar
    50    31    49    1
    51    32    31   ar
    52    32    50    1
    53    33    32   ar
    54    33    28   ar
    55    33    51    1
