@<TRIPOS>MOLECULE
mol_302_akc_1573406414666180226163222
>292.sdf
 44 48 0 0 0
SMALL
GASTEIGER

@<TRIPOS>ATOM
      1 C           0.9131    0.0237    0.0373 C.3     1  UNL1       -0.0396
      2 C           2.4106   -0.0553    0.0423 C.ar    1  UNL1       -0.0484
      3 C           3.1958    1.1052    0.0064 C.ar    1  UNL1       -0.0328
      4 C           4.5892    1.0742   -0.0019 C.ar    1  UNL1        0.0725
      5 N           5.2267    2.2544   -0.0485 N.ar    1  UNL1       -0.2459
      6 C           6.5774    2.2788   -0.0618 C.ar    1  UNL1        0.0839
      7 C           7.3283    1.1076    0.0078 C.ar    1  UNL1        0.0598
      8 C           8.7893    1.3340    0.0783 C.2     1  UNL1        0.2356
      9 O           9.5433    0.7199    0.8114 O.2     1  UNL1       -0.2831
     10 C           9.3202    2.5049   -0.7257 C.2     1  UNL1        0.2336
     11 O          10.2885    2.4006   -1.4549 O.2     1  UNL1       -0.2832
     12 C           8.5608    3.7449   -0.5278 C.ar    1  UNL1        0.0347
     13 C           7.2093    3.6199   -0.1557 C.ar    1  UNL1        0.0120
     14 C           6.5164    4.8116    0.1072 C.ar    1  UNL1       -0.0519
     15 C           7.1565    6.0568    0.0162 C.ar    1  UNL1       -0.0611
     16 C           8.4957    6.1405   -0.3655 C.ar    1  UNL1       -0.0610
     17 C           9.2033    4.9806   -0.6561 C.ar    1  UNL1       -0.0502
     18 C           6.7069   -0.1665    0.0627 C.ar    1  UNL1        0.0043
     19 C           7.5073   -1.4376    0.1732 C.ar    1  UNL1       -0.0164
     20 C           7.1305   -2.4806    1.0457 C.ar    1  UNL1       -0.0518
     21 C           7.8899   -3.6484    1.1917 C.ar    1  UNL1       -0.0309
     22 C           9.1209   -3.7478    0.5453 C.ar    1  UNL1        0.1262
     23 C           9.5374   -2.7385   -0.3213 C.ar    1  UNL1       -0.0309
     24 C           8.7072   -1.6304   -0.5433 C.ar    1  UNL1       -0.0518
     25 N           9.9940   -4.8949    0.8137 N.pl3   1  UNL1        0.0564
     26 O           9.5577   -5.7886    1.5542 O.2     1  UNL1       -0.1261
     27 O          11.1165   -4.9027    0.2894 O.2     1  UNL1       -0.1261
     28 C           5.2642   -0.1725    0.0253 C.ar    1  UNL1        0.0088
     29 C           4.4456   -1.3358    0.0030 C.ar    1  UNL1       -0.0517
     30 C           3.0524   -1.2829    0.0461 C.ar    1  UNL1       -0.0581
     31 H           0.5539    0.5710    0.9140 H       1  UNL1        0.0278
     32 H           0.5663    0.5228   -0.8729 H       1  UNL1        0.0278
     33 H           0.4616   -0.9745    0.0595 H       1  UNL1        0.0278
     34 H           2.7020    2.0758   -0.0209 H       1  UNL1        0.0642
     35 H           5.4678    4.7825    0.4013 H       1  UNL1        0.0624
     36 H           6.6049    6.9656    0.2484 H       1  UNL1        0.0618
     37 H           8.9887    7.1091   -0.4254 H       1  UNL1        0.0618
     38 H          10.2510    5.0337   -0.9445 H       1  UNL1        0.0625
     39 H           6.2306   -2.4025    1.6537 H       1  UNL1        0.0624
     40 H           7.5240   -4.4410    1.8412 H       1  UNL1        0.0640
     41 H          10.5089   -2.7741   -0.8109 H       1  UNL1        0.0640
     42 H           9.0733   -0.8791   -1.2413 H       1  UNL1        0.0624
     43 H           4.8778   -2.3301   -0.0608 H       1  UNL1        0.0624
     44 H           2.4834   -2.2103    0.0683 H       1  UNL1        0.0620
@<TRIPOS>BOND
     1     1    31    1
     2     1    32    1
     3     1    33    1
     4     2     1    1
     5     3     2   ar
     6     3    34    1
     7     4     3   ar
     8     5     4   ar
     9     6     5   ar
    10     7     6   ar
    11     8     7    1
    12     9     8    2
    13    10     8    1
    14    11    10    2
    15    12    10    1
    16    13    12   ar
    17    13     6    1
    18    14    13   ar
    19    14    35    1
    20    15    14   ar
    21    15    36    1
    22    16    15   ar
    23    16    37    1
    24    17    16   ar
    25    17    12   ar
    26    17    38    1
    27    18     7   ar
    28    19    18    1
    29    20    19   ar
    30    20    39    1
    31    21    20   ar
    32    21    40    1
    33    22    21   ar
    34    23    22   ar
    35    23    41    1
    36    24    23   ar
    37    24    19   ar
    38    24    42    1
    39    25    22    1
    40    26    25    2
    41    27    25    2
    42    28    18   ar
    43    28     4   ar
    44    29    28   ar
    45    29    43    1
    46    30    29   ar
    47    30     2   ar
    48    30    44    1
