@<TRIPOS>MOLECULE
mol_303_akc_1568026618666180516125056
>293.sdf
 56 56 0 0 0
SMALL
GASTEIGER

@<TRIPOS>ATOM
      1 O           1.0024    0.1228   -0.0749 O.3     1  UNL1       -0.4806
      2 C           2.3446    0.0312    0.0364 C.2     1  UNL1        0.3047
      3 O           2.8793   -0.6629    0.8799 O.2     1  UNL1       -0.2510
      4 C           3.0724    0.8761   -0.9894 C.3     1  UNL1        0.0448
      5 C           4.5861    0.7394   -0.8240 C.3     1  UNL1       -0.0421
      6 C           5.3654    1.5748   -1.8359 C.3     1  UNL1       -0.0417
      7 C           6.8713    1.4020   -1.6298 C.3     1  UNL1        0.0091
      8 C           7.6312    2.2417   -2.6436 C.1     1  UNL1       -0.1022
      9 C           8.2831    2.9620   -3.5133 C.1     1  UNL1       -0.1022
     10 C           9.0431    3.8017   -4.5270 C.3     1  UNL1        0.0091
     11 C          10.5021    3.8695   -4.1291 C.3     1  UNL1       -0.0422
     12 C          11.2677    4.7063   -5.1366 C.3     1  UNL1       -0.0522
     13 C          12.7321    4.7821   -4.7462 C.3     1  UNL1       -0.0530
     14 C          13.4905    5.6226   -5.7578 C.3     1  UNL1       -0.0531
     15 C          14.9570    5.7016   -5.3755 C.3     1  UNL1       -0.0530
     16 C          15.7167    6.5429   -6.3887 C.3     1  UNL1       -0.0528
     17 C          17.1856    6.6137   -5.9998 C.3     1  UNL1       -0.0491
     18 C          17.9676    7.4565   -6.9967 C.3     1  UNL1       -0.0277
     19 C          19.4229    7.5340   -6.6246 C.ar    1  UNL1       -0.0474
     20 C          20.3224    6.5658   -7.0876 C.ar    1  UNL1       -0.0586
     21 C          21.6820    6.6771   -6.8015 C.ar    1  UNL1       -0.0615
     22 C          22.1512    7.7556   -6.0533 C.ar    1  UNL1       -0.0617
     23 C          21.2578    8.7033   -5.5578 C.ar    1  UNL1       -0.0615
     24 C          19.8943    8.5814   -5.8236 C.ar    1  UNL1       -0.0586
     25 H           2.7742    0.5440   -1.9903 H       1  UNL1        0.0377
     26 H           2.7746    1.9222   -0.8548 H       1  UNL1        0.0377
     27 H           4.8699    1.0428    0.1911 H       1  UNL1        0.0271
     28 H           4.8698   -0.3149   -0.9295 H       1  UNL1        0.0271
     29 H           5.0924    1.2765   -2.8562 H       1  UNL1        0.0274
     30 H           5.0946    2.6335   -1.7340 H       1  UNL1        0.0274
     31 H           7.1605    1.7165   -0.6209 H       1  UNL1        0.0397
     32 H           7.1587    0.3518   -1.7526 H       1  UNL1        0.0397
     33 H           8.9270    3.3483   -5.5179 H       1  UNL1        0.0397
     34 H           8.5981    4.8026   -4.5597 H       1  UNL1        0.0397
     35 H          10.5993    4.3043   -3.1260 H       1  UNL1        0.0274
     36 H          10.9264    2.8585   -4.0785 H       1  UNL1        0.0274
     37 H          11.1706    4.2665   -6.1369 H       1  UNL1        0.0266
     38 H          10.8411    5.7160   -5.1838 H       1  UNL1        0.0266
     39 H          12.8301    5.2208   -3.7455 H       1  UNL1        0.0265
     40 H          13.1594    3.7728   -4.7016 H       1  UNL1        0.0265
     41 H          13.3892    5.1830   -6.7577 H       1  UNL1        0.0265
     42 H          13.0614    6.6312   -5.8012 H       1  UNL1        0.0265
     43 H          15.0584    6.1385   -4.3743 H       1  UNL1        0.0265
     44 H          15.3842    4.6920   -5.3322 H       1  UNL1        0.0265
     45 H          15.6143    6.1022   -7.3881 H       1  UNL1        0.0265
     46 H          15.2877    7.5517   -6.4325 H       1  UNL1        0.0265
     47 H          17.2789    7.0424   -4.9944 H       1  UNL1        0.0268
     48 H          17.5970    5.5978   -5.9531 H       1  UNL1        0.0268
     49 H          17.8735    7.0453   -8.0098 H       1  UNL1        0.0313
     50 H          17.5463    8.4686   -7.0435 H       1  UNL1        0.0313
     51 H          19.9699    5.7312   -7.6898 H       1  UNL1        0.0620
     52 H          22.3776    5.9333   -7.1801 H       1  UNL1        0.0618
     53 H          23.2148    7.8604   -5.8596 H       1  UNL1        0.0618
     54 H          21.6217    9.5481   -4.9805 H       1  UNL1        0.0618
     55 H          19.2051    9.3209   -5.4217 H       1  UNL1        0.0620
     56 H           0.6972    0.7116   -0.7905 H       1  UNL1        0.2951
@<TRIPOS>BOND
     1     2     1    1
     2     3     2    2
     3     4     2    1
     4     4    25    1
     5     4    26    1
     6     5     4    1
     7     5    27    1
     8     5    28    1
     9     6     5    1
    10     6    29    1
    11     6    30    1
    12     7     6    1
    13     7    31    1
    14     7    32    1
    15     8     7    1
    16     9     8    3
    17    10     9    1
    18    10    33    1
    19    10    34    1
    20    11    10    1
    21    11    35    1
    22    11    36    1
    23    12    11    1
    24    12    37    1
    25    12    38    1
    26    13    12    1
    27    13    39    1
    28    13    40    1
    29    14    13    1
    30    14    41    1
    31    14    42    1
    32    15    14    1
    33    15    43    1
    34    15    44    1
    35    16    15    1
    36    16    45    1
    37    16    46    1
    38    17    16    1
    39    17    47    1
    40    17    48    1
    41    18    17    1
    42    18    49    1
    43    18    50    1
    44    19    18    1
    45    20    19   ar
    46    20    51    1
    47    21    20   ar
    48    21    52    1
    49    22    21   ar
    50    22    53    1
    51    23    22   ar
    52    23    54    1
    53    24    23   ar
    54    24    19   ar
    55    24    55    1
    56     1    56    1
