@<TRIPOS>MOLECULE
mol_304_akc_molecules23010070
>294.sdf
 45 48 0 0 0
SMALL
GASTEIGER

@<TRIPOS>ATOM
      1 N          -1.0405    1.5081   -0.3416 N.am    1  UNL1       -0.2680
      2 C           0.1893    1.0942   -0.8594 C.2     1  UNL1        0.3234
      3 O           0.4350   -0.0010   -1.3389 O.2     1  UNL1       -0.2507
      4 N           1.1237    2.1166   -0.6412 N.am    1  UNL1       -0.1903
      5 N           2.4846    2.0254   -0.7668 N.2     1  UNL1       -0.1830
      6 C           3.1933    1.0700   -0.2247 C.2     1  UNL1        0.0689
      7 C           2.6114   -0.0940    0.5582 C.3     1  UNL1        0.0079
      8 C           3.4643   -0.6315    1.6992 C.3     1  UNL1        0.0403
      9 S           5.0727   -1.2231    1.0942 S.3     1  UNL1       -0.1161
     10 C           2.3654   -2.9389    1.7609 C.ar    1  UNL1       -0.0575
     11 C           2.7194   -1.7473    2.4239 C.ar    1  UNL1       -0.0338
     12 C           2.3239   -1.5835    3.7567 C.ar    1  UNL1       -0.0575
     13 C           1.5855   -2.5809    4.4072 C.ar    1  UNL1       -0.0615
     14 C           1.2411   -3.7504    3.7339 C.ar    1  UNL1       -0.0617
     15 C           1.6332   -3.9315    2.4107 C.ar    1  UNL1       -0.0615
     16 C           5.5714    0.2029    0.1610 C.ar    1  UNL1        0.0174
     17 C           6.9573    0.3577   -0.0225 C.ar    1  UNL1       -0.0477
     18 C           7.4734    1.4397   -0.7330 C.ar    1  UNL1       -0.0607
     19 C           6.6072    2.3760   -1.2801 C.ar    1  UNL1       -0.0611
     20 C           5.2280    2.2293   -1.1115 C.ar    1  UNL1       -0.0518
     21 C           4.6917    1.1454   -0.3896 C.ar    1  UNL1        0.0112
     22 C          -2.1706    0.6910   -0.1285 C.ar    1  UNL1        0.0377
     23 C          -3.5164   -1.2453   -0.4625 C.ar    1  UNL1        0.0293
     24 N          -4.3736   -0.9106    0.5268 N.ar    1  UNL1       -0.2631
     25 C          -4.1267    0.2462    1.1716 C.ar    1  UNL1        0.0293
     26 C          -3.0649    1.0830    0.8692 C.ar    1  UNL1       -0.0223
     27 C          -2.4137   -0.4867   -0.8244 C.ar    1  UNL1       -0.0223
     28 H          -0.9891    2.3504    0.2124 H       1  UNL1        0.1564
     29 H           0.7843    3.0163   -0.9661 H       1  UNL1        0.1788
     30 H           2.3838   -0.8829   -0.1680 H       1  UNL1        0.0343
     31 H           1.6659    0.2276    1.0096 H       1  UNL1        0.0343
     32 H           3.6739    0.1813    2.4057 H       1  UNL1        0.0468
     33 H           2.6535   -3.1010    0.7237 H       1  UNL1        0.0621
     34 H           2.5720   -0.6760    4.3008 H       1  UNL1        0.0621
     35 H           1.2760   -2.4378    5.4379 H       1  UNL1        0.0618
     36 H           0.6616   -4.5194    4.2385 H       1  UNL1        0.0618
     37 H           1.3651   -4.8408    1.8803 H       1  UNL1        0.0618
     38 H           7.6523   -0.3675    0.3994 H       1  UNL1        0.0629
     39 H           8.5492    1.5465   -0.8580 H       1  UNL1        0.0618
     40 H           7.0006    3.2223   -1.8391 H       1  UNL1        0.0618
     41 H           4.5734    2.9786   -1.5528 H       1  UNL1        0.0624
     42 H          -3.7422   -2.1775   -0.9725 H       1  UNL1        0.0830
     43 H          -4.8175    0.4857    1.9751 H       1  UNL1        0.0830
     44 H          -2.9256    1.9921    1.4422 H       1  UNL1        0.0651
     45 H          -1.7784   -0.8254   -1.6342 H       1  UNL1        0.0651
@<TRIPOS>BOND
     1     1     2   am
     2     2     3    2
     3     2     4   am
     4     4     5    1
     5     5     6    2
     6     6     7    1
     7     7     8    1
     8     8     9    1
     9    10    11   ar
    10    11    12   ar
    11    12    13   ar
    12    13    14   ar
    13    14    15   ar
    14    10    15   ar
    15     9    16    1
    16    16    17   ar
    17    17    18   ar
    18    18    19   ar
    19    19    20   ar
    20    20    21   ar
    21     6    21    1
    22    16    21   ar
    23     1    22    1
    24    23    24   ar
    25    24    25   ar
    26    25    26   ar
    27    23    27   ar
    28    26    22   ar
    29    22    27   ar
    30     1    28    1
    31     4    29    1
    32     7    30    1
    33     7    31    1
    34    10    33    1
    35    12    34    1
    36    13    35    1
    37    14    36    1
    38    15    37    1
    39    17    38    1
    40    18    39    1
    41    19    40    1
    42    20    41    1
    43    23    42    1
    44    25    43    1
    45    26    44    1
    46    27    45    1
    47     8    32    1
    48     8    11    1
