@<TRIPOS>MOLECULE
mol_305_akc_molecules23010070
>295.sdf
 45 48 0 0 0
SMALL
GASTEIGER

@<TRIPOS>ATOM
      1 N           0.4680   -3.3724    2.8283 N.am    1  UNL1       -0.2680
      2 C           0.0491   -2.5332    1.8347 C.2     1  UNL1        0.3234
      3 O          -1.1123   -2.2975    1.5111 O.2     1  UNL1       -0.2507
      4 N           1.0274   -1.8358    1.1776 N.am    1  UNL1       -0.1903
      5 N           2.3797   -1.9240    1.3383 N.2     1  UNL1       -0.1830
      6 C           3.1312   -1.1367    0.6005 C.2     1  UNL1        0.0689
      7 C           2.5864   -0.0835   -0.3766 C.3     1  UNL1        0.0079
      8 C           3.3405   -0.0343   -1.7051 C.3     1  UNL1        0.0403
      9 S           4.9646    0.6869   -1.3647 S.3     1  UNL1       -0.1161
     10 C           2.0257   -1.8745   -2.8137 C.ar    1  UNL1       -0.0575
     11 C           3.2884   -1.3649   -2.4501 C.ar    1  UNL1       -0.0338
     12 C           4.4145   -2.1449   -2.7567 C.ar    1  UNL1       -0.0575
     13 C           4.2785   -3.4133   -3.3290 C.ar    1  UNL1       -0.0615
     14 C           3.0166   -3.9184   -3.6243 C.ar    1  UNL1       -0.0617
     15 C           1.8896   -3.1421   -3.3820 C.ar    1  UNL1       -0.0615
     16 C           5.4918   -0.3948   -0.0446 C.ar    1  UNL1        0.0174
     17 C           6.8820   -0.4588    0.1510 C.ar    1  UNL1       -0.0477
     18 C           7.4278   -1.3224    1.0947 C.ar    1  UNL1       -0.0607
     19 C           6.5866   -2.1282    1.8582 C.ar    1  UNL1       -0.0611
     20 C           5.2013   -2.0591    1.6871 C.ar    1  UNL1       -0.0518
     21 C           4.6344   -1.1917    0.7416 C.ar    1  UNL1        0.0112
     22 C          -0.3730   -4.0240    3.7624 C.ar    1  UNL1        0.0377
     23 C          -0.6295   -5.1294    5.8691 C.ar    1  UNL1        0.0293
     24 N          -1.9740   -5.1732    5.7733 N.ar    1  UNL1       -0.2631
     25 C          -2.5106   -4.6625    4.6481 C.ar    1  UNL1        0.0293
     26 C          -1.7616   -4.0938    3.6287 C.ar    1  UNL1       -0.0223
     27 C           0.2046   -4.5852    4.8986 C.ar    1  UNL1       -0.0223
     28 H           1.4710   -3.3690    2.9646 H       1  UNL1        0.1564
     29 H           0.6108   -1.1861    0.5289 H       1  UNL1        0.1788
     30 H           2.6004    0.8842    0.1412 H       1  UNL1        0.0343
     31 H           1.5413   -0.2547   -0.6261 H       1  UNL1        0.0343
     32 H           2.8429    0.7001   -2.3528 H       1  UNL1        0.0468
     33 H           1.1221   -1.2942   -2.6376 H       1  UNL1        0.0621
     34 H           5.4232   -1.8020   -2.5431 H       1  UNL1        0.0621
     35 H           5.1633   -4.0117   -3.5307 H       1  UNL1        0.0618
     36 H           2.9125   -4.9141   -4.0463 H       1  UNL1        0.0618
     37 H           0.9013   -3.5269   -3.6201 H       1  UNL1        0.0618
     38 H           7.5533    0.1548   -0.4494 H       1  UNL1        0.0629
     39 H           8.5066   -1.3716    1.2243 H       1  UNL1        0.0618
     40 H           7.0150   -2.8107    2.5872 H       1  UNL1        0.0618
     41 H           4.5657   -2.6988    2.2985 H       1  UNL1        0.0624
     42 H          -0.2231   -5.5416    6.7880 H       1  UNL1        0.0830
     43 H          -3.5934   -4.7089    4.5819 H       1  UNL1        0.0830
     44 H          -2.2893   -3.7201    2.7600 H       1  UNL1        0.0651
     45 H           1.2763   -4.5749    5.0593 H       1  UNL1        0.0651
@<TRIPOS>BOND
     1     1     2   am
     2     2     3    2
     3     2     4   am
     4     4     5    1
     5     5     6    2
     6     6     7    1
     7     7     8    1
     8     8     9    1
     9    10    11   ar
    10    11    12   ar
    11    12    13   ar
    12    13    14   ar
    13    14    15   ar
    14    10    15   ar
    15     9    16    1
    16    16    17   ar
    17    17    18   ar
    18    18    19   ar
    19    19    20   ar
    20    20    21   ar
    21     6    21    1
    22    16    21   ar
    23     8    11    1
    24     1    22    1
    25    23    24   ar
    26    24    25   ar
    27    25    26   ar
    28    23    27   ar
    29    26    22   ar
    30    22    27   ar
    31     1    28    1
    32     4    29    1
    33     7    30    1
    34     7    31    1
    35     8    32    1
    36    10    33    1
    37    12    34    1
    38    13    35    1
    39    14    36    1
    40    15    37    1
    41    17    38    1
    42    18    39    1
    43    19    40    1
    44    20    41    1
    45    23    42    1
    46    25    43    1
    47    26    44    1
    48    27    45    1
