@<TRIPOS>MOLECULE
mol_307_akc_s00044_017_2019_2
>297.sdf
 46 48 0 0 0
SMALL
GASTEIGER

@<TRIPOS>ATOM
      1 O          -7.0827    5.6438   -9.1670 O.3     1  UNL1       -0.5033
      2 C          -7.3914    5.2186   -7.9036 C.ar    1  UNL1        0.1582
      3 C          -8.4461    5.8503   -7.2491 C.ar    1  UNL1        0.1588
      4 O          -9.1263    6.8570   -7.8732 O.3     1  UNL1       -0.5033
      5 C          -8.8226    5.4742   -5.9632 C.ar    1  UNL1       -0.0079
      6 C          -8.1214    4.4435   -5.3335 C.ar    1  UNL1       -0.0018
      7 C          -8.5149    4.0311   -3.9671 C.2     1  UNL1        0.0529
      8 N          -7.8773    3.0921   -3.3445 N.2     1  UNL1       -0.1876
      9 N          -8.3107    2.7772   -2.0900 N.am    1  UNL1       -0.2042
     10 C          -7.6111    1.8269   -1.3542 C.2     1  UNL1        0.2698
     11 O          -6.6370    1.1979   -1.7672 O.2     1  UNL1       -0.2703
     12 C          -8.1276    1.6483    0.0825 C.3     1  UNL1        0.1670
     13 O          -9.2141    0.7545    0.2740 O.3     1  UNL1       -0.4790
     14 C          -8.9889   -0.5931    0.1396 C.ar    1  UNL1        0.1646
     15 C          -7.7276   -1.1823   -0.0026 C.ar    1  UNL1        0.0021
     16 C          -7.6096   -2.5600   -0.2028 C.ar    1  UNL1        0.0447
     17 CL         -6.0496   -3.2764   -0.3311 Cl      1  UNL1       -0.0834
     18 C          -8.7393   -3.3635   -0.3025 C.ar    1  UNL1       -0.0397
     19 C          -9.9989   -2.7934   -0.1439 C.ar    1  UNL1       -0.0143
     20 C         -10.1241   -1.4266    0.1525 C.ar    1  UNL1        0.1700
     21 O         -11.3515   -0.8530    0.4418 O.3     1  UNL1       -0.4509
     22 C         -12.2804   -1.6083    1.1358 C.ar    1  UNL1        0.1469
     23 C         -13.6256   -1.5338    0.7517 C.ar    1  UNL1        0.0845
     24 CL        -14.1411   -0.4802   -0.5151 Cl      1  UNL1       -0.0797
     25 C         -14.5856   -2.3319    1.3807 C.ar    1  UNL1       -0.0215
     26 C         -14.2007   -3.1974    2.4027 C.ar    1  UNL1        0.0426
     27 CL        -15.3682   -4.2235    3.1404 Cl      1  UNL1       -0.0835
     28 C         -12.8761   -3.2407    2.8324 C.ar    1  UNL1       -0.0398
     29 C         -11.9214   -2.4263    2.2187 C.ar    1  UNL1       -0.0165
     30 C          -7.0571    3.8057   -5.9908 C.ar    1  UNL1       -0.0494
     31 C          -6.6882    4.1940   -7.2834 C.ar    1  UNL1       -0.0159
     32 H          -6.3381    5.1091   -9.4941 H       1  UNL1        0.2923
     33 H          -8.6930    6.9410   -8.7469 H       1  UNL1        0.2923
     34 H          -9.6482    5.9841   -5.4780 H       1  UNL1        0.0662
     35 H          -9.3675    4.5631   -3.5075 H       1  UNL1        0.0851
     36 H          -9.1302    3.2371   -1.7100 H       1  UNL1        0.1773
     37 H          -7.2866    1.4076    0.7446 H       1  UNL1        0.0795
     38 H          -8.4706    2.6320    0.4274 H       1  UNL1        0.0795
     39 H          -6.8128   -0.6001    0.0334 H       1  UNL1        0.0670
     40 H          -8.6472   -4.4298   -0.4891 H       1  UNL1        0.0633
     41 H         -10.8755   -3.4300   -0.2295 H       1  UNL1        0.0656
     42 H         -15.6254   -2.2877    1.0680 H       1  UNL1        0.0648
     43 H         -12.5779   -3.9106    3.6357 H       1  UNL1        0.0633
     44 H         -10.8936   -2.4617    2.5725 H       1  UNL1        0.0655
     45 H          -6.5123    3.0009   -5.4976 H       1  UNL1        0.0625
     46 H          -5.8642    3.6889   -7.7740 H       1  UNL1        0.0655
@<TRIPOS>BOND
     1     1    32    1
     2     2     1    1
     3     3     2   ar
     4     4     3    1
     5     4    33    1
     6     5     3   ar
     7     5    34    1
     8     6     5   ar
     9     7     6    1
    10     7    35    1
    11     8     7    2
    12     9     8    1
    13     9    36    1
    14    10     9   am
    15    11    10    2
    16    12    10    1
    17    12    37    1
    18    12    38    1
    19    13    12    1
    20    14    13    1
    21    15    14   ar
    22    15    39    1
    23    16    15   ar
    24    17    16    1
    25    18    16   ar
    26    18    40    1
    27    19    18   ar
    28    19    41    1
    29    20    19   ar
    30    20    14   ar
    31    21    20    1
    32    22    21    1
    33    23    22   ar
    34    24    23    1
    35    25    23   ar
    36    25    42    1
    37    26    25   ar
    38    27    26    1
    39    28    26   ar
    40    28    43    1
    41    29    28   ar
    42    29    22   ar
    43    29    44    1
    44    30     6   ar
    45    30    45    1
    46    31    30   ar
    47    31     2   ar
    48    31    46    1
