@<TRIPOS>MOLECULE
mol_308_akc_cbdd13024
>298.sdf
 34 35 0 0 0
SMALL
GASTEIGER

@<TRIPOS>ATOM
      1 O           1.0544    0.0572    0.0676 O.3     1  UNL1       -0.3850
      2 C           2.4900    0.0395    0.0558 C.3     1  UNL1        0.1229
      3 C           2.9570   -1.3693    0.4363 C.3     1  UNL1        0.1186
      4 O           4.3814   -1.4426    0.4621 O.3     1  UNL1       -0.4892
      5 C           4.9194   -2.6668    0.7603 C.ar    1  UNL1        0.1220
      6 C           4.1952   -3.8235    1.0551 C.ar    1  UNL1       -0.0016
      7 C           4.8684   -5.0105    1.3467 C.ar    1  UNL1        0.0444
      8 CL          3.9638   -6.4303    1.7085 Cl      1  UNL1       -0.0834
      9 C           6.2600   -5.0581    1.3489 C.ar    1  UNL1       -0.0432
     10 C           6.9868   -3.9062    1.0547 C.ar    1  UNL1       -0.0569
     11 C           6.3165   -2.7156    0.7609 C.ar    1  UNL1       -0.0198
     12 C           3.0401    0.4556   -1.3179 C.3     1  UNL1        0.1186
     13 O           2.6393    1.7996   -1.6060 O.3     1  UNL1       -0.4892
     14 C           3.0326    2.3122   -2.8127 C.ar    1  UNL1        0.1220
     15 C           3.8377    1.6662   -3.7506 C.ar    1  UNL1       -0.0016
     16 C           4.1605    2.3091   -4.9491 C.ar    1  UNL1        0.0444
     17 CL          5.1523    1.5027   -6.1030 Cl      1  UNL1       -0.0834
     18 C           3.6869    3.5890   -5.2186 C.ar    1  UNL1       -0.0432
     19 C           2.8871    4.2393   -4.2845 C.ar    1  UNL1       -0.0569
     20 C           2.5625    3.6007   -3.0843 C.ar    1  UNL1       -0.0198
     21 H           0.7340   -0.4927   -0.6678 H       1  UNL1        0.2101
     22 H           2.8252    0.7638    0.8066 H       1  UNL1        0.0661
     23 H           2.5444   -1.6188    1.4220 H       1  UNL1        0.0724
     24 H           2.5548   -2.0805   -0.2976 H       1  UNL1        0.0724
     25 H           3.1110   -3.8322    1.0693 H       1  UNL1        0.0669
     26 H           6.7795   -5.9839    1.5793 H       1  UNL1        0.0632
     27 H           8.0735   -3.9331    1.0556 H       1  UNL1        0.0619
     28 H           6.8902   -1.8192    0.5345 H       1  UNL1        0.0654
     29 H           4.1346    0.3998   -1.3058 H       1  UNL1        0.0724
     30 H           2.6311   -0.2120   -2.0864 H       1  UNL1        0.0724
     31 H           4.2316    0.6717   -3.5785 H       1  UNL1        0.0669
     32 H           3.9397    4.0875   -6.1531 H       1  UNL1        0.0632
     33 H           2.5132    5.2419   -4.4834 H       1  UNL1        0.0619
     34 H           1.9360    4.1098   -2.3554 H       1  UNL1        0.0654
@<TRIPOS>BOND
     1     1    21    1
     2     2     1    1
     3     2    22    1
     4     3     2    1
     5     3    23    1
     6     3    24    1
     7     4     3    1
     8     5     4    1
     9     6     5   ar
    10     6    25    1
    11     7     6   ar
    12     8     7    1
    13     9     7   ar
    14     9    26    1
    15    10     9   ar
    16    10    27    1
    17    11    10   ar
    18    11     5   ar
    19    11    28    1
    20    12     2    1
    21    12    29    1
    22    12    30    1
    23    13    12    1
    24    14    13    1
    25    15    14   ar
    26    15    31    1
    27    16    15   ar
    28    17    16    1
    29    18    16   ar
    30    18    32    1
    31    19    18   ar
    32    19    33    1
    33    20    19   ar
    34    20    14   ar
    35    20    34    1
