@<TRIPOS>MOLECULE
mol_309_akc_cbdd13024
>299.sdf
 34 35 0 0 0
SMALL
GASTEIGER

@<TRIPOS>ATOM
      1 O           1.0593   -0.0177    0.0145 O.3     1  UNL1       -0.3850
      2 C           2.4948   -0.0089    0.0517 C.3     1  UNL1        0.1229
      3 C           3.0122    1.2996   -0.5682 C.3     1  UNL1        0.1187
      4 O           2.5776    2.4061    0.2368 O.3     1  UNL1       -0.4878
      5 C           2.3246    3.5852   -0.4143 C.ar    1  UNL1        0.1389
      6 C           3.0465    4.1627   -1.4696 C.ar    1  UNL1        0.0825
      7 CL          4.5089    3.5096   -2.1164 Cl      1  UNL1       -0.0798
      8 C           2.6264    5.3832   -2.0176 C.ar    1  UNL1       -0.0398
      9 C           1.5156    6.0512   -1.5026 C.ar    1  UNL1       -0.0602
     10 C           0.8252    5.5084   -0.4252 C.ar    1  UNL1       -0.0582
     11 C           1.2310    4.2867    0.1172 C.ar    1  UNL1       -0.0185
     12 C           2.9533   -0.2058    1.5010 C.3     1  UNL1        0.1187
     13 O           4.3793   -0.2117    1.5732 O.3     1  UNL1       -0.4878
     14 C           4.9199   -0.3468    2.8289 C.ar    1  UNL1        0.1389
     15 C           6.1674   -0.9752    2.9438 C.ar    1  UNL1        0.0825
     16 CL          6.9871   -1.6104    1.5595 Cl      1  UNL1       -0.0798
     17 C           6.7830   -1.1190    4.1921 C.ar    1  UNL1       -0.0398
     18 C           6.1614   -0.6193    5.3368 C.ar    1  UNL1       -0.0602
     19 C           4.9334    0.0253    5.2307 C.ar    1  UNL1       -0.0582
     20 C           4.3168    0.1670    3.9835 C.ar    1  UNL1       -0.0185
     21 H           0.7696    0.8459    0.3644 H       1  UNL1        0.2101
     22 H           2.8470   -0.8457   -0.5618 H       1  UNL1        0.0662
     23 H           4.1057    1.2803   -0.5919 H       1  UNL1        0.0724
     24 H           2.6048    1.3786   -1.5838 H       1  UNL1        0.0724
     25 H           3.1778    5.8307   -2.8416 H       1  UNL1        0.0633
     26 H           1.2043    7.0002   -1.9318 H       1  UNL1        0.0618
     27 H          -0.0269    6.0355   -0.0030 H       1  UNL1        0.0619
     28 H           0.6858    3.8765    0.9637 H       1  UNL1        0.0654
     29 H           2.5165    0.5958    2.1054 H       1  UNL1        0.0724
     30 H           2.5616   -1.1599    1.8765 H       1  UNL1        0.0724
     31 H           7.7453   -1.6129    4.2780 H       1  UNL1        0.0633
     32 H           6.6390   -0.7256    6.3084 H       1  UNL1        0.0618
     33 H           4.4535    0.4323    6.1168 H       1  UNL1        0.0619
     34 H           3.3784    0.7090    3.9501 H       1  UNL1        0.0654
@<TRIPOS>BOND
     1     1    21    1
     2     2     1    1
     3     2    22    1
     4     3     2    1
     5     3    23    1
     6     3    24    1
     7     4     3    1
     8     5     4    1
     9     6     5   ar
    10     7     6    1
    11     8     6   ar
    12     8    25    1
    13     9     8   ar
    14     9    26    1
    15    10     9   ar
    16    10    27    1
    17    11    10   ar
    18    11     5   ar
    19    11    28    1
    20    12     2    1
    21    12    29    1
    22    12    30    1
    23    13    12    1
    24    14    13    1
    25    15    14   ar
    26    16    15    1
    27    17    15   ar
    28    17    31    1
    29    18    17   ar
    30    18    32    1
    31    19    18   ar
    32    19    33    1
    33    20    19   ar
    34    20    14   ar
    35    20    34    1
