@<TRIPOS>MOLECULE
mol_310_akc_cbdd12986
>300.sdf
 42 42 0 0 0
SMALL
GASTEIGER

@<TRIPOS>ATOM
      1 C           0.9538    0.0454    0.0525 C.3     1  UNL1       -0.0653
      2 C           2.4733    0.0566    0.0279 C.3     1  UNL1       -0.0559
      3 C           3.0143    1.4382   -0.3374 C.3     1  UNL1       -0.0533
      4 C           4.5420    1.4424   -0.3612 C.3     1  UNL1       -0.0531
      5 C           5.0882    2.8219   -0.7280 C.3     1  UNL1       -0.0529
      6 C           6.6159    2.8173   -0.7496 C.3     1  UNL1       -0.0483
      7 C           7.1721    4.1940   -1.1124 C.3     1  UNL1       -0.0126
      8 C           8.6935    4.1707   -1.1265 C.3     1  UNL1       -0.0334
      9 N           9.2003    5.5267   -1.4787 N.4     1  UNL1        0.2303
     10 C          10.6880    5.6186   -1.5207 C.3     1  UNL1       -0.0077
     11 C          11.1419    6.9901   -1.9225 C.ar    1  UNL1       -0.0030
     12 C          11.3474    7.9876   -0.9576 C.ar    1  UNL1       -0.0535
     13 C          11.7842    9.2568   -1.3383 C.ar    1  UNL1       -0.0613
     14 C          12.0082    9.5464   -2.6820 C.ar    1  UNL1       -0.0617
     15 C          11.7870    8.5708   -3.6501 C.ar    1  UNL1       -0.0613
     16 C          11.3498    7.2994   -3.2764 C.ar    1  UNL1       -0.0535
     17 H           0.5865   -0.9512    0.3153 H       1  UNL1        0.0230
     18 H           0.5690    0.7560    0.7908 H       1  UNL1        0.0230
     19 H           0.5446    0.3119   -0.9274 H       1  UNL1        0.0230
     20 H           2.8521   -0.2435    1.0119 H       1  UNL1        0.0263
     21 H           2.8278   -0.6857   -0.6966 H       1  UNL1        0.0263
     22 H           2.6298    1.7361   -1.3205 H       1  UNL1        0.0265
     23 H           2.6553    2.1781    0.3881 H       1  UNL1        0.0265
     24 H           4.9257    1.1448    0.6225 H       1  UNL1        0.0265
     25 H           4.9003    0.7007   -1.0855 H       1  UNL1        0.0265
     26 H           4.7065    3.1202   -1.7121 H       1  UNL1        0.0265
     27 H           4.7320    3.5640   -0.0035 H       1  UNL1        0.0265
     28 H           6.9962    2.5149    0.2340 H       1  UNL1        0.0267
     29 H           6.9709    2.0747   -1.4747 H       1  UNL1        0.0267
     30 H           6.7943    4.4965   -2.0967 H       1  UNL1        0.0317
     31 H           6.8170    4.9375   -0.3877 H       1  UNL1        0.0317
     32 H           9.0991    3.9142   -0.1424 H       1  UNL1        0.0814
     33 H           9.0747    3.4724   -1.8792 H       1  UNL1        0.0814
     34 H           8.8340    5.8195   -2.3939 H       1  UNL1        0.2017
     35 H           8.8534    6.2251   -0.8087 H       1  UNL1        0.2017
     36 H          11.0640    5.3561   -0.5248 H       1  UNL1        0.0866
     37 H          11.0446    4.8663   -2.2336 H       1  UNL1        0.0866
     38 H          11.1978    7.7889    0.1030 H       1  UNL1        0.0622
     39 H          11.9652   10.0232   -0.5861 H       1  UNL1        0.0618
     40 H          12.3654   10.5321   -2.9743 H       1  UNL1        0.0618
     41 H          11.9698    8.8013   -4.6983 H       1  UNL1        0.0618
     42 H          11.2017    6.5544   -4.0557 H       1  UNL1        0.0622
@<TRIPOS>UNITY_ATOM_ATTR
9 1
charge 1
@<TRIPOS>BOND
     1     1    17    1
     2     1    18    1
     3     1    19    1
     4     2     1    1
     5     2    20    1
     6     2    21    1
     7     3     2    1
     8     3    22    1
     9     3    23    1
    10     4     3    1
    11     4    24    1
    12     4    25    1
    13     5     4    1
    14     5    26    1
    15     5    27    1
    16     6     5    1
    17     6    28    1
    18     6    29    1
    19     7     6    1
    20     7    30    1
    21     7    31    1
    22     8     7    1
    23     8    32    1
    24     8    33    1
    25     9     8    1
    26     9    34    1
    27     9    35    1
    28    10     9    1
    29    10    36    1
    30    10    37    1
    31    11    10    1
    32    12    11   ar
    33    12    38    1
    34    13    12   ar
    35    13    39    1
    36    14    13   ar
    37    14    40    1
    38    15    14   ar
    39    15    41    1
    40    16    15   ar
    41    16    11   ar
    42    16    42    1
