@<TRIPOS>MOLECULE
mol_311_akc_jejps201705005
>301.sdf
 40 44 0 0 0
SMALL
GASTEIGER

@<TRIPOS>ATOM
      1 O           1.2362    2.2667    0.2818 O.2     1  UNL1       -0.2680
      2 C           1.1513    1.0994    0.6183 C.2     1  UNL1        0.2705
      3 N           2.0268    0.0407    0.5286 N.am    1  UNL1       -0.1478
      4 N           3.2634    0.1201   -0.1204 N.pl3   1  UNL1       -0.2327
      5 C           4.0662    1.2074   -0.0489 C.ar    1  UNL1        0.1756
      6 N           4.0756    2.0905    0.9235 N.ar    1  UNL1       -0.2237
      7 C           4.8934    3.1614    0.6033 C.ar    1  UNL1        0.0803
      8 C           5.5631    3.0348   -0.5975 C.ar    1  UNL1        0.0049
      9 S           5.1721    1.5369   -1.3296 S.2     1  UNL1       -0.0588
     10 C           4.9793    4.3285    1.4735 C.ar    1  UNL1        0.0015
     11 C           6.1289    5.1295    1.5221 C.ar    1  UNL1       -0.0448
     12 C           6.2000    6.2511    2.3663 C.ar    1  UNL1       -0.0173
     13 C           7.3520    7.0521    2.4166 C.ar    1  UNL1       -0.0540
     14 C           7.4149    8.1596    3.2629 C.ar    1  UNL1       -0.0612
     15 C           6.3270    8.4808    4.0688 C.ar    1  UNL1       -0.0612
     16 C           5.1727    7.6962    4.0291 C.ar    1  UNL1       -0.0540
     17 C           5.0940    6.5780    3.1830 C.ar    1  UNL1       -0.0178
     18 C           3.9449    5.7752    3.1316 C.ar    1  UNL1       -0.0534
     19 C           3.8901    4.6622    2.2872 C.ar    1  UNL1       -0.0520
     20 C           1.3822   -1.1697    0.6092 C.2     1  UNL1        0.2705
     21 O           1.7640   -2.2799    0.2853 O.2     1  UNL1       -0.2680
     22 C           0.0188   -0.8599    1.0446 C.ar    1  UNL1        0.0510
     23 C          -0.1080    0.5192    1.0785 C.ar    1  UNL1        0.0510
     24 C          -1.2951    1.1422    1.4116 C.ar    1  UNL1       -0.0488
     25 C          -2.3825    0.3209    1.7148 C.ar    1  UNL1       -0.0610
     26 C          -2.2629   -1.0839    1.6595 C.ar    1  UNL1       -0.0610
     27 C          -1.0493   -1.6919    1.3165 C.ar    1  UNL1       -0.0488
     28 H           3.3211   -0.4651   -0.9491 H       1  UNL1        0.1728
     29 H           6.2317    3.7294   -1.0837 H       1  UNL1        0.0716
     30 H           6.9922    4.8766    0.9117 H       1  UNL1        0.0630
     31 H           8.2129    6.8170    1.7949 H       1  UNL1        0.0624
     32 H           8.3143    8.7691    3.2925 H       1  UNL1        0.0618
     33 H           6.3757    9.3415    4.7306 H       1  UNL1        0.0618
     34 H           4.3332    7.9627    4.6671 H       1  UNL1        0.0624
     35 H           3.0801    6.0075    3.7488 H       1  UNL1        0.0624
     36 H           2.9848    4.0566    2.2601 H       1  UNL1        0.0624
     37 H          -1.3748    2.2255    1.4218 H       1  UNL1        0.0625
     38 H          -3.3382    0.7694    1.9793 H       1  UNL1        0.0618
     39 H          -3.1330   -1.7012    1.8766 H       1  UNL1        0.0618
     40 H          -0.9537   -2.7709    1.2511 H       1  UNL1        0.0625
@<TRIPOS>BOND
     1     2     1    2
     2     3     2   am
     3     4     3    1
     4     4    28    1
     5     5     4    1
     6     6     5   ar
     7     7     6   ar
     8     8     7   ar
     9     8    29    1
    10     9     8   ar
    11     9     5   ar
    12    10     7    1
    13    11    10   ar
    14    11    30    1
    15    12    11   ar
    16    13    12   ar
    17    13    31    1
    18    14    13   ar
    19    14    32    1
    20    15    14   ar
    21    15    33    1
    22    16    15   ar
    23    16    34    1
    24    17    16   ar
    25    17    12   ar
    26    18    17   ar
    27    18    35    1
    28    19    18   ar
    29    19    10   ar
    30    19    36    1
    31    20     3   am
    32    21    20    2
    33    22    20    1
    34    23    22   ar
    35    23     2    1
    36    24    23   ar
    37    24    37    1
    38    25    24   ar
    39    25    38    1
    40    26    25   ar
    41    26    39    1
    42    27    26   ar
    43    27    22   ar
    44    27    40    1
