@<TRIPOS>MOLECULE
mol_314_akc_ijbms20178828
>304.sdf
 42 45 0 0 0
SMALL
GASTEIGER

@<TRIPOS>ATOM
      1 C          -1.7439    1.4302    2.1041 C.3     1  UNL1        0.0154
      2 N          -1.2687    0.7655    0.9105 N.ar    1  UNL1       -0.3066
      3 C          -1.6533   -0.4708    0.4416 C.ar    1  UNL1        0.2157
      4 C          -1.0260   -0.6411   -0.7662 C.ar    1  UNL1        0.0774
      5 N          -0.2601    0.4548   -1.0536 N.ar    1  UNL1       -0.2315
      6 C          -0.3903    1.2827   -0.0266 C.ar    1  UNL1        0.1695
      7 C           0.2828    2.5494    0.0424 C.ar    1  UNL1        0.1689
      8 N           0.6601    3.1398    1.1551 N.ar    1  UNL1       -0.1365
      9 N           1.2918    4.3488    0.9112 N.ar    1  UNL1       -0.1254
     10 C           1.3347    4.6639   -0.3694 C.ar    1  UNL1        0.1846
     11 S           0.6635    3.4213   -1.3728 S.2     1  UNL1       -0.0276
     12 N           1.8837    5.7910   -0.8956 N.pl3   1  UNL1       -0.3052
     13 C           1.3913    6.3986   -2.1245 C.3     1  UNL1        0.0299
     14 C           2.5812    6.6916   -3.0398 C.3     1  UNL1        0.0308
     15 N           3.5942    7.5163   -2.3750 N.am    1  UNL1       -0.2941
     16 C           3.9982    7.0462   -1.0304 C.3     1  UNL1        0.0308
     17 C           2.8040    6.6343   -0.1291 C.3     1  UNL1        0.0299
     18 C           4.2702    8.5967   -2.9545 C.2     1  UNL1        0.2534
     19 O           5.0440    9.2699   -2.2700 O.2     1  UNL1       -0.2694
     20 C           4.0250    8.9137   -4.3635 C.ar    1  UNL1        0.0754
     21 C           3.8414    8.0904   -5.4657 C.ar    1  UNL1       -0.0411
     22 C           3.5533    8.8177   -6.6591 C.ar    1  UNL1       -0.0355
     23 C           3.6446   10.1661   -6.4423 C.ar    1  UNL1        0.0787
     24 CL          3.4406   11.4027   -7.6155 Cl      1  UNL1       -0.0758
     25 S           4.0044   10.5702   -4.8419 S.2     1  UNL1       -0.0722
     26 N          -2.5400   -1.3773    1.0873 N.pl3   1  UNL1        0.0750
     27 O          -3.0015   -1.0508    2.1861 O.2     1  UNL1       -0.1246
     28 O          -2.7781   -2.4296    0.4885 O.2     1  UNL1       -0.1246
     29 H          -2.8366    1.4579    2.0768 H       1  UNL1        0.0457
     30 H          -1.3803    0.8797    2.9747 H       1  UNL1        0.0457
     31 H          -1.3937    2.4602    2.1530 H       1  UNL1        0.0457
     32 H          -1.0848   -1.4847   -1.4433 H       1  UNL1        0.0869
     33 H           0.6686    5.7842   -2.6693 H       1  UNL1        0.0480
     34 H           0.8781    7.3371   -1.8800 H       1  UNL1        0.0480
     35 H           3.0733    5.7559   -3.3385 H       1  UNL1        0.0480
     36 H           2.1778    7.1754   -3.9276 H       1  UNL1        0.0480
     37 H           4.6405    6.1720   -1.1958 H       1  UNL1        0.0480
     38 H           4.6032    7.7973   -0.5124 H       1  UNL1        0.0480
     39 H           2.2729    7.5336    0.2064 H       1  UNL1        0.0480
     40 H           3.1912    6.1266    0.7619 H       1  UNL1        0.0480
     41 H           3.8765    7.0085   -5.4234 H       1  UNL1        0.0631
     42 H           3.3220    8.3707   -7.6181 H       1  UNL1        0.0638
@<TRIPOS>BOND
     1     1    29    1
     2     1    30    1
     3     1    31    1
     4     2     1    1
     5     3     2   ar
     6     4     3   ar
     7     4    32    1
     8     5     4   ar
     9     6     5   ar
    10     6     2   ar
    11     7     6    1
    12     8     7   ar
    13     9     8   ar
    14    10     9   ar
    15    11    10   ar
    16    11     7   ar
    17    12    10    1
    18    13    12    1
    19    13    33    1
    20    13    34    1
    21    14    13    1
    22    14    35    1
    23    14    36    1
    24    15    14    1
    25    16    15    1
    26    16    37    1
    27    16    38    1
    28    17    16    1
    29    17    12    1
    30    17    39    1
    31    17    40    1
    32    18    15   am
    33    19    18    2
    34    20    18    1
    35    21    20   ar
    36    21    41    1
    37    22    21   ar
    38    22    42    1
    39    23    22   ar
    40    24    23    1
    41    25    23   ar
    42    25    20   ar
    43    26     3    1
    44    27    26    2
    45    28    26    2
