@<TRIPOS>MOLECULE
mol_315_akc_1570180813666160927113743
>305.sdf
 43 46 0 0 0
SMALL
GASTEIGER

@<TRIPOS>ATOM
      1 CL         -6.3817    3.0520    1.6428 Cl      1  UNL1       -0.0835
      2 C          -5.2709    1.7781    1.3183 C.ar    1  UNL1        0.0430
      3 C          -5.7301    0.4727    1.2037 C.ar    1  UNL1       -0.0426
      4 C          -4.8226   -0.5491    0.9214 C.ar    1  UNL1       -0.0494
      5 C          -3.4456   -0.2729    0.7460 C.ar    1  UNL1        0.0216
      6 C          -2.4722   -1.2598    0.4375 C.ar    1  UNL1        0.0420
      7 N          -2.8596   -2.6151    0.1996 N.pl3   1  UNL1       -0.3139
      8 C          -2.0068   -3.7450    0.2382 C.ar    1  UNL1        0.0314
      9 C          -1.1233   -3.9421    1.3104 C.ar    1  UNL1       -0.0387
     10 C          -0.2044   -4.9944    1.3031 C.ar    1  UNL1       -0.0333
     11 C          -0.1818   -5.8804    0.2237 C.ar    1  UNL1        0.1087
     12 C          -1.0810   -5.7257   -0.8349 C.ar    1  UNL1       -0.0333
     13 C          -1.9985   -4.6676   -0.8178 C.ar    1  UNL1       -0.0387
     14 S           1.1023   -7.1152    0.1342 S.O2    1  UNL1        0.0735
     15 O           1.2568   -7.4986   -1.2548 O.2     1  UNL1       -0.1499
     16 O           2.2281   -6.6043    0.8877 O.2     1  UNL1       -0.1499
     17 N           0.4941   -8.4186    1.0087 N.pl3   1  UNL1       -0.1995
     18 C          -0.6758   -9.0038    0.4946 C.ar    1  UNL1        0.1377
     19 C          -0.6616   -9.8810   -0.5758 C.ar    1  UNL1       -0.0204
     20 C          -1.8799  -10.3940   -1.0070 C.ar    1  UNL1       -0.0570
     21 C          -3.0500   -9.9915   -0.3698 C.ar    1  UNL1       -0.0435
     22 C          -2.9503   -9.0930    0.6820 C.ar    1  UNL1        0.0297
     23 N          -1.7810   -8.5915    1.1359 N.ar    1  UNL1       -0.2390
     24 C          -1.1372   -0.8669    0.3064 C.ar    1  UNL1       -0.0218
     25 C          -0.8113    0.4598    0.4935 C.ar    1  UNL1        0.0300
     26 N          -1.7120    1.4188    0.7769 N.ar    1  UNL1       -0.2548
     27 C          -2.9980    1.0627    0.8955 C.ar    1  UNL1        0.0741
     28 C          -3.9165    2.0623    1.1721 C.ar    1  UNL1       -0.0173
     29 H          -6.7844    0.2450    1.3350 H       1  UNL1        0.0632
     30 H          -5.1929   -1.5699    0.8518 H       1  UNL1        0.0625
     31 H          -3.4958   -2.6449   -0.5947 H       1  UNL1        0.1522
     32 H          -1.1332   -3.2523    2.1523 H       1  UNL1        0.0637
     33 H           0.5008   -5.0932    2.1250 H       1  UNL1        0.0638
     34 H          -1.0602   -6.4063   -1.6833 H       1  UNL1        0.0638
     35 H          -2.6760   -4.5502   -1.6597 H       1  UNL1        0.0637
     36 H           0.3541   -8.1545    1.9814 H       1  UNL1        0.1752
     37 H           0.2691  -10.1707   -1.0514 H       1  UNL1        0.0652
     38 H          -1.9165  -11.1024   -1.8305 H       1  UNL1        0.0619
     39 H          -4.0165  -10.3701   -0.6841 H       1  UNL1        0.0633
     40 H          -3.8367   -8.7416    1.2027 H       1  UNL1        0.0830
     41 H          -0.3558   -1.5692    0.0399 H       1  UNL1        0.0651
     42 H           0.2165    0.7995    0.4053 H       1  UNL1        0.0830
     43 H          -3.5617    3.0850    1.2733 H       1  UNL1        0.0653
@<TRIPOS>BOND
     1     2     1    1
     2     3     2   ar
     3     3    29    1
     4     4     3   ar
     5     4    30    1
     6     5     4   ar
     7     6     5   ar
     8     7     6    1
     9     7    31    1
    10     8     7    1
    11     9     8   ar
    12     9    32    1
    13    10     9   ar
    14    10    33    1
    15    11    10   ar
    16    12    11   ar
    17    12    34    1
    18    13    12   ar
    19    13     8   ar
    20    13    35    1
    21    14    11    1
    22    15    14    2
    23    16    14    2
    24    17    14    1
    25    17    36    1
    26    18    17    1
    27    19    18   ar
    28    19    37    1
    29    20    19   ar
    30    20    38    1
    31    21    20   ar
    32    21    39    1
    33    22    21   ar
    34    22    40    1
    35    23    22   ar
    36    23    18   ar
    37    24     6   ar
    38    24    41    1
    39    25    24   ar
    40    25    42    1
    41    26    25   ar
    42    27    26   ar
    43    27     5   ar
    44    28    27   ar
    45    28     2   ar
    46    28    43    1
