@<TRIPOS>MOLECULE
mol_316_akc_jexppara201702004
>306.sdf
 46 48 0 0 0
SMALL
GASTEIGER

@<TRIPOS>ATOM
      1 C           1.2297   -0.2305    1.9898 C.3     1  UNL1       -0.0430
      2 N           0.4861    0.8832    1.3159 N.4     1  UNL1        0.2353
      3 C          -0.9662    1.0124    1.7773 C.3     1  UNL1       -0.0160
      4 C          -1.9097   -0.0015    1.0918 C.3     1  UNL1        0.0526
      5 N          -1.7398    0.0483   -0.3813 N.pl3   1  UNL1       -0.3163
      6 C          -0.3516   -0.2414   -0.7935 C.3     1  UNL1        0.0526
      7 C           0.5843    0.8361   -0.2105 C.3     1  UNL1       -0.0160
      8 C          -2.8381    0.0407   -1.2858 C.2     1  UNL1        0.0889
      9 C          -2.8650    0.6863   -2.4800 C.2     1  UNL1        0.0470
     10 C          -1.7252    1.4606   -2.9684 C.2     1  UNL1       -0.0503
     11 C          -0.9950    1.1849   -4.0697 C.2     1  UNL1       -0.0750
     12 C          -1.2582    0.0393   -5.0128 C.3     1  UNL1       -0.0437
     13 C           0.1717    2.0587   -4.4419 C.3     1  UNL1       -0.0437
     14 C          -4.0971    0.7277   -3.3259 C.2     1  UNL1        0.1957
     15 O          -4.2036    1.5089   -4.2702 O.2     1  UNL1       -0.2866
     16 C          -5.2030   -0.1707   -3.0072 C.ar    1  UNL1        0.0332
     17 C          -5.2093   -0.8621   -1.8069 C.ar    1  UNL1        0.0344
     18 C          -6.2986   -1.6874   -1.4905 C.ar    1  UNL1       -0.0502
     19 C          -7.3567   -1.8314   -2.3922 C.ar    1  UNL1       -0.0610
     20 C          -7.3343   -1.1506   -3.6071 C.ar    1  UNL1       -0.0610
     21 C          -6.2635   -0.3132   -3.9131 C.ar    1  UNL1       -0.0502
     22 C          -4.0796   -0.7423   -0.8680 C.2     1  UNL1        0.2083
     23 O          -4.1392   -1.3234    0.2121 O.2     1  UNL1       -0.2853
     24 H           2.2746   -0.1737    1.6725 H       1  UNL1        0.0778
     25 H           1.1641   -0.0767    3.0700 H       1  UNL1        0.0778
     26 H           0.7872   -1.1869    1.7056 H       1  UNL1        0.0778
     27 H           0.9497    1.7536    1.6056 H       1  UNL1        0.2032
     28 H          -0.9814    0.9095    2.8671 H       1  UNL1        0.0830
     29 H          -1.2650    2.0351    1.5187 H       1  UNL1        0.0830
     30 H          -1.7095   -1.0165    1.4529 H       1  UNL1        0.0516
     31 H          -2.9252    0.2769    1.3919 H       1  UNL1        0.0516
     32 H          -0.0664   -1.2333   -0.4252 H       1  UNL1        0.0516
     33 H          -0.2285   -0.2931   -1.8771 H       1  UNL1        0.0516
     34 H           0.2964    1.8358   -0.5572 H       1  UNL1        0.0830
     35 H           1.6332    0.6609   -0.4705 H       1  UNL1        0.0830
     36 H          -1.4781    2.3298   -2.3629 H       1  UNL1        0.0625
     37 H          -1.7199    0.4144   -5.9329 H       1  UNL1        0.0274
     38 H          -0.3216   -0.4622   -5.2794 H       1  UNL1        0.0274
     39 H          -1.9165   -0.7236   -4.5880 H       1  UNL1        0.0274
     40 H          -0.0636    3.1189   -4.3042 H       1  UNL1        0.0274
     41 H           1.0386    1.8047   -3.8224 H       1  UNL1        0.0274
     42 H           0.4568    1.9193   -5.4902 H       1  UNL1        0.0274
     43 H          -6.3303   -2.2260   -0.5452 H       1  UNL1        0.0625
     44 H          -8.1976   -2.4782   -2.1471 H       1  UNL1        0.0618
     45 H          -8.1531   -1.2674   -4.3149 H       1  UNL1        0.0618
     46 H          -6.2574    0.2261   -4.8599 H       1  UNL1        0.0625
@<TRIPOS>UNITY_ATOM_ATTR
2 1
charge 1
@<TRIPOS>BOND
     1     1    24    1
     2     1    25    1
     3     1    26    1
     4     3     2    1
     5     3    28    1
     6     3    29    1
     7     4     3    1
     8     4    30    1
     9     4    31    1
    10     5     4    1
    11     6     5    1
    12     6    32    1
    13     6    33    1
    14     7     6    1
    15     7     2    1
    16     7    34    1
    17     7    35    1
    18     8     5    1
    19     9     8    2
    20    10     9    1
    21    10    36    1
    22    11    10    2
    23    12    11    1
    24    12    37    1
    25    12    38    1
    26    12    39    1
    27    13    11    1
    28    13    40    1
    29    13    41    1
    30    13    42    1
    31    14     9    1
    32    15    14    2
    33    16    14    1
    34    17    16   ar
    35    18    17   ar
    36    18    43    1
    37    19    18   ar
    38    19    44    1
    39    20    19   ar
    40    20    45    1
    41    21    20   ar
    42    21    16   ar
    43    21    46    1
    44    22    17    1
    45    22     8    1
    46    23    22    2
    47     2    27    1
    48     2     1    1
