@<TRIPOS>MOLECULE
mol_318_akc_s0031182016002389
>308.sdf
 48 49 0 0 0
SMALL
GASTEIGER

@<TRIPOS>ATOM
      1 C           0.9036    0.1655    0.2540 C.3     1  UNL1        0.0788
      2 O           2.3253    0.1757    0.2014 O.3     1  UNL1       -0.4942
      3 C           2.9877   -1.0180    0.0705 C.ar    1  UNL1        0.1379
      4 C           2.3255   -2.2518    0.0377 C.ar    1  UNL1        0.0228
      5 C           3.0510   -3.4430    0.0153 C.ar    1  UNL1        0.1273
      6 O           2.3813   -4.6367    0.0012 O.3     1  UNL1       -0.5062
      7 C           4.4512   -3.4533    0.0249 C.ar    1  UNL1        0.0400
      8 C           5.1874   -4.7755    0.1466 C.3     1  UNL1       -0.0023
      9 C           5.6205   -5.3613   -1.1702 C.2     1  UNL1       -0.0807
     10 C           6.7122   -6.1178   -1.4056 C.2     1  UNL1       -0.0793
     11 C           7.7298   -6.5233   -0.3751 C.3     1  UNL1       -0.0440
     12 C           6.9480   -6.6797   -2.7842 C.3     1  UNL1       -0.0440
     13 C           5.1141   -2.2097   -0.0319 C.ar    1  UNL1        0.1381
     14 O           6.4808   -2.1637   -0.1426 O.3     1  UNL1       -0.5055
     15 C           4.3982   -0.9875    0.0027 C.ar    1  UNL1        0.1050
     16 C           5.1580    0.3056    0.0515 C.2     1  UNL1        0.1931
     17 O           6.1593    0.4283    0.7524 O.2     1  UNL1       -0.2870
     18 C           4.6449    1.4651   -0.7417 C.2     1  UNL1       -0.0135
     19 C           5.2498    2.6628   -0.6625 C.2     1  UNL1       -0.0510
     20 C           4.6583    3.8538   -1.2734 C.ar    1  UNL1       -0.0247
     21 C           3.9224    4.7324   -0.4683 C.ar    1  UNL1       -0.0511
     22 C           3.3121    5.8624   -1.0221 C.ar    1  UNL1       -0.0196
     23 C           3.4441    6.1080   -2.3843 C.ar    1  UNL1        0.1169
     24 O           2.8613    7.1945   -2.9674 O.3     1  UNL1       -0.5068
     25 C           4.1770    5.2472   -3.1966 C.ar    1  UNL1       -0.0196
     26 C           4.7851    4.1165   -2.6403 C.ar    1  UNL1       -0.0511
     27 H           0.4757   -0.2779   -0.6512 H       1  UNL1        0.0660
     28 H           0.5489   -0.3471    1.1540 H       1  UNL1        0.0660
     29 H           0.5635    1.2042    0.3043 H       1  UNL1        0.0660
     30 H           1.2436   -2.3064    0.0623 H       1  UNL1        0.0691
     31 H           1.4235   -4.4784   -0.0220 H       1  UNL1        0.2921
     32 H           6.0296   -4.6342    0.8321 H       1  UNL1        0.0358
     33 H           4.5446   -5.5099    0.6479 H       1  UNL1        0.0358
     34 H           4.9348   -5.1812   -1.9993 H       1  UNL1        0.0575
     35 H           7.7761   -7.6155   -0.3035 H       1  UNL1        0.0274
     36 H           8.7202   -6.1541   -0.6607 H       1  UNL1        0.0274
     37 H           7.5117   -6.1449    0.6256 H       1  UNL1        0.0274
     38 H           6.1104   -7.3166   -3.0886 H       1  UNL1        0.0274
     39 H           7.0710   -5.8746   -3.5153 H       1  UNL1        0.0274
     40 H           7.8531   -7.2960   -2.8157 H       1  UNL1        0.0274
     41 H           6.8524   -3.0506   -0.2683 H       1  UNL1        0.2922
     42 H           3.7403    1.3377   -1.3237 H       1  UNL1        0.0656
     43 H           6.1511    2.8105   -0.0731 H       1  UNL1        0.0625
     44 H           3.8149    4.5383    0.5972 H       1  UNL1        0.0625
     45 H           2.7425    6.5265   -0.3799 H       1  UNL1        0.0654
     46 H           2.4053    7.7072   -2.2800 H       1  UNL1        0.2921
     47 H           4.2747    5.4552   -4.2573 H       1  UNL1        0.0654
     48 H           5.3571    3.4494   -3.2802 H       1  UNL1        0.0625
@<TRIPOS>BOND
     1     1    27    1
     2     1    28    1
     3     1    29    1
     4     2     1    1
     5     3     2    1
     6     4     3   ar
     7     4    30    1
     8     5     4   ar
     9     6     5    1
    10     6    31    1
    11     7     5   ar
    12     8     7    1
    13     8    32    1
    14     8    33    1
    15     9     8    1
    16     9    34    1
    17    10     9    2
    18    11    10    1
    19    11    35    1
    20    11    36    1
    21    11    37    1
    22    12    10    1
    23    12    38    1
    24    12    39    1
    25    12    40    1
    26    13     7   ar
    27    14    13    1
    28    14    41    1
    29    15    13   ar
    30    15     3   ar
    31    16    15    1
    32    17    16    2
    33    18    16    1
    34    18    42    1
    35    19    18    2
    36    19    43    1
    37    20    19    1
    38    21    20   ar
    39    21    44    1
    40    22    21   ar
    41    22    45    1
    42    23    22   ar
    43    24    23    1
    44    24    46    1
    45    25    23   ar
    46    25    47    1
    47    26    25   ar
    48    26    20   ar
    49    26    48    1
