@<TRIPOS>MOLECULE
mol_319_akc_jbcp201612012
>309.sdf
 40 43 0 0 0
SMALL
GASTEIGER

@<TRIPOS>ATOM
      1 C           1.1611    1.0688    0.6611 C.3     1  UNL1        0.0817
      2 O           2.5766    0.8943    0.5861 O.3     1  UNL1       -0.4666
      3 C           2.9755   -0.4085    0.5449 C.2     1  UNL1        0.3279
      4 O           2.2319   -1.3705    0.7336 O.2     1  UNL1       -0.2487
      5 C           4.4926   -0.5585    0.4178 C.3     1  UNL1        0.1278
      6 C           5.0115   -0.6951    1.8675 C.3     1  UNL1        0.0038
      7 C           6.4873   -0.5839    1.9178 C.ar    1  UNL1       -0.0147
      8 C           7.2120   -0.0325    0.8820 C.ar    1  UNL1        0.0439
      9 N           8.5318   -0.0275    1.2602 N.ar    1  UNL1       -0.3560
     10 C           8.6607   -0.5091    2.5445 C.ar    1  UNL1        0.0470
     11 C           7.3907   -0.8996    2.9721 C.ar    1  UNL1        0.0032
     12 C           7.2453   -1.4439    4.2613 C.ar    1  UNL1       -0.0523
     13 C           8.3695   -1.5646    5.0860 C.ar    1  UNL1       -0.0611
     14 C           9.6227   -1.1482    4.6427 C.ar    1  UNL1       -0.0598
     15 C           9.7939   -0.6163    3.3608 C.ar    1  UNL1       -0.0378
     16 C           6.6752    0.5275   -0.3976 C.3     1  UNL1        0.0761
     17 C           7.1629    1.9829   -0.5717 C.3     1  UNL1       -0.0379
     18 C           7.0266   -0.3058   -1.6258 C.3     1  UNL1       -0.0178
     19 C           5.9628    0.1191   -2.6324 C.3     1  UNL1        0.0265
     20 C           4.7777    0.4302   -1.7495 C.2     1  UNL1        0.2170
     21 O           3.6269    0.5164   -2.1465 O.2     1  UNL1       -0.2756
     22 N           5.1983    0.4692   -0.3991 N.am    1  UNL1       -0.2768
     23 H           0.7370    0.9856   -0.3430 H       1  UNL1        0.0661
     24 H           0.6845    0.3565    1.3379 H       1  UNL1        0.0661
     25 H           0.9640    2.0773    1.0415 H       1  UNL1        0.0661
     26 H           4.6583   -1.5111   -0.1114 H       1  UNL1        0.0620
     27 H           4.6922   -1.6614    2.2783 H       1  UNL1        0.0337
     28 H           4.5783    0.0829    2.5073 H       1  UNL1        0.0337
     29 H           9.3026    0.3352    0.7143 H       1  UNL1        0.1657
     30 H           6.2698   -1.7560    4.6217 H       1  UNL1        0.0624
     31 H           8.2591   -1.9780    6.0858 H       1  UNL1        0.0618
     32 H          10.4810   -1.2353    5.3052 H       1  UNL1        0.0618
     33 H          10.7713   -0.2876    3.0237 H       1  UNL1        0.0638
     34 H           8.2589    2.0448   -0.5489 H       1  UNL1        0.0254
     35 H           6.8443    2.4266   -1.5234 H       1  UNL1        0.0254
     36 H           6.7772    2.6301    0.2246 H       1  UNL1        0.0254
     37 H           8.0436   -0.1470   -1.9990 H       1  UNL1        0.0294
     38 H           6.9173   -1.3792   -1.4156 H       1  UNL1        0.0294
     39 H           6.2451    1.0025   -3.2076 H       1  UNL1        0.0359
     40 H           5.7105   -0.7031   -3.3076 H       1  UNL1        0.0359
@<TRIPOS>BOND
     1     1    23    1
     2     1    24    1
     3     1    25    1
     4     2     1    1
     5     3     2    1
     6     4     3    2
     7     6     5    1
     8     7     6    1
     9     8     7   ar
    10     9     8   ar
    11    10     9   ar
    12    11    10   ar
    13    11     7   ar
    14    12    11   ar
    15    13    12   ar
    16    14    13   ar
    17    15    14   ar
    18    15    10   ar
    19    16     8    1
    20    17    34    1
    21    17    35    1
    22    17    36    1
    23    18    16    1
    24    19    18    1
    25    20    19    1
    26    22    20   am
    27    22     5    1
    28    22    16    1
    29     6    27    1
    30     6    28    1
    31     9    29    1
    32    12    30    1
    33    13    31    1
    34    14    32    1
    35    15    33    1
    36    16    17    1
    37    18    37    1
    38    18    38    1
    39    19    39    1
    40    19    40    1
    41    21    20    2
    42     5    26    1
    43     5     3    1
