@<TRIPOS>MOLECULE
mol_320_akc_2210315507666161206123513
>310.sdf
 50 53 0 0 0
SMALL
GASTEIGER

@<TRIPOS>ATOM
      1 F           8.6129    0.9544   -1.5315 F       1  UNL1       -0.1659
      2 C           8.5816    2.3090   -1.3943 C.3     1  UNL1        0.4175
      3 F           9.7583    2.6502   -0.7992 F       1  UNL1       -0.1659
      4 F           8.6439    2.8127   -2.6584 F       1  UNL1       -0.1659
      5 C           7.3845    2.8162   -0.6323 C.ar    1  UNL1        0.0568
      6 C           6.4173    1.9308   -0.1404 C.ar    1  UNL1       -0.0241
      7 C           5.3017    2.3621    0.5617 C.ar    1  UNL1        0.0733
      8 C           5.1183    3.7438    0.8143 C.ar    1  UNL1        0.0212
      9 C           6.0913    4.6399    0.3013 C.ar    1  UNL1       -0.0503
     10 C           7.2074    4.1826   -0.4070 C.ar    1  UNL1       -0.0494
     11 C           3.9677    4.1326    1.5719 C.ar    1  UNL1        0.0378
     12 N           3.6991    5.5000    1.8353 N.pl3   1  UNL1       -0.3432
     13 C           2.8071    5.8314    2.9514 C.3     1  UNL1        0.0106
     14 C           2.6258    7.3434    3.0668 C.3     1  UNL1       -0.0215
     15 C           1.8426    7.9180    1.8818 C.3     1  UNL1        0.0175
     16 N           1.6037    9.3516    2.0248 N.am    1  UNL1       -0.2846
     17 C           2.6026   10.3041    1.5946 C.3     1  UNL1        0.1007
     18 S           2.2003   11.9007    2.3500 S.3     1  UNL1       -0.1242
     19 C           0.6190   11.3287    3.0086 C.3     1  UNL1        0.0725
     20 C           0.5713    9.8288    2.8172 C.2     1  UNL1        0.2266
     21 O          -0.2944    9.1193    3.3191 O.2     1  UNL1       -0.2747
     22 C           2.7913   10.3878    0.0900 C.ar    1  UNL1        0.0196
     23 C           1.7527   10.7288   -0.8073 C.ar    1  UNL1        0.0481
     24 CL          0.1097   10.9832   -0.3299 Cl      1  UNL1       -0.0831
     25 C           1.9881   10.8663   -2.1831 C.ar    1  UNL1       -0.0429
     26 C           3.2511   10.6459   -2.7109 C.ar    1  UNL1       -0.0590
     27 C           4.2828   10.2675   -1.8620 C.ar    1  UNL1       -0.0429
     28 C           4.0585   10.1363   -0.4832 C.ar    1  UNL1        0.0481
     29 CL          5.4246    9.6161    0.4502 Cl      1  UNL1       -0.0831
     30 C           3.0532    3.1325    1.9195 C.ar    1  UNL1       -0.0221
     31 C           3.3324    1.8193    1.6071 C.ar    1  UNL1        0.0300
     32 N           4.4405    1.4201    0.9589 N.ar    1  UNL1       -0.2548
     33 H           6.5296    0.8596   -0.3117 H       1  UNL1        0.0644
     34 H           5.9848    5.7129    0.4369 H       1  UNL1        0.0625
     35 H           7.9354    4.8994   -0.7843 H       1  UNL1        0.0623
     36 H           4.5703    6.0217    1.8954 H       1  UNL1        0.1461
     37 H           1.8166    5.3800    2.8241 H       1  UNL1        0.0462
     38 H           3.2419    5.4540    3.8843 H       1  UNL1        0.0462
     39 H           2.0820    7.5570    3.9964 H       1  UNL1        0.0295
     40 H           3.6006    7.8380    3.1566 H       1  UNL1        0.0295
     41 H           2.3687    7.7415    0.9375 H       1  UNL1        0.0465
     42 H           0.8698    7.4179    1.8132 H       1  UNL1        0.0465
     43 H           3.5212   10.0035    2.1000 H       1  UNL1        0.0669
     44 H           0.5520   11.5669    4.0718 H       1  UNL1        0.0472
     45 H          -0.2089   11.7995    2.4722 H       1  UNL1        0.0472
     46 H           1.1759   11.1478   -2.8522 H       1  UNL1        0.0632
     47 H           3.4271   10.7565   -3.7777 H       1  UNL1        0.0618
     48 H           5.2680   10.0741   -2.2810 H       1  UNL1        0.0632
     49 H           2.1198    3.3439    2.4245 H       1  UNL1        0.0651
     50 H           2.6445    1.0220    1.8778 H       1  UNL1        0.0830
@<TRIPOS>BOND
     1     2     1    1
     2     3     2    1
     3     4     2    1
     4     5     2    1
     5     6     5   ar
     6     6    33    1
     7     7     6   ar
     8     8     7   ar
     9     9     8   ar
    10     9    34    1
    11    10     9   ar
    12    10     5   ar
    13    10    35    1
    14    11     8   ar
    15    12    11    1
    16    12    36    1
    17    13    12    1
    18    13    37    1
    19    13    38    1
    20    14    13    1
    21    14    39    1
    22    14    40    1
    23    15    14    1
    24    15    41    1
    25    15    42    1
    26    16    15    1
    27    17    16    1
    28    18    17    1
    29    19    18    1
    30    19    44    1
    31    19    45    1
    32    20    19    1
    33    20    16   am
    34    21    20    2
    35    23    22   ar
    36    24    23    1
    37    25    23   ar
    38    25    46    1
    39    26    25   ar
    40    26    47    1
    41    27    26   ar
    42    27    48    1
    43    28    27   ar
    44    28    22   ar
    45    29    28    1
    46    30    11   ar
    47    30    49    1
    48    31    30   ar
    49    31    50    1
    50    32    31   ar
    51    32     7   ar
    52    17    22    1
    53    17    43    1
