@<TRIPOS>MOLECULE
mol_323_akc_jbcp201612018
>312.sdf
 80 83 0 0 0
SMALL
GASTEIGER

@<TRIPOS>ATOM
      1 C           2.9100    2.1617    0.9219 C.3     1  UNL1       -0.0361
      2 C           1.6941    2.4383    0.0454 C.3     1  UNL1        0.0873
      3 O           2.1431    2.5977   -1.3092 O.3     1  UNL1       -0.3431
      4 C           1.0657    2.5940   -2.2527 C.3     1  UNL1        0.1884
      5 O           0.2577    1.4159   -2.2062 O.3     1  UNL1       -0.3389
      6 C           0.8399    0.1519   -2.6339 C.3     1  UNL1        0.1316
      7 C           2.0442   -0.2989   -1.7967 C.3     1  UNL1        0.1355
      8 O           1.6006   -0.6947   -0.4834 O.3     1  UNL1       -0.3841
      9 C           2.8663   -1.4427   -2.4001 C.3     1  UNL1        0.1880
     10 O           4.0673   -1.4282   -1.6147 O.3     1  UNL1       -0.3484
     11 C           5.0503   -2.3774   -2.0001 C.3     1  UNL1        0.0547
     12 C           6.2286   -2.2840   -1.0137 C.3     1  UNL1       -0.0039
     13 C           7.0877   -1.0305   -1.0298 C.ar    1  UNL1       -0.0415
     14 C           8.1617   -0.9472   -0.1210 C.ar    1  UNL1       -0.0548
     15 C           8.9912    0.1825   -0.0695 C.ar    1  UNL1       -0.0163
     16 C           8.7450    1.2382   -0.9344 C.ar    1  UNL1        0.1582
     17 O           9.5142    2.3658   -0.9394 O.3     1  UNL1       -0.5033
     18 C           7.6873    1.1653   -1.8337 C.ar    1  UNL1        0.1585
     19 O           7.4484    2.2200   -2.6814 O.3     1  UNL1       -0.5033
     20 C           6.8607    0.0509   -1.8916 C.ar    1  UNL1       -0.0133
     21 O           3.1054   -1.1993   -3.7768 O.3     1  UNL1       -0.3394
     22 C           1.8690   -1.1766   -4.5195 C.3     1  UNL1        0.1240
     23 C           2.2129   -1.2549   -6.0127 C.3     1  UNL1        0.0741
     24 O           2.7727   -2.5383   -6.3059 O.3     1  UNL1       -0.3923
     25 C           1.0713    0.0925   -4.1594 C.3     1  UNL1        0.1602
     26 O          -0.2528    0.0492   -4.7564 O.3     1  UNL1       -0.4528
     27 C          -0.4593    0.7333   -5.9034 C.2     1  UNL1        0.3324
     28 O           0.3969    1.3235   -6.5422 O.2     1  UNL1       -0.2456
     29 C          -1.8662    0.6407   -6.3510 C.2     1  UNL1        0.0231
     30 C          -2.8686    0.1774   -5.5888 C.2     1  UNL1       -0.0477
     31 C          -4.2500    0.1409   -6.0699 C.ar    1  UNL1       -0.0211
     32 C          -4.7680   -1.0286   -6.6529 C.ar    1  UNL1       -0.0509
     33 C          -6.0935   -1.0768   -7.0993 C.ar    1  UNL1       -0.0160
     34 C          -6.8956    0.0485   -6.9599 C.ar    1  UNL1        0.1582
     35 O          -8.2007    0.0638   -7.3662 O.3     1  UNL1       -0.5033
     36 C          -6.3830    1.2103   -6.3870 C.ar    1  UNL1        0.1588
     37 O          -7.1814    2.3103   -6.2514 O.3     1  UNL1       -0.5033
     38 C          -5.0684    1.2688   -5.9432 C.ar    1  UNL1       -0.0094
     39 C           0.2037    3.8495   -1.9711 C.3     1  UNL1        0.1341
     40 O           0.9443    5.0582   -2.2256 O.3     1  UNL1       -0.3841
     41 C          -0.2749    3.8569   -0.5078 C.3     1  UNL1        0.1140
     42 O          -0.9549    5.0805   -0.1717 O.3     1  UNL1       -0.3864
     43 C           0.8878    3.6574    0.4831 C.3     1  UNL1        0.1095
     44 O           0.3687    3.4614    1.8019 O.3     1  UNL1       -0.3866
     45 H           2.6079    1.8262    1.9187 H       1  UNL1        0.0255
     46 H           3.5360    1.3799    0.4761 H       1  UNL1        0.0255
     47 H           3.5411    3.0495    1.0236 H       1  UNL1        0.0255
     48 H           1.0481    1.5585    0.1235 H       1  UNL1        0.0621
     49 H           1.5119    2.7066   -3.2454 H       1  UNL1        0.0938
     50 H           0.0304   -0.5583   -2.4143 H       1  UNL1        0.0663
     51 H           2.7377    0.5281   -1.6602 H       1  UNL1        0.0671
     52 H           2.4176   -0.9102    0.0078 H       1  UNL1        0.2101
     53 H           2.3754   -2.4139   -2.2539 H       1  UNL1        0.0937
     54 H           4.6145   -3.3803   -1.9382 H       1  UNL1        0.0564
     55 H           5.3826   -2.1971   -3.0274 H       1  UNL1        0.0564
     56 H           5.8281   -2.3812    0.0049 H       1  UNL1        0.0335
     57 H           6.8908   -3.1389   -1.1972 H       1  UNL1        0.0335
     58 H           8.3582   -1.7706    0.5642 H       1  UNL1        0.0621
     59 H           9.8060    0.2126    0.6429 H       1  UNL1        0.0655
     60 H          10.1890    2.2689   -0.2427 H       1  UNL1        0.2923
     61 H           8.1391    2.8689   -2.4557 H       1  UNL1        0.2923
     62 H           6.0403    0.0501   -2.6057 H       1  UNL1        0.0658
     63 H           1.2890   -2.0758   -4.2693 H       1  UNL1        0.0658
     64 H           1.3240   -1.1530   -6.6383 H       1  UNL1        0.0584
     65 H           2.9494   -0.4925   -6.2860 H       1  UNL1        0.0584
     66 H           3.0915   -2.4990   -7.2243 H       1  UNL1        0.2095
     67 H           1.6162    0.9842   -4.4863 H       1  UNL1        0.0788
     68 H          -2.0411    1.0086   -7.3569 H       1  UNL1        0.0689
     69 H          -2.7157   -0.1700   -4.5705 H       1  UNL1        0.0626
     70 H          -4.1399   -1.9119   -6.7552 H       1  UNL1        0.0625
     71 H          -6.4741   -1.9923   -7.5426 H       1  UNL1        0.0655
     72 H          -8.4179   -0.8131   -7.7274 H       1  UNL1        0.2923
     73 H          -8.0455    2.0340   -6.6171 H       1  UNL1        0.2923
     74 H          -4.6961    2.1853   -5.4941 H       1  UNL1        0.0661
     75 H          -0.6699    3.8752   -2.6323 H       1  UNL1        0.0671
     76 H           1.8610    4.9030   -1.9235 H       1  UNL1        0.2101
     77 H          -1.0085    3.0611   -0.3604 H       1  UNL1        0.0648
     78 H          -0.9144    5.6525   -0.9632 H       1  UNL1        0.2100
     79 H           1.5188    4.5553    0.5076 H       1  UNL1        0.0646
     80 H          -0.4349    4.0164    1.8562 H       1  UNL1        0.2100
@<TRIPOS>BOND
     1     1    45    1
     2     1    46    1
     3     1    47    1
     4     2     1    1
     5     2    48    1
     6     3     2    1
     7     4     3    1
     8     6     5    1
     9     6    50    1
    10     7     6    1
    11     7    51    1
    12     8     7    1
    13     8    52    1
    14     9     7    1
    15    11    10    1
    16    11    54    1
    17    11    55    1
    18    12    11    1
    19    12    56    1
    20    12    57    1
    21    13    12    1
    22    14    13   ar
    23    14    58    1
    24    15    14   ar
    25    15    59    1
    26    16    15   ar
    27    17    16    1
    28    17    60    1
    29    18    16   ar
    30    19    18    1
    31    19    61    1
    32    20    18   ar
    33    20    13   ar
    34    20    62    1
    35    21     9    1
    36    22    21    1
    37    22    63    1
    38    23    22    1
    39    23    64    1
    40    23    65    1
    41    24    23    1
    42    24    66    1
    43    25    22    1
    44    25     6    1
    45    27    26    1
    46    28    27    2
    47    29    27    1
    48    29    68    1
    49    30    29    2
    50    30    69    1
    51    31    30    1
    52    32    31   ar
    53    32    70    1
    54    33    32   ar
    55    33    71    1
    56    34    33   ar
    57    35    34    1
    58    35    72    1
    59    36    34   ar
    60    37    36    1
    61    37    73    1
    62    38    36   ar
    63    38    31   ar
    64    38    74    1
    65    39     4    1
    66    39    75    1
    67    40    39    1
    68    40    76    1
    69    41    39    1
    70    41    77    1
    71    42    41    1
    72    42    78    1
    73    43    41    1
    74    43     2    1
    75    43    79    1
    76    44    43    1
    77    44    80    1
    78     4     5    1
    79     4    49    1
    80     9    10    1
    81     9    53    1
    82    25    26    1
    83    25    67    1
