@<TRIPOS>MOLECULE
mol_325_akc_jactatropica201612027
>313_2.sdf
 36 39 0 0 0
SMALL
GASTEIGER

@<TRIPOS>ATOM
      1 CL         -2.2031    0.2712   -1.2026 Cl      1  UNL1       -0.0835
      2 C          -0.5290    0.2255   -0.8122 C.ar    1  UNL1        0.0410
      3 C           0.3380   -0.5624   -1.5614 C.ar    1  UNL1       -0.0430
      4 C           1.7006   -0.5823   -1.2534 C.ar    1  UNL1       -0.0536
      5 C           2.2148    0.1822   -0.1889 C.ar    1  UNL1       -0.0048
      6 C           1.3161    0.9558    0.5650 C.ar    1  UNL1       -0.0536
      7 C          -0.0459    0.9808    0.2503 C.ar    1  UNL1       -0.0430
      8 C           3.7254    0.1450    0.0640 C.3     1  UNL1        0.1529
      9 O           4.4196    0.6433   -1.1034 O.3     1  UNL1       -0.4810
     10 C           4.3561    2.0044   -1.2253 C.ar    1  UNL1        0.1320
     11 C           4.4388    2.5233   -2.5164 C.ar    1  UNL1       -0.0192
     12 C           4.3245    3.8991   -2.7212 C.ar    1  UNL1       -0.0583
     13 C           4.1448    4.7560   -1.6349 C.ar    1  UNL1       -0.0609
     14 C           4.0931    4.2398   -0.3396 C.ar    1  UNL1       -0.0477
     15 C           4.2061    2.8602   -0.1368 C.ar    1  UNL1        0.0613
     16 C           4.1634    2.2915    1.2284 C.2     1  UNL1        0.1932
     17 O           4.0701    3.0645    2.1784 O.2     1  UNL1       -0.2896
     18 C           4.3068    0.7801    1.3467 C.3     1  UNL1        0.1387
     19 N           3.8125    0.1842    2.5946 N.ar    1  UNL1       -0.3223
     20 C           3.3033   -1.0829    2.7538 C.ar    1  UNL1        0.0250
     21 C           3.0309   -1.2102    4.0949 C.ar    1  UNL1        0.0454
     22 N           3.4016   -0.0833    4.7671 N.ar    1  UNL1       -0.2440
     23 C           3.8883    0.7255    3.8523 C.ar    1  UNL1        0.0967
     24 H          -0.0370   -1.1567   -2.3909 H       1  UNL1        0.0632
     25 H           2.3666   -1.1931   -1.8610 H       1  UNL1        0.0622
     26 H           1.6341    1.5605    1.4102 H       1  UNL1        0.0622
     27 H          -0.7203    1.5966    0.8414 H       1  UNL1        0.0632
     28 H           3.9943   -0.9195    0.0885 H       1  UNL1        0.0810
     29 H           4.5635    1.8572   -3.3664 H       1  UNL1        0.0654
     30 H           4.3657    4.3030   -3.7306 H       1  UNL1        0.0619
     31 H           4.0453    5.8272   -1.7970 H       1  UNL1        0.0618
     32 H           3.9604    4.9143    0.5041 H       1  UNL1        0.0626
     33 H           5.3916    0.5936    1.3688 H       1  UNL1        0.0651
     34 H           3.1574   -1.7836    1.9450 H       1  UNL1        0.0825
     35 H           2.5999   -2.0597    4.6090 H       1  UNL1        0.0845
     36 H           4.3003    1.7047    4.0633 H       1  UNL1        0.1029
@<TRIPOS>BOND
     1     2     1    1
     2     3     2   ar
     3     3    24    1
     4     4     3   ar
     5     4    25    1
     6     5     4   ar
     7     6     5   ar
     8     6    26    1
     9     7     6   ar
    10     7     2   ar
    11     7    27    1
    12     8     5    1
    13     8    28    1
    14     9     8    1
    15    10     9    1
    16    11    10   ar
    17    11    29    1
    18    12    11   ar
    19    12    30    1
    20    13    12   ar
    21    13    31    1
    22    14    13   ar
    23    14    32    1
    24    15    14   ar
    25    15    10   ar
    26    16    15    1
    27    17    16    2
    28    18    16    1
    29    18     8    1
    30    18    33    1
    31    19    18    1
    32    20    19   ar
    33    20    34    1
    34    21    20   ar
    35    21    35    1
    36    22    21   ar
    37    23    22   ar
    38    23    19   ar
    39    23    36    1
