@<TRIPOS>MOLECULE
mol_326_akc_jactatropica201612027
>313_3.sdf
 36 39 0 0 0
SMALL
GASTEIGER

@<TRIPOS>ATOM
      1 CL          5.8673   -5.8302    0.2817 Cl      1  UNL1       -0.0835
      2 C           5.3621   -4.1879    0.2130 C.ar    1  UNL1        0.0410
      3 C           6.0589   -3.2808   -0.5781 C.ar    1  UNL1       -0.0430
      4 C           5.6435   -1.9475   -0.6395 C.ar    1  UNL1       -0.0536
      5 C           4.5318   -1.5037    0.0964 C.ar    1  UNL1       -0.0048
      6 C           3.8426   -2.4354    0.8918 C.ar    1  UNL1       -0.0536
      7 C           4.2537   -3.7708    0.9469 C.ar    1  UNL1       -0.0430
      8 C           4.0728   -0.0498    0.0601 C.3     1  UNL1        0.1529
      9 O           4.4173    0.5418   -1.2057 O.3     1  UNL1       -0.4810
     10 C           4.1898    1.8887   -1.2979 C.ar    1  UNL1        0.1320
     11 C           4.2905    2.4422   -2.5727 C.ar    1  UNL1       -0.0192
     12 C           4.1326    3.8181   -2.7520 C.ar    1  UNL1       -0.0583
     13 C           3.8658    4.6435   -1.6579 C.ar    1  UNL1       -0.0609
     14 C           3.7600    4.0947   -0.3803 C.ar    1  UNL1       -0.0477
     15 C           3.9356    2.7196   -0.2061 C.ar    1  UNL1        0.0613
     16 C           3.9366    2.1356    1.1462 C.2     1  UNL1        0.1932
     17 O           3.4884    2.7589    2.1034 O.2     1  UNL1       -0.2896
     18 C           4.5596    0.7694    1.2695 C.3     1  UNL1        0.1387
     19 N           5.9920    0.8962    1.4829 N.ar    1  UNL1       -0.3223
     20 C           6.5911    0.9922    2.7144 C.ar    1  UNL1        0.0250
     21 C           7.9333    1.1241    2.4550 C.ar    1  UNL1        0.0454
     22 N           8.1648    1.1394    1.1082 N.ar    1  UNL1       -0.2440
     23 C           6.9818    1.0243    0.5492 C.ar    1  UNL1        0.0967
     24 H           6.9261   -3.6008   -1.1509 H       1  UNL1        0.0632
     25 H           6.2045   -1.2634   -1.2724 H       1  UNL1        0.0622
     26 H           2.9721   -2.1363    1.4729 H       1  UNL1        0.0622
     27 H           3.7071   -4.4816    1.5613 H       1  UNL1        0.0632
     28 H           2.9716   -0.0789    0.0752 H       1  UNL1        0.0810
     29 H           4.5065    1.8071   -3.4288 H       1  UNL1        0.0654
     30 H           4.2288    4.2496   -3.7457 H       1  UNL1        0.0619
     31 H           3.7577    5.7165   -1.7993 H       1  UNL1        0.0618
     32 H           3.5765    4.7424    0.4749 H       1  UNL1        0.0626
     33 H           4.1540    0.3026    2.1774 H       1  UNL1        0.0651
     34 H           6.0318    0.9739    3.6409 H       1  UNL1        0.0825
     35 H           8.7439    1.2230    3.1678 H       1  UNL1        0.0845
     36 H           6.8136    1.0283   -0.5187 H       1  UNL1        0.1029
@<TRIPOS>BOND
     1     2     1    1
     2     3     2   ar
     3     3    24    1
     4     4     3   ar
     5     4    25    1
     6     5     4   ar
     7     6     5   ar
     8     6    26    1
     9     7     6   ar
    10     7     2   ar
    11     7    27    1
    12     9     8    1
    13    10     9    1
    14    11    10   ar
    15    11    29    1
    16    12    11   ar
    17    12    30    1
    18    13    12   ar
    19    13    31    1
    20    14    13   ar
    21    14    32    1
    22    15    14   ar
    23    15    10   ar
    24    16    15    1
    25    17    16    2
    26    18    16    1
    27    18     8    1
    28    20    19   ar
    29    20    34    1
    30    21    20   ar
    31    21    35    1
    32    22    21   ar
    33    23    22   ar
    34    23    19   ar
    35    23    36    1
    36     8    28    1
    37     8     5    1
    38    18    19    1
    39    18    33    1
