@<TRIPOS>MOLECULE
mol_327_akc_jactatropica201612027
>313_4.sdf
 36 39 0 0 0
SMALL
GASTEIGER

@<TRIPOS>ATOM
      1 CL         -2.2391   -0.2205    0.0893 Cl      1  UNL1       -0.0835
      2 C          -0.5217   -0.1433    0.0604 C.ar    1  UNL1        0.0410
      3 C           0.1306    0.3228   -1.0736 C.ar    1  UNL1       -0.0430
      4 C           1.5269    0.3885   -1.0943 C.ar    1  UNL1       -0.0536
      5 C           2.2961    0.0195    0.0258 C.ar    1  UNL1       -0.0048
      6 C           1.6121   -0.4847    1.1471 C.ar    1  UNL1       -0.0536
      7 C           0.2134   -0.5571    1.1665 C.ar    1  UNL1       -0.0430
      8 C           3.8330    0.1217    0.0242 C.3     1  UNL1        0.1529
      9 O           4.3264    0.6805   -1.2127 O.3     1  UNL1       -0.4810
     10 C           4.2898    2.0476   -1.2958 C.ar    1  UNL1        0.1320
     11 C           4.3786    2.5866   -2.5792 C.ar    1  UNL1       -0.0192
     12 C           4.2844    3.9666   -2.7617 C.ar    1  UNL1       -0.0583
     13 C           4.1165    4.8106   -1.6636 C.ar    1  UNL1       -0.0609
     14 C           4.0565    4.2768   -0.3760 C.ar    1  UNL1       -0.0477
     15 C           4.1523    2.8944   -0.1975 C.ar    1  UNL1        0.0613
     16 C           4.1394    2.3124    1.1549 C.2     1  UNL1        0.1932
     17 O           3.9438    3.0175    2.1410 O.2     1  UNL1       -0.2896
     18 C           4.4343    0.8384    1.2522 C.3     1  UNL1        0.1387
     19 N           5.8600    0.6219    1.4814 N.ar    1  UNL1       -0.3223
     20 C           6.4520    0.5717    2.7192 C.ar    1  UNL1        0.0250
     21 C           7.7953    0.4181    2.4736 C.ar    1  UNL1        0.0454
     22 N           8.0332    0.3530    1.1285 N.ar    1  UNL1       -0.2440
     23 C           6.8574    0.4858    0.5574 C.ar    1  UNL1        0.0967
     24 H          -0.4354    0.6363   -1.9473 H       1  UNL1        0.0632
     25 H           1.9960    0.7398   -2.0108 H       1  UNL1        0.0622
     26 H           2.1485   -0.8360    2.0261 H       1  UNL1        0.0622
     27 H          -0.2954   -0.9384    2.0485 H       1  UNL1        0.0632
     28 H           4.1878   -0.9185    0.0250 H       1  UNL1        0.0810
     29 H           4.4986    1.9326   -3.4390 H       1  UNL1        0.0654
     30 H           4.3387    4.3859   -3.7650 H       1  UNL1        0.0619
     31 H           4.0400    5.8858   -1.8085 H       1  UNL1        0.0618
     32 H           3.9429    4.9375    0.4809 H       1  UNL1        0.0626
     33 H           3.9420    0.4692    2.1602 H       1  UNL1        0.0651
     34 H           5.8951    0.6760    3.6406 H       1  UNL1        0.0825
     35 H           8.6026    0.3580    3.1922 H       1  UNL1        0.0845
     36 H           6.7016    0.4928   -0.5133 H       1  UNL1        0.1029
@<TRIPOS>BOND
     1     2     1    1
     2     3     2   ar
     3     3    24    1
     4     4     3   ar
     5     4    25    1
     6     5     4   ar
     7     6     5   ar
     8     6    26    1
     9     7     6   ar
    10     7     2   ar
    11     7    27    1
    12     8     5    1
    13     8    28    1
    14     9     8    1
    15    10     9    1
    16    11    10   ar
    17    11    29    1
    18    12    11   ar
    19    12    30    1
    20    13    12   ar
    21    13    31    1
    22    14    13   ar
    23    14    32    1
    24    15    14   ar
    25    15    10   ar
    26    16    15    1
    27    17    16    2
    28    18    16    1
    29    18     8    1
    30    20    19   ar
    31    20    34    1
    32    21    20   ar
    33    21    35    1
    34    22    21   ar
    35    23    22   ar
    36    23    19   ar
    37    23    36    1
    38    18    19    1
    39    18    33    1
