@<TRIPOS>MOLECULE
mol_328_akc_tjprv16i211
>314.sdf
 31 33 0 0 0
SMALL
GASTEIGER

@<TRIPOS>ATOM
      1 O           3.6447   -0.5847   -0.0001 O.3     1  UNL1       -0.5065
      2 C           2.3179   -0.2686    0.0119 C.ar    1  UNL1        0.1239
      3 C           1.8900    1.0549   -0.0069 C.ar    1  UNL1        0.0223
      4 C           0.5190    1.3292   -0.0015 C.ar    1  UNL1        0.1347
      5 O           0.1114    2.6325   -0.0233 O.3     1  UNL1       -0.5058
      6 C          -0.4180    0.2841    0.0166 C.ar    1  UNL1        0.1055
      7 C          -1.8812    0.5145    0.0062 C.ar    1  UNL1        0.1966
      8 O          -2.4138    1.6162    0.0371 O.2     1  UNL1       -0.2869
      9 C          -2.7339   -0.6832   -0.0536 C.ar    1  UNL1        0.0288
     10 C          -2.1678   -1.8937   -0.0360 C.ar    1  UNL1        0.1393
     11 O          -0.8097   -2.1292    0.0419 O.2     1  UNL1       -0.4544
     12 C           0.0341   -1.0407    0.0349 C.ar    1  UNL1        0.1462
     13 C           1.4037   -1.3168    0.0377 C.ar    1  UNL1        0.0231
     14 C          -3.0090   -3.0923   -0.1323 C.ar    1  UNL1        0.0211
     15 C          -3.5294   -3.7006    1.0223 C.ar    1  UNL1       -0.0474
     16 C          -4.3929   -4.7995    0.9234 C.ar    1  UNL1       -0.0159
     17 C          -4.7346   -5.2821   -0.3341 C.ar    1  UNL1        0.1583
     18 O          -5.5811   -6.3435   -0.4991 O.3     1  UNL1       -0.5033
     19 C          -4.2180   -4.6827   -1.4803 C.ar    1  UNL1        0.1589
     20 O          -4.5682   -5.1547   -2.7130 O.3     1  UNL1       -0.5033
     21 C          -3.3580   -3.5962   -1.3919 C.ar    1  UNL1       -0.0059
     22 H           4.1713    0.2293   -0.0524 H       1  UNL1        0.2921
     23 H           2.6121    1.8643   -0.0290 H       1  UNL1        0.0691
     24 H           0.8704    3.2356   -0.0118 H       1  UNL1        0.2922
     25 H          -3.8023   -0.5202   -0.1220 H       1  UNL1        0.0693
     26 H           1.7571   -2.3447    0.0507 H       1  UNL1        0.0691
     27 H          -3.2735   -3.3129    2.0067 H       1  UNL1        0.0626
     28 H          -4.7885   -5.2496    1.8284 H       1  UNL1        0.0655
     29 H          -5.8506   -6.6581    0.3812 H       1  UNL1        0.2923
     30 H          -5.1806   -5.8946   -2.5293 H       1  UNL1        0.2923
     31 H          -2.9773   -3.1403   -2.3023 H       1  UNL1        0.0662
@<TRIPOS>BOND
     1     1    22    1
     2     2     1    1
     3     3     2   ar
     4     3    23    1
     5     4     3   ar
     6     5     4    1
     7     5    24    1
     8     6     4   ar
     9     7     6   ar
    10     8     7    2
    11     9     7   ar
    12     9    25    1
    13    10     9   ar
    14    11    10   ar
    15    12    11   ar
    16    12     6   ar
    17    13    12   ar
    18    13     2   ar
    19    13    26    1
    20    14    10    1
    21    15    14   ar
    22    15    27    1
    23    16    15   ar
    24    16    28    1
    25    17    16   ar
    26    18    17    1
    27    18    29    1
    28    19    17   ar
    29    20    19    1
    30    20    30    1
    31    21    19   ar
    32    21    14   ar
    33    21    31    1
