@<TRIPOS>MOLECULE
mol_329_akc_jbioorg201611013
>315.sdf
 58 63 0 0 0
SMALL
GASTEIGER

@<TRIPOS>ATOM
      1 C           5.2270    2.6443    0.6681 C.3     1  UNL1        0.0789
      2 O           4.0635    3.0571   -0.0433 O.3     1  UNL1       -0.4933
      3 C           3.7530    2.2784   -1.1375 C.ar    1  UNL1        0.1410
      4 C           2.3920    2.0144   -1.4203 C.ar    1  UNL1        0.0720
      5 C           2.1269    1.2862   -2.6013 C.ar    1  UNL1       -0.0371
      6 C           3.1380    0.8468   -3.4616 C.ar    1  UNL1       -0.0598
      7 C           4.4609    1.1280   -3.1635 C.ar    1  UNL1       -0.0582
      8 C           4.7670    1.8499   -2.0146 C.ar    1  UNL1       -0.0181
      9 N           1.3188    2.3439   -0.6002 N.pl3   1  UNL1       -0.3241
     10 C           1.4617    2.6087    0.8440 C.3     1  UNL1        0.0281
     11 C           0.2172    2.0691    1.5835 C.3     1  UNL1        0.0308
     12 N          -1.0338    2.5539    0.9867 N.am    1  UNL1       -0.2933
     13 C          -1.1400    2.3252   -0.4574 C.3     1  UNL1        0.0308
     14 C           0.0865    2.9167   -1.1832 C.3     1  UNL1        0.0281
     15 C          -2.0782    3.1897    1.6431 C.2     1  UNL1        0.2651
     16 O          -3.2210    3.1753    1.1747 O.2     1  UNL1       -0.2683
     17 C          -1.8211    4.0531    2.8513 C.ar    1  UNL1        0.1270
     18 C          -2.9368    4.6637    3.4260 C.ar    1  UNL1       -0.0214
     19 C          -2.6979    5.8339    4.1595 C.ar    1  UNL1        0.0117
     20 C          -1.3777    6.2309    4.3548 C.ar    1  UNL1        0.0744
     21 N          -1.4191    7.4833    4.9206 N.ar    1  UNL1       -0.3524
     22 C          -2.7132    7.8736    5.1563 C.ar    1  UNL1        0.0475
     23 C          -3.2092    9.0786    5.6613 C.ar    1  UNL1       -0.0378
     24 C          -4.5902    9.1774    5.8459 C.ar    1  UNL1       -0.0598
     25 C          -5.4340    8.1121    5.5380 C.ar    1  UNL1       -0.0611
     26 C          -4.9230    6.9316    4.9863 C.ar    1  UNL1       -0.0520
     27 C          -3.5350    6.8144    4.7749 C.ar    1  UNL1        0.0075
     28 C          -0.3023    5.4361    3.9622 C.ar    1  UNL1        0.1022
     29 N          -0.5356    4.3822    3.1496 N.ar    1  UNL1       -0.2395
     30 C           1.0457    5.7039    4.4566 C.ar    1  UNL1        0.0396
     31 C           1.4256    6.1840    5.7023 C.ar    1  UNL1       -0.0454
     32 C           2.8334    6.3452    5.8351 C.ar    1  UNL1       -0.0541
     33 C           3.4973    5.9473    4.6954 C.ar    1  UNL1       -0.0237
     34 S           2.4249    5.3971    3.4849 S.2     1  UNL1       -0.0951
     35 H           5.2584    1.5569    0.8022 H       1  UNL1        0.0660
     36 H           6.1346    3.0032    0.1730 H       1  UNL1        0.0660
     37 H           5.1914    3.1019    1.6613 H       1  UNL1        0.0660
     38 H           1.1073    1.0067   -2.8489 H       1  UNL1        0.0637
     39 H           2.8814    0.2814   -4.3525 H       1  UNL1        0.0618
     40 H           5.2526    0.7925   -3.8282 H       1  UNL1        0.0619
     41 H           5.8080    2.0855   -1.8239 H       1  UNL1        0.0655
     42 H           2.3271    2.0912    1.2736 H       1  UNL1        0.0479
     43 H           1.5654    3.6833    1.0096 H       1  UNL1        0.0479
     44 H           0.1935    0.9768    1.4696 H       1  UNL1        0.0480
     45 H           0.2687    2.2525    2.6578 H       1  UNL1        0.0480
     46 H          -1.1938    1.2425   -0.6194 H       1  UNL1        0.0480
     47 H          -2.0516    2.7766   -0.8621 H       1  UNL1        0.0480
     48 H           0.1049    4.0071   -1.0454 H       1  UNL1        0.0479
     49 H          -0.0156    2.7432   -2.2591 H       1  UNL1        0.0479
     50 H          -3.9458    4.3576    3.1742 H       1  UNL1        0.0647
     51 H          -0.6092    8.0662    5.0737 H       1  UNL1        0.1660
     52 H          -2.5537    9.9103    5.8980 H       1  UNL1        0.0638
     53 H          -5.0109   10.1000    6.2389 H       1  UNL1        0.0618
     54 H          -6.5036    8.2037    5.7111 H       1  UNL1        0.0618
     55 H          -5.5922    6.1161    4.7266 H       1  UNL1        0.0624
     56 H           0.7235    6.4042    6.4971 H       1  UNL1        0.0629
     57 H           3.3321    6.7163    6.7218 H       1  UNL1        0.0623
     58 H           4.5639    5.9478    4.5204 H       1  UNL1        0.0693
@<TRIPOS>BOND
     1     1    35    1
     2     1    36    1
     3     1    37    1
     4     2     1    1
     5     3     2    1
     6     4     3   ar
     7     5     4   ar
     8     5    38    1
     9     6     5   ar
    10     6    39    1
    11     7     6   ar
    12     7    40    1
    13     8     7   ar
    14     8     3   ar
    15     8    41    1
    16     9     4    1
    17    10     9    1
    18    10    42    1
    19    10    43    1
    20    11    10    1
    21    11    44    1
    22    11    45    1
    23    12    11    1
    24    13    12    1
    25    13    46    1
    26    13    47    1
    27    14    13    1
    28    14     9    1
    29    14    48    1
    30    14    49    1
    31    15    12   am
    32    16    15    2
    33    17    15    1
    34    18    17   ar
    35    18    50    1
    36    19    18   ar
    37    20    19   ar
    38    21    20   ar
    39    21    51    1
    40    22    21   ar
    41    23    22   ar
    42    23    52    1
    43    24    23   ar
    44    24    53    1
    45    25    24   ar
    46    25    54    1
    47    26    25   ar
    48    26    55    1
    49    27    26   ar
    50    27    19   ar
    51    27    22   ar
    52    28    20   ar
    53    29    28   ar
    54    29    17   ar
    55    30    28    1
    56    31    30   ar
    57    31    56    1
    58    32    31   ar
    59    32    57    1
    60    33    32   ar
    61    33    58    1
    62    34    33   ar
    63    34    30   ar
