@<TRIPOS>MOLECULE
mol_32_akc_jejmech200909012
>32.sdf
 47 49 0 0 0
SMALL
GASTEIGER

@<TRIPOS>ATOM
      1 C           1.7940    2.4509   -2.7601 C.3     1  UNL1       -0.0494
      2 C           2.1737    2.0344   -1.3461 C.3     1  UNL1        0.0097
      3 N           2.9236    0.7454   -1.3239 N.pl3   1  UNL1       -0.3222
      4 C           2.4040   -0.1962   -0.2909 C.3     1  UNL1        0.0522
      5 C           1.5611   -1.2944   -0.9645 C.3     1  UNL1       -0.0193
      6 N           2.3028   -1.8488   -2.1215 N.4     1  UNL1        0.2196
      7 C           4.3336    0.8013   -1.5180 C.ar    1  UNL1        0.0736
      8 C           4.9696    1.9934   -1.9546 C.ar    1  UNL1       -0.0159
      9 C           6.3612    2.1209   -2.1416 C.ar    1  UNL1        0.0333
     10 N           6.9092    3.3263   -2.6281 N.pl3   1  UNL1       -0.3139
     11 C           8.2232    3.8204   -2.4016 C.ar    1  UNL1        0.0420
     12 C           8.8074    3.6981   -1.1398 C.ar    1  UNL1       -0.0218
     13 C          10.0949    4.1527   -0.9573 C.ar    1  UNL1        0.0300
     14 N          10.8274    4.7227   -1.9327 N.ar    1  UNL1       -0.2548
     15 C          10.2677    4.8827   -3.1399 C.ar    1  UNL1        0.0741
     16 C           8.9441    4.4756   -3.4334 C.ar    1  UNL1        0.0216
     17 C           8.4323    4.7028   -4.7323 C.ar    1  UNL1       -0.0494
     18 C           9.2185    5.3000   -5.7186 C.ar    1  UNL1       -0.0426
     19 C          10.5252    5.6638   -5.4168 C.ar    1  UNL1        0.0430
     20 CL         11.5199    6.3596   -6.6356 Cl      1  UNL1       -0.0835
     21 C          11.0357    5.4602   -4.1393 C.ar    1  UNL1       -0.0173
     22 C           7.1569    1.0022   -1.9047 C.ar    1  UNL1       -0.0370
     23 C           6.5888   -0.2007   -1.5159 C.ar    1  UNL1       -0.0166
     24 C           5.2001   -0.3100   -1.3519 C.ar    1  UNL1        0.1379
     25 O           4.7185   -1.5723   -1.0701 O.3     1  UNL1       -0.5049
     26 H           1.3800    3.4653   -2.7459 H       1  UNL1        0.0245
     27 H           2.6386    2.4411   -3.4533 H       1  UNL1        0.0245
     28 H           1.0301    1.7804   -3.1643 H       1  UNL1        0.0245
     29 H           2.7206    2.8224   -0.8144 H       1  UNL1        0.0461
     30 H           1.2290    1.9315   -0.7967 H       1  UNL1        0.0461
     31 H           3.1911   -0.6317    0.3316 H       1  UNL1        0.0516
     32 H           1.7665    0.3276    0.4320 H       1  UNL1        0.0516
     33 H           1.3362   -2.1169   -0.2805 H       1  UNL1        0.0829
     34 H           0.6303   -0.8859   -1.3700 H       1  UNL1        0.0829
     35 H           2.5438   -1.0569   -2.7397 H       1  UNL1        0.1995
     36 H           3.2289   -2.1812   -1.8053 H       1  UNL1        0.1995
     37 H           1.8168   -2.5798   -2.6446 H       1  UNL1        0.1995
     38 H           4.3926    2.8896   -2.1559 H       1  UNL1        0.0656
     39 H           6.2479    4.0858   -2.7568 H       1  UNL1        0.1522
     40 H           8.2725    3.2520   -0.3074 H       1  UNL1        0.0651
     41 H          10.5919    4.0655    0.0042 H       1  UNL1        0.0830
     42 H           7.4184    4.4041   -4.9877 H       1  UNL1        0.0625
     43 H           8.8161    5.4636   -6.7139 H       1  UNL1        0.0632
     44 H          12.0597    5.7468   -3.9106 H       1  UNL1        0.0653
     45 H           8.2338    1.0509   -2.0635 H       1  UNL1        0.0637
     46 H           7.2493   -1.0546   -1.3739 H       1  UNL1        0.0655
     47 H           5.4825   -2.0818   -0.7252 H       1  UNL1        0.2922
@<TRIPOS>UNITY_ATOM_ATTR
6 1
charge 1
@<TRIPOS>BOND
     1     1    26    1
     2     1    27    1
     3     1    28    1
     4     2     1    1
     5     2    29    1
     6     2    30    1
     7     3     2    1
     8     4     3    1
     9     4    31    1
    10     4    32    1
    11     5     4    1
    12     5    33    1
    13     5    34    1
    14     6     5    1
    15     6    35    1
    16     6    36    1
    17     6    37    1
    18     7     3    1
    19     8     7   ar
    20     8    38    1
    21     9     8   ar
    22    10     9    1
    23    10    39    1
    24    11    10    1
    25    12    11   ar
    26    12    40    1
    27    13    12   ar
    28    13    41    1
    29    14    13   ar
    30    15    14   ar
    31    16    15   ar
    32    16    11   ar
    33    17    16   ar
    34    17    42    1
    35    18    17   ar
    36    18    43    1
    37    19    18   ar
    38    20    19    1
    39    21    19   ar
    40    21    15   ar
    41    21    44    1
    42    22     9   ar
    43    22    45    1
    44    23    22   ar
    45    23    46    1
    46    24    23   ar
    47    24     7   ar
    48    25    24    1
    49    25    47    1
