@<TRIPOS>MOLECULE
mol_330_akc_journalpntd0006157
>316.sdf
 74 78 0 0 0
SMALL
GASTEIGER

@<TRIPOS>ATOM
      1 C           4.0065    1.1249    0.5039 C.3     1  UNL1       -0.0648
      2 C           5.4015    1.3246   -0.0492 C.3     1  UNL1       -0.0480
      3 C           5.7239    2.6272   -0.8343 C.3     1  UNL1        0.0022
      4 C           7.2450    2.5111   -1.0973 C.3     1  UNL1       -0.0282
      5 N           7.8018    3.6195   -1.9207 N.4     1  UNL1        0.2411
      6 C           9.2811    3.3593   -2.1958 C.3     1  UNL1       -0.0272
      7 C           9.9369    4.6111   -2.7521 C.3     1  UNL1        0.0133
      8 C           9.1014    5.3159   -3.7901 C.ar    1  UNL1       -0.0302
      9 C           9.7133    6.3541   -4.5180 C.ar    1  UNL1       -0.0125
     10 C           9.0136    7.0990   -5.4730 C.ar    1  UNL1        0.1618
     11 O           9.5843    8.1145   -6.1852 O.3     1  UNL1       -0.4914
     12 C          10.9312    8.4804   -5.9034 C.3     1  UNL1        0.0790
     13 C           7.6705    6.7780   -5.7089 C.ar    1  UNL1        0.1620
     14 O           6.7928    7.3508   -6.5932 O.3     1  UNL1       -0.4914
     15 C           7.2214    8.4698   -7.3618 C.3     1  UNL1        0.0790
     16 C           7.0625    5.7344   -4.9816 C.ar    1  UNL1       -0.0075
     17 C           7.7462    5.0035   -3.9981 C.ar    1  UNL1        0.0072
     18 C           7.0927    3.8629   -3.2305 C.3     1  UNL1        0.0056
     19 C           5.5893    4.0468   -2.9333 C.3     1  UNL1       -0.0018
     20 C           4.9377    2.8647   -2.1639 C.3     1  UNL1       -0.0226
     21 C           3.4015    3.1557   -1.9815 C.3     1  UNL1       -0.0019
     22 C           2.5211    3.2271   -3.2760 C.3     1  UNL1        0.0039
     23 N           2.7332    1.9405   -4.0399 N.4     1  UNL1        0.2327
     24 C           1.8810    1.8549   -5.2684 C.3     1  UNL1       -0.0290
     25 C           0.4261    1.7592   -4.8488 C.3     1  UNL1        0.0132
     26 C           0.0571    2.8193   -3.8415 C.ar    1  UNL1       -0.0302
     27 C          -1.3087    3.1052   -3.6711 C.ar    1  UNL1       -0.0127
     28 C          -1.7299    4.0806   -2.7699 C.ar    1  UNL1        0.1587
     29 O          -3.0668    4.3229   -2.6602 O.3     1  UNL1       -0.5033
     30 C          -0.7866    4.7820   -2.0188 C.ar    1  UNL1        0.1617
     31 O          -1.0089    5.7838   -1.1078 O.3     1  UNL1       -0.4914
     32 C          -2.3527    6.1900   -0.8647 C.3     1  UNL1        0.0790
     33 C           0.5803    4.4812   -2.1736 C.ar    1  UNL1       -0.0076
     34 C           1.0316    3.4878   -3.0641 C.ar    1  UNL1        0.0071
     35 H           4.0366    0.3899    1.3165 H       1  UNL1        0.0230
     36 H           3.5888    2.0516    0.9051 H       1  UNL1        0.0230
     37 H           3.3404    0.7085   -0.2564 H       1  UNL1        0.0230
     38 H           6.0807    1.2887    0.8151 H       1  UNL1        0.0267
     39 H           5.6569    0.4514   -0.6635 H       1  UNL1        0.0267
     40 H           5.5492    3.4861   -0.1726 H       1  UNL1        0.0355
     41 H           7.7929    2.5260   -0.1472 H       1  UNL1        0.0817
     42 H           7.4780    1.5765   -1.6228 H       1  UNL1        0.0817
     43 H           7.7487    4.4921   -1.3739 H       1  UNL1        0.2040
     44 H           9.7572    3.0619   -1.2551 H       1  UNL1        0.0818
     45 H           9.3357    2.5219   -2.9026 H       1  UNL1        0.0818
     46 H          10.1257    5.3138   -1.9319 H       1  UNL1        0.0365
     47 H          10.9069    4.3335   -3.1827 H       1  UNL1        0.0365
     48 H          10.7609    6.5668   -4.3149 H       1  UNL1        0.0658
     49 H          11.0472    8.7911   -4.8595 H       1  UNL1        0.0660
     50 H          11.6180    7.6649   -6.1529 H       1  UNL1        0.0660
     51 H          11.1862    9.3365   -6.5347 H       1  UNL1        0.0660
     52 H           7.5008    9.3106   -6.7191 H       1  UNL1        0.0660
     53 H           8.0231    8.1917   -8.0527 H       1  UNL1        0.0660
     54 H           6.3715    8.7963   -7.9693 H       1  UNL1        0.0660
     55 H           6.0234    5.5260   -5.2251 H       1  UNL1        0.0660
     56 H           7.2175    2.9480   -3.8265 H       1  UNL1        0.0904
     57 H           5.0584    4.1631   -3.8824 H       1  UNL1        0.0326
     58 H           5.4363    4.9785   -2.3714 H       1  UNL1        0.0326
     59 H           5.0551    1.9550   -2.7634 H       1  UNL1        0.0309
     60 H           2.9473    2.3955   -1.3488 H       1  UNL1        0.0326
     61 H           3.3076    4.0969   -1.4255 H       1  UNL1        0.0326
     62 H           2.8942    4.0246   -3.9292 H       1  UNL1        0.0904
     63 H           2.4917    1.1506   -3.4247 H       1  UNL1        0.2020
     64 H           3.7062    1.8241   -4.3288 H       1  UNL1        0.2020
     65 H           2.0913    2.7439   -5.8730 H       1  UNL1        0.0817
     66 H           2.1975    0.9629   -5.8173 H       1  UNL1        0.0817
     67 H          -0.2029    1.8493   -5.7418 H       1  UNL1        0.0365
     68 H           0.2316    0.7772   -4.3999 H       1  UNL1        0.0365
     69 H          -2.0470    2.5646   -4.2629 H       1  UNL1        0.0658
     70 H          -3.5765    3.7632   -3.2666 H       1  UNL1        0.2923
     71 H          -2.8150    6.6016   -1.7678 H       1  UNL1        0.0660
     72 H          -2.9418    5.3730   -0.4362 H       1  UNL1        0.0660
     73 H          -2.3264    6.9930   -0.1219 H       1  UNL1        0.0660
     74 H           1.2804    5.0683   -1.5827 H       1  UNL1        0.0660
@<TRIPOS>UNITY_ATOM_ATTR
5 1
charge 1
23 1
charge 1
@<TRIPOS>BOND
     1     1    35    1
     2     1    36    1
     3     1    37    1
     4     2     1    1
     5     2    38    1
     6     2    39    1
     7     3     2    1
     8     3    40    1
     9     4     3    1
    10     4    41    1
    11     4    42    1
    12     5     4    1
    13     5    43    1
    14     6     5    1
    15     6    44    1
    16     6    45    1
    17     7     6    1
    18     7    46    1
    19     7    47    1
    20     8     7    1
    21     9     8   ar
    22     9    48    1
    23    10     9   ar
    24    11    10    1
    25    12    11    1
    26    12    49    1
    27    12    50    1
    28    12    51    1
    29    13    10   ar
    30    14    13    1
    31    15    14    1
    32    15    52    1
    33    15    53    1
    34    15    54    1
    35    16    13   ar
    36    16    55    1
    37    17    16   ar
    38    17     8   ar
    39    18    17    1
    40    18     5    1
    41    18    56    1
    42    19    18    1
    43    19    57    1
    44    19    58    1
    45    20    19    1
    46    20     3    1
    47    20    59    1
    48    21    20    1
    49    21    60    1
    50    21    61    1
    51    23    22    1
    52    23    63    1
    53    23    64    1
    54    24    23    1
    55    24    65    1
    56    24    66    1
    57    25    24    1
    58    25    67    1
    59    25    68    1
    60    26    25    1
    61    27    26   ar
    62    27    69    1
    63    28    27   ar
    64    29    28    1
    65    29    70    1
    66    30    28   ar
    67    31    30    1
    68    32    31    1
    69    32    71    1
    70    32    72    1
    71    32    73    1
    72    33    30   ar
    73    33    74    1
    74    34    33   ar
    75    34    22    1
    76    34    26   ar
    77    22    62    1
    78    22    21    1
