@<TRIPOS>MOLECULE
mol_331_akc_journalpntd0006157
>317.sdf
 43 46 0 0 0
SMALL
GASTEIGER

@<TRIPOS>ATOM
      1 F           1.6157    5.2514    0.0275 F       1  UNL1       -0.2035
      2 C           0.5258    4.7755    0.6490 C.ar    1  UNL1        0.1445
      3 C           0.2352    3.4031    0.6357 C.ar    1  UNL1        0.0692
      4 N           1.0455    2.4328    0.0150 N.pl3   1  UNL1       -0.2812
      5 C           2.4432    2.4297   -0.0448 C.ar    1  UNL1        0.2218
      6 N           3.1553    3.0236    0.9164 N.ar    1  UNL1       -0.1988
      7 C           4.4940    2.9945    0.8365 C.ar    1  UNL1        0.1318
      8 N           5.0644    3.7757    1.8166 N.pl3   1  UNL1       -0.3243
      9 C           6.2150    3.3922    2.6087 C.3     1  UNL1        0.0357
     10 C           7.2679    4.4845    2.5644 C.ar    1  UNL1       -0.0304
     11 C           8.2460    4.5506    3.5678 C.ar    1  UNL1       -0.0571
     12 C           9.2309    5.5419    3.5381 C.ar    1  UNL1       -0.0615
     13 C           9.2593    6.4743    2.5025 C.ar    1  UNL1       -0.0617
     14 C           8.3065    6.4146    1.4906 C.ar    1  UNL1       -0.0615
     15 C           7.3257    5.4261    1.5200 C.ar    1  UNL1       -0.0571
     16 C           5.1650    2.3278   -0.2025 C.ar    1  UNL1        0.0402
     17 C           6.5714    2.2473   -0.4101 C.ar    1  UNL1       -0.0493
     18 C           7.1124    1.5361   -1.4801 C.ar    1  UNL1       -0.0610
     19 C           6.2623    0.9229   -2.3845 C.ar    1  UNL1       -0.0597
     20 C           4.8812    1.0271   -2.2086 C.ar    1  UNL1       -0.0355
     21 C           4.3198    1.7130   -1.1360 C.ar    1  UNL1        0.0779
     22 N           2.9862    1.7617   -1.0658 N.ar    1  UNL1       -0.2141
     23 C          -0.9812    2.9870    1.1955 C.ar    1  UNL1       -0.0377
     24 C          -1.8361    3.9007    1.8203 C.ar    1  UNL1       -0.0598
     25 C          -1.5022    5.2531    1.8662 C.ar    1  UNL1       -0.0589
     26 C          -0.3234    5.6928    1.2683 C.ar    1  UNL1       -0.0246
     27 H           0.7102    2.1438   -0.8950 H       1  UNL1        0.1551
     28 H           4.2960    4.1219    2.3886 H       1  UNL1        0.1478
     29 H           5.8830    3.2708    3.6476 H       1  UNL1        0.0511
     30 H           6.6520    2.4334    2.3128 H       1  UNL1        0.0511
     31 H           8.2431    3.8341    4.3868 H       1  UNL1        0.0621
     32 H           9.9774    5.5889    4.3283 H       1  UNL1        0.0618
     33 H          10.0221    7.2482    2.4833 H       1  UNL1        0.0618
     34 H           8.3211    7.1369    0.6802 H       1  UNL1        0.0618
     35 H           6.5877    5.4033    0.7184 H       1  UNL1        0.0621
     36 H           7.2642    2.7459    0.2581 H       1  UNL1        0.0625
     37 H           8.1903    1.4725   -1.6054 H       1  UNL1        0.0618
     38 H           6.6638    0.3740   -3.2320 H       1  UNL1        0.0618
     39 H           4.2204    0.5606   -2.9363 H       1  UNL1        0.0639
     40 H          -1.2509    1.9337    1.1763 H       1  UNL1        0.0637
     41 H          -2.7598    3.5522    2.2758 H       1  UNL1        0.0618
     42 H          -2.1626    5.9628    2.3574 H       1  UNL1        0.0618
     43 H          -0.0581    6.7452    1.2721 H       1  UNL1        0.0647
@<TRIPOS>BOND
     1     2     1    1
     2     3     2   ar
     3     4     3    1
     4     4    27    1
     5     5     4    1
     6     6     5   ar
     7     7     6   ar
     8     8     7    1
     9     8    28    1
    10     9     8    1
    11     9    29    1
    12     9    30    1
    13    10     9    1
    14    11    10   ar
    15    11    31    1
    16    12    11   ar
    17    12    32    1
    18    13    12   ar
    19    13    33    1
    20    14    13   ar
    21    14    34    1
    22    15    14   ar
    23    15    10   ar
    24    15    35    1
    25    16     7   ar
    26    17    16   ar
    27    17    36    1
    28    18    17   ar
    29    18    37    1
    30    19    18   ar
    31    19    38    1
    32    20    19   ar
    33    20    39    1
    34    21    20   ar
    35    21    16   ar
    36    22    21   ar
    37    22     5   ar
    38    23     3   ar
    39    23    40    1
    40    24    23   ar
    41    24    41    1
    42    25    24   ar
    43    25    42    1
    44    26    25   ar
    45    26     2   ar
    46    26    43    1
