@<TRIPOS>MOLECULE
mol_332_akc_journalpntd0006157
>318.sdf
 53 56 0 0 0
SMALL
GASTEIGER

@<TRIPOS>ATOM
      1 C           5.5428   -8.8894  -11.0676 C.3     1  UNL1        0.0788
      2 O           6.7357   -8.5429  -10.3726 O.3     1  UNL1       -0.4951
      3 C           6.5778   -7.8585   -9.1987 C.ar    1  UNL1        0.1202
      4 C           5.3623   -7.4480   -8.6591 C.ar    1  UNL1       -0.0182
      5 C           5.3327   -6.7571   -7.4455 C.ar    1  UNL1       -0.0371
      6 C           6.5057   -6.4937   -6.7293 C.ar    1  UNL1        0.0326
      7 N           6.4897   -5.7239   -5.5354 N.pl3   1  UNL1       -0.2993
      8 C           5.4829   -5.8387   -4.5399 C.ar    1  UNL1        0.1280
      9 N           4.7549   -6.9629   -4.4602 N.ar    1  UNL1       -0.1992
     10 C           3.9047   -7.1353   -3.4368 C.ar    1  UNL1        0.2212
     11 N           3.1701   -8.3225   -3.3541 N.pl3   1  UNL1       -0.2836
     12 C           2.8593   -9.2012   -4.3982 C.ar    1  UNL1        0.0337
     13 C           2.7927  -10.5850   -4.1966 C.ar    1  UNL1       -0.0387
     14 C           2.5865  -11.4602   -5.2763 C.ar    1  UNL1       -0.0376
     15 C           2.4567  -10.9506   -6.5664 C.ar    1  UNL1        0.0482
     16 N           2.2927  -11.8016   -7.6915 N.pl3   1  UNL1       -0.2163
     17 S           0.7314  -12.1945   -8.2040 S.O2    1  UNL1        0.0723
     18 O           0.8774  -13.0501   -9.3554 O.2     1  UNL1       -0.1500
     19 O          -0.0335  -12.6111   -7.0475 O.2     1  UNL1       -0.1500
     20 C           0.0970  -10.6366   -8.7773 C.ar    1  UNL1        0.1086
     21 C           0.7034  -10.0107   -9.8727 C.ar    1  UNL1       -0.0337
     22 C           0.2793   -8.7351  -10.2529 C.ar    1  UNL1       -0.0415
     23 C          -0.7564   -8.1101   -9.5545 C.ar    1  UNL1        0.0411
     24 CL         -1.2531   -6.5260  -10.0056 Cl      1  UNL1       -0.0835
     25 C          -1.3823   -8.7517   -8.4846 C.ar    1  UNL1       -0.0415
     26 C          -0.9566  -10.0219   -8.0926 C.ar    1  UNL1       -0.0337
     27 C           2.4741   -9.5782   -6.7719 C.ar    1  UNL1       -0.0376
     28 C           2.6584   -8.7172   -5.6960 C.ar    1  UNL1       -0.0387
     29 N           3.7400   -6.2282   -2.4671 N.ar    1  UNL1       -0.2225
     30 C           4.4377   -5.0834   -2.5929 C.ar    1  UNL1        0.0344
     31 C           5.3442   -4.8440   -3.5989 C.ar    1  UNL1       -0.0033
     32 C           7.7262   -6.8637   -7.2998 C.ar    1  UNL1       -0.0371
     33 C           7.7596   -7.5553   -8.5175 C.ar    1  UNL1       -0.0182
     34 H           4.8986   -9.5307  -10.4560 H       1  UNL1        0.0660
     35 H           5.0066   -7.9928  -11.3970 H       1  UNL1        0.0660
     36 H           5.8234   -9.4559  -11.9603 H       1  UNL1        0.0660
     37 H           4.4162   -7.6424   -9.1506 H       1  UNL1        0.0655
     38 H           4.3728   -6.4335   -7.0548 H       1  UNL1        0.0637
     39 H           6.6049   -4.7490   -5.7968 H       1  UNL1        0.1536
     40 H           3.1140   -8.6472   -2.4027 H       1  UNL1        0.1550
     41 H           2.9248  -11.0015   -3.2001 H       1  UNL1        0.0637
     42 H           2.5421  -12.5305   -5.0977 H       1  UNL1        0.0637
     43 H           2.9326  -12.5892   -7.7867 H       1  UNL1        0.1737
     44 H           1.5222  -10.4932  -10.4011 H       1  UNL1        0.0638
     45 H           0.7652   -8.2275  -11.0826 H       1  UNL1        0.0633
     46 H          -2.1892   -8.2634   -7.9434 H       1  UNL1        0.0633
     47 H          -1.4292  -10.5093   -7.2414 H       1  UNL1        0.0638
     48 H           2.3763   -9.1530   -7.7651 H       1  UNL1        0.0637
     49 H           2.6600   -7.6471   -5.8830 H       1  UNL1        0.0637
     50 H           4.2438   -4.3375   -1.8275 H       1  UNL1        0.0832
     51 H           5.9093   -3.9251   -3.6389 H       1  UNL1        0.0667
     52 H           8.6579   -6.6442   -6.7854 H       1  UNL1        0.0637
     53 H           8.7151   -7.8617   -8.9356 H       1  UNL1        0.0655
@<TRIPOS>BOND
     1     1    34    1
     2     1    35    1
     3     1    36    1
     4     2     1    1
     5     3     2    1
     6     4     3   ar
     7     4    37    1
     8     5     4   ar
     9     5    38    1
    10     6     5   ar
    11     7     6    1
    12     7    39    1
    13     8     7    1
    14     9     8   ar
    15    10     9   ar
    16    11    10    1
    17    11    40    1
    18    12    11    1
    19    13    12   ar
    20    13    41    1
    21    14    13   ar
    22    14    42    1
    23    15    14   ar
    24    16    15    1
    25    16    43    1
    26    17    16    1
    27    18    17    2
    28    19    17    2
    29    20    17    1
    30    21    20   ar
    31    21    44    1
    32    22    21   ar
    33    22    45    1
    34    23    22   ar
    35    24    23    1
    36    25    23   ar
    37    25    46    1
    38    26    25   ar
    39    26    20   ar
    40    26    47    1
    41    27    15   ar
    42    27    48    1
    43    28    27   ar
    44    28    12   ar
    45    28    49    1
    46    29    10   ar
    47    30    29   ar
    48    30    50    1
    49    31    30   ar
    50    31     8   ar
    51    31    51    1
    52    32     6   ar
    53    32    52    1
    54    33    32   ar
    55    33     3   ar
    56    33    53    1
