@<TRIPOS>MOLECULE
mol_336_akc_journalpntd0006157
>322.sdf
 52 54 0 0 0
SMALL
GASTEIGER

@<TRIPOS>ATOM
      1 C           3.9195    0.2756   -2.6189 C.3     1  UNL1       -0.0653
      2 C           5.3114    0.0349   -2.0577 C.3     1  UNL1       -0.0559
      3 C           5.8243    1.2638   -1.3134 C.3     1  UNL1       -0.0533
      4 C           7.2276    1.0347   -0.7504 C.3     1  UNL1       -0.0531
      5 C           7.7004    2.2775   -0.0012 C.3     1  UNL1       -0.0530
      6 C           9.0858    2.0880    0.6166 C.3     1  UNL1       -0.0514
      7 C           9.5769    3.3399    1.3504 C.3     1  UNL1       -0.0350
      8 C           8.6822    3.7239    2.5340 C.3     1  UNL1        0.0236
      9 N           9.1538    4.9571    3.1899 N.ar    1  UNL1       -0.3434
     10 C          10.0000    4.9306    4.2848 C.ar    1  UNL1        0.0243
     11 C          10.3205    5.9803    5.0488 C.ar    1  UNL1       -0.0062
     12 C          11.2668    5.6369    6.1416 C.3     1  UNL1       -0.0238
     13 C          11.7364    4.2378    5.7488 C.3     1  UNL1       -0.0436
     14 C          10.6875    3.6896    4.7814 C.3     1  UNL1       -0.0117
     15 C           9.7104    7.2752    4.7370 C.ar    1  UNL1        0.0292
     16 N           9.8832    8.2514    5.5141 N.2     1  UNL1       -0.4603
     17 C           8.8919    7.3837    3.4894 C.ar    1  UNL1        0.0200
     18 C           8.6527    6.2067    2.7332 C.ar    1  UNL1        0.0511
     19 C           7.9314    6.3557    1.5352 C.ar    1  UNL1       -0.0375
     20 C           7.4521    7.5992    1.1133 C.ar    1  UNL1       -0.0598
     21 C           7.6675    8.7316    1.8863 C.ar    1  UNL1       -0.0610
     22 C           8.3837    8.6296    3.0767 C.ar    1  UNL1       -0.0507
     23 H           3.5665   -0.6131   -3.1508 H       1  UNL1        0.0230
     24 H           3.2071    0.4992   -1.8182 H       1  UNL1        0.0230
     25 H           3.9204    1.1155   -3.3212 H       1  UNL1        0.0230
     26 H           5.2842   -0.8260   -1.3799 H       1  UNL1        0.0263
     27 H           5.9943   -0.2156   -2.8772 H       1  UNL1        0.0263
     28 H           5.8377    2.1271   -1.9901 H       1  UNL1        0.0265
     29 H           5.1359    1.5092   -0.4948 H       1  UNL1        0.0265
     30 H           7.2162    0.1754   -0.0688 H       1  UNL1        0.0265
     31 H           7.9249    0.7998   -1.5628 H       1  UNL1        0.0265
     32 H           7.7183    3.1370   -0.6823 H       1  UNL1        0.0265
     33 H           6.9656    2.4989    0.7793 H       1  UNL1        0.0265
     34 H           9.0743    1.2376    1.3088 H       1  UNL1        0.0266
     35 H           9.8052    1.8440   -0.1748 H       1  UNL1        0.0266
     36 H          10.5965    3.1546    1.7084 H       1  UNL1        0.0282
     37 H           9.6566    4.1687    0.6380 H       1  UNL1        0.0282
     38 H           7.6328    3.8364    2.2448 H       1  UNL1        0.0492
     39 H           8.6679    2.8949    3.2532 H       1  UNL1        0.0492
     40 H          12.1132    6.3287    6.1896 H       1  UNL1        0.0314
     41 H          10.7565    5.6279    7.1105 H       1  UNL1        0.0314
     42 H          12.7091    4.3019    5.2426 H       1  UNL1        0.0272
     43 H          11.8693    3.5889    6.6204 H       1  UNL1        0.0272
     44 H          11.1725    3.1236    3.9807 H       1  UNL1        0.0328
     45 H           9.9778    3.0361    5.3005 H       1  UNL1        0.0328
     46 H          10.3034    9.0077    4.9893 H       1  UNL1        0.1318
     47 H           7.7368    5.5131    0.8769 H       1  UNL1        0.0638
     48 H           6.9110    7.6778    0.1712 H       1  UNL1        0.0618
     49 H           7.2832    9.6935    1.5519 H       1  UNL1        0.0618
     50 H           8.5333    9.5411    3.6436 H       1  UNL1        0.0625
     51 H          10.4499    8.0235    6.3144 H       1  UNL1        0.1318
     52 H           8.9764    8.5872    5.8066 H       1  UNL1        0.1318
@<TRIPOS>BOND
     1     1    23    1
     2     1    24    1
     3     1    25    1
     4     2     1    1
     5     2    26    1
     6     2    27    1
     7     3     2    1
     8     3    28    1
     9     3    29    1
    10     4     3    1
    11     4    30    1
    12     4    31    1
    13     5     4    1
    14     5    32    1
    15     5    33    1
    16     6     5    1
    17     6    34    1
    18     6    35    1
    19     7     6    1
    20     7    36    1
    21     7    37    1
    22     8     7    1
    23     8    38    1
    24     8    39    1
    25     9     8    1
    26    10     9   ar
    27    11    10   ar
    28    12    11    1
    29    12    40    1
    30    12    41    1
    31    13    12    1
    32    13    42    1
    33    13    43    1
    34    14    13    1
    35    14    10    1
    36    14    44    1
    37    14    45    1
    38    15    11   ar
    39    16    15    2
    40    16    46    1
    41    16    51    1
    42    17    15   ar
    43    18    17   ar
    44    18     9   ar
    45    19    18   ar
    46    19    47    1
    47    20    19   ar
    48    20    48    1
    49    21    20   ar
    50    21    49    1
    51    22    21   ar
    52    22    17   ar
    53    22    50    1
    54    16    52    1
