@<TRIPOS>MOLECULE
mol_339_akc_journalpntd0006157
>324.sdf
 42 45 0 0 0
SMALL
GASTEIGER

@<TRIPOS>ATOM
      1 O          -6.7054    0.0567   -0.3366 O.3     1  UNL1       -0.5043
      2 C          -5.8823   -0.4167   -1.3367 C.ar    1  UNL1        0.1479
      3 C          -6.5050   -0.8826   -2.5100 C.ar    1  UNL1        0.1125
      4 N          -7.8441   -0.7804   -2.6951 N.ar    1  UNL1       -0.2513
      5 C          -8.3851   -1.2464   -3.8391 C.ar    1  UNL1        0.0284
      6 C          -7.6578   -1.8568   -4.8391 C.ar    1  UNL1       -0.0430
      7 C          -6.2880   -1.9802   -4.6557 C.ar    1  UNL1       -0.0510
      8 C          -5.6873   -1.4804   -3.4896 C.ar    1  UNL1        0.0040
      9 C          -4.3002   -1.5760   -3.2910 C.ar    1  UNL1       -0.0520
     10 C          -3.7096   -1.0586   -2.1371 C.ar    1  UNL1       -0.0523
     11 C          -4.4861   -0.4546   -1.1353 C.ar    1  UNL1        0.0207
     12 C          -3.7874    0.0890    0.1140 C.3     1  UNL1        0.0773
     13 N          -4.3034   -0.6324    1.2801 N.pl3   1  UNL1       -0.3181
     14 C          -3.4550   -0.9763    2.3213 C.ar    1  UNL1        0.1193
     15 N          -3.8320   -2.0953    2.9689 N.ar    1  UNL1       -0.2405
     16 C          -3.0928   -2.5053    4.0225 C.ar    1  UNL1        0.0297
     17 C          -1.9511   -1.8621    4.4569 C.ar    1  UNL1       -0.0435
     18 C          -1.5684   -0.7085    3.7887 C.ar    1  UNL1       -0.0571
     19 C          -2.3432   -0.2448    2.7261 C.ar    1  UNL1       -0.0219
     20 C          -3.9262    1.6103    0.3040 C.ar    1  UNL1       -0.0030
     21 C          -4.9069    2.1357    1.1787 C.ar    1  UNL1       -0.0550
     22 C          -5.0455    3.5052    1.4034 C.ar    1  UNL1       -0.0600
     23 C          -4.1920    4.3950    0.7678 C.ar    1  UNL1       -0.0420
     24 C          -3.2098    3.9152   -0.1012 C.ar    1  UNL1        0.0596
     25 CL         -2.1692    5.0960   -0.8262 Cl      1  UNL1       -0.0820
     26 C          -3.0756    2.5325   -0.3451 C.ar    1  UNL1        0.0645
     27 CL         -1.8287    1.9681   -1.4160 Cl      1  UNL1       -0.0817
     28 H          -6.2802   -0.1276    0.5173 H       1  UNL1        0.2922
     29 H          -9.4588   -1.1084   -3.9289 H       1  UNL1        0.0830
     30 H          -8.1430   -2.2241   -5.7365 H       1  UNL1        0.0633
     31 H          -5.6911   -2.4639   -5.4253 H       1  UNL1        0.0625
     32 H          -3.6683   -2.0474   -4.0415 H       1  UNL1        0.0624
     33 H          -2.6287   -1.1402   -2.0288 H       1  UNL1        0.0622
     34 H          -2.7198   -0.1504    0.0230 H       1  UNL1        0.0600
     35 H          -4.7918   -1.5013    1.0770 H       1  UNL1        0.1484
     36 H          -3.4601   -3.3965    4.5238 H       1  UNL1        0.0830
     37 H          -1.3808   -2.2448    5.2950 H       1  UNL1        0.0633
     38 H          -0.6774   -0.1677    4.0940 H       1  UNL1        0.0619
     39 H          -2.0492    0.6704    2.2257 H       1  UNL1        0.0652
     40 H          -5.5814    1.4746    1.7209 H       1  UNL1        0.0621
     41 H          -5.8146    3.8684    2.0807 H       1  UNL1        0.0618
     42 H          -4.2938    5.4610    0.9586 H       1  UNL1        0.0633
@<TRIPOS>BOND
     1     1    28    1
     2     2     1    1
     3     3     2   ar
     4     4     3   ar
     5     5     4   ar
     6     5    29    1
     7     6     5   ar
     8     6    30    1
     9     7     6   ar
    10     7    31    1
    11     8     7   ar
    12     8     3   ar
    13     9     8   ar
    14     9    32    1
    15    10     9   ar
    16    10    33    1
    17    11    10   ar
    18    11     2   ar
    19    13    12    1
    20    13    35    1
    21    14    13    1
    22    15    14   ar
    23    16    15   ar
    24    16    36    1
    25    17    16   ar
    26    17    37    1
    27    18    17   ar
    28    18    38    1
    29    19    18   ar
    30    19    14   ar
    31    19    39    1
    32    20    12    1
    33    21    20   ar
    34    21    40    1
    35    22    21   ar
    36    22    41    1
    37    23    22   ar
    38    23    42    1
    39    24    23   ar
    40    25    24    1
    41    26    24   ar
    42    26    20   ar
    43    27    26    1
    44    12    34    1
    45    12    11    1
