@<TRIPOS>MOLECULE
mol_33_akc_jejmech201805014
>33.sdf
 52 56 0 0 0
SMALL
GASTEIGER

@<TRIPOS>ATOM
      1 CL         -3.1140   -0.1228    0.1820 Cl      1  UNL1       -0.0835
      2 C          -1.4293   -0.4669    0.1485 C.ar    1  UNL1        0.0417
      3 C          -0.5082    0.5746    0.1576 C.ar    1  UNL1       -0.0336
      4 C           0.8924    0.3507    0.0336 C.ar    1  UNL1        0.0102
      5 C           1.3361   -0.9920    0.0302 C.ar    1  UNL1        0.0717
      6 C           0.3938   -2.0182    0.0571 C.ar    1  UNL1       -0.0343
      7 C          -0.9796   -1.7753    0.0886 C.ar    1  UNL1       -0.0413
      8 N           2.6337   -1.3259   -0.0087 N.ar    1  UNL1       -0.2541
      9 C           3.5556   -0.3349   -0.0936 C.ar    1  UNL1        0.0428
     10 C           3.2437    1.0125   -0.1602 C.ar    1  UNL1        0.0853
     11 C           4.3401    1.9890   -0.3852 C.2     1  UNL1        0.3416
     12 O           4.2035    2.9796   -1.0735 O.2     1  UNL1       -0.2449
     13 O           5.4489    1.6623    0.3281 O.3     1  UNL1       -0.4547
     14 C           6.4942    2.6719    0.3683 C.3     1  UNL1        0.1378
     15 C           7.1134    2.9965   -0.9455 C.ar    1  UNL1        0.1200
     16 C           6.8293    4.0277   -1.8183 C.ar    1  UNL1        0.0524
     17 N           7.5314    3.7078   -2.9422 N.ar    1  UNL1       -0.2470
     18 C           7.4598    4.3144   -4.2641 C.3     1  UNL1        0.0682
     19 C           6.0686    4.3774   -4.8655 C.ar    1  UNL1       -0.0261
     20 C           5.7986    5.3549   -5.8392 C.ar    1  UNL1       -0.0568
     21 C           4.5287    5.4672   -6.4121 C.ar    1  UNL1       -0.0614
     22 C           3.5111    4.5983   -6.0285 C.ar    1  UNL1       -0.0617
     23 C           3.7719    3.5967   -5.0979 C.ar    1  UNL1       -0.0614
     24 C           5.0455    3.4738   -4.5358 C.ar    1  UNL1       -0.0568
     25 N           8.3644    2.6749   -2.7075 N.ar    1  UNL1       -0.0650
     26 N           8.0967    2.2135   -1.4918 N.ar    1  UNL1       -0.1310
     27 C           1.8815    1.3924   -0.0989 C.ar    1  UNL1        0.0068
     28 C           1.4498    2.8196   -0.1681 C.ar    1  UNL1       -0.0164
     29 C           0.4513    3.2336   -1.0722 C.ar    1  UNL1       -0.0540
     30 C          -0.0793    4.5249   -1.0343 C.ar    1  UNL1       -0.0612
     31 C           0.4545    5.4661   -0.1623 C.ar    1  UNL1       -0.0617
     32 C           1.5104    5.1133    0.6728 C.ar    1  UNL1       -0.0612
     33 C           1.9818    3.7967    0.6920 C.ar    1  UNL1       -0.0540
     34 H          -0.9021    1.5830    0.2506 H       1  UNL1        0.0639
     35 H           0.7442   -3.0499    0.0347 H       1  UNL1        0.0639
     36 H          -1.6844   -2.5993    0.0752 H       1  UNL1        0.0633
     37 H           4.5837   -0.6877   -0.1345 H       1  UNL1        0.0838
     38 H           6.0945    3.5706    0.8533 H       1  UNL1        0.0765
     39 H           7.2714    2.2806    1.0365 H       1  UNL1        0.0765
     40 H           6.1105    4.8350   -1.7841 H       1  UNL1        0.0846
     41 H           7.8685    5.3250   -4.1470 H       1  UNL1        0.0559
     42 H           8.1154    3.7453   -4.9331 H       1  UNL1        0.0559
     43 H           6.5773    6.0448   -6.1585 H       1  UNL1        0.0621
     44 H           4.3322    6.2368   -7.1541 H       1  UNL1        0.0618
     45 H           2.5170    4.6977   -6.4564 H       1  UNL1        0.0618
     46 H           2.9824    2.9115   -4.7991 H       1  UNL1        0.0618
     47 H           5.2108    2.6720   -3.8178 H       1  UNL1        0.0621
     48 H           0.0318    2.5285   -1.7887 H       1  UNL1        0.0624
     49 H          -0.9120    4.7881   -1.6813 H       1  UNL1        0.0618
     50 H           0.0532    6.4753   -0.1387 H       1  UNL1        0.0618
     51 H           1.9619    5.8591    1.3215 H       1  UNL1        0.0618
     52 H           2.7844    3.5501    1.3825 H       1  UNL1        0.0624
@<TRIPOS>BOND
     1     2     1    1
     2     3     2   ar
     3     3    34    1
     4     4     3   ar
     5     5     4   ar
     6     6     5   ar
     7     6    35    1
     8     7     6   ar
     9     7     2   ar
    10     7    36    1
    11     8     5   ar
    12     9     8   ar
    13     9    37    1
    14    10     9   ar
    15    11    10    1
    16    12    11    2
    17    13    11    1
    18    14    13    1
    19    14    38    1
    20    14    39    1
    21    15    14    1
    22    16    15   ar
    23    16    40    1
    24    17    16   ar
    25    18    17    1
    26    18    41    1
    27    18    42    1
    28    19    18    1
    29    20    19   ar
    30    20    43    1
    31    21    20   ar
    32    21    44    1
    33    22    21   ar
    34    22    45    1
    35    23    22   ar
    36    23    46    1
    37    24    23   ar
    38    24    19   ar
    39    24    47    1
    40    25    17   ar
    41    26    25   ar
    42    26    15   ar
    43    27    10   ar
    44    27     4   ar
    45    28    27    1
    46    29    28   ar
    47    29    48    1
    48    30    29   ar
    49    30    49    1
    50    31    30   ar
    51    31    50    1
    52    32    31   ar
    53    32    51    1
    54    33    32   ar
    55    33    28   ar
    56    33    52    1
