@<TRIPOS>MOLECULE
mol_340_akc
>325.sdf
 34 37 0 0 0
SMALL
GASTEIGER

@<TRIPOS>ATOM
      1 C           3.2728   -0.9936   -0.3769 C.3     1  UNL1        0.0790
      2 O           2.5471    0.0550    0.2555 O.3     1  UNL1       -0.4905
      3 C           3.2259    1.2209    0.4687 C.ar    1  UNL1        0.1797
      4 C           4.2065    1.7184   -0.3839 C.ar    1  UNL1        0.2085
      5 O           4.6560    1.1558   -1.5433 O.3     1  UNL1       -0.4489
      6 C           5.6568    2.1006   -1.9632 C.3     1  UNL1        0.2334
      7 O           5.7743    3.2281   -1.0782 O.3     1  UNL1       -0.4523
      8 C           4.8454    2.9141   -0.1362 C.ar    1  UNL1        0.1734
      9 C           4.5419    3.6911    0.9553 C.ar    1  UNL1        0.0271
     10 C           3.5450    3.2316    1.8169 C.ar    1  UNL1        0.1465
     11 C           2.8847    2.0100    1.5880 C.ar    1  UNL1        0.1093
     12 C           1.8604    1.6030    2.5810 C.ar    1  UNL1        0.1967
     13 O           1.2434    0.5479    2.5482 O.2     1  UNL1       -0.2869
     14 C           1.5956    2.5435    3.6902 C.ar    1  UNL1        0.0288
     15 C           2.2902    3.6854    3.7817 C.ar    1  UNL1        0.1392
     16 O           3.2713    4.0541    2.8795 O.2     1  UNL1       -0.4544
     17 C           2.1020    4.6595    4.8826 C.ar    1  UNL1        0.0174
     18 C           3.1908    5.4365    5.3154 C.ar    1  UNL1       -0.0511
     19 C           3.0470    6.3826    6.3336 C.ar    1  UNL1       -0.0611
     20 C           1.8087    6.5703    6.9376 C.ar    1  UNL1       -0.0617
     21 C           0.7146    5.8155    6.5205 C.ar    1  UNL1       -0.0611
     22 C           0.8582    4.8707    5.4978 C.ar    1  UNL1       -0.0511
     23 H           3.2807   -0.8603   -1.4627 H       1  UNL1        0.0660
     24 H           4.2901   -1.0847    0.0205 H       1  UNL1        0.0660
     25 H           2.7521   -1.9333   -0.1698 H       1  UNL1        0.0660
     26 H           6.6236    1.5865   -2.0095 H       1  UNL1        0.1166
     27 H           5.4025    2.4633   -2.9655 H       1  UNL1        0.1166
     28 H           5.0533    4.6306    1.1335 H       1  UNL1        0.0692
     29 H           0.8449    2.2322    4.4033 H       1  UNL1        0.0693
     30 H           4.1725    5.3114    4.8623 H       1  UNL1        0.0625
     31 H           3.9039    6.9722    6.6498 H       1  UNL1        0.0618
     32 H           1.6948    7.3061    7.7291 H       1  UNL1        0.0618
     33 H          -0.2559    5.9667    6.9871 H       1  UNL1        0.0618
     34 H          -0.0235    4.3167    5.1838 H       1  UNL1        0.0625
@<TRIPOS>BOND
     1     1    23    1
     2     1    24    1
     3     1    25    1
     4     2     1    1
     5     3     2    1
     6     4     3   ar
     7     5     4    1
     8     6     5    1
     9     6    26    1
    10     6    27    1
    11     7     6    1
    12     8     7    1
    13     8     4   ar
    14     9     8   ar
    15     9    28    1
    16    10     9   ar
    17    11    10   ar
    18    11     3   ar
    19    12    11   ar
    20    13    12    2
    21    14    12   ar
    22    14    29    1
    23    15    14   ar
    24    16    15   ar
    25    16    10   ar
    26    17    15    1
    27    18    17   ar
    28    18    30    1
    29    19    18   ar
    30    19    31    1
    31    20    19   ar
    32    20    32    1
    33    21    20   ar
    34    21    33    1
    35    22    21   ar
    36    22    17   ar
    37    22    34    1
