@<TRIPOS>MOLECULE
mol_341_akc_c7md00125h
>326.sdf
 72 77 0 0 0
SMALL
GASTEIGER

@<TRIPOS>ATOM
      1 C           5.8427    7.4446   -7.9112 C.3     1  UNL1        0.0790
      2 O           5.3762    6.3754   -8.7249 O.3     1  UNL1       -0.4913
      3 C           4.4009    5.5620   -8.2136 C.ar    1  UNL1        0.1656
      4 C           4.1569    5.4184   -6.8432 C.ar    1  UNL1       -0.0071
      5 C           3.1160    4.5944   -6.3743 C.ar    1  UNL1        0.0150
      6 C           2.3072    3.9244   -7.3189 C.ar    1  UNL1       -0.0071
      7 C           2.5744    4.0115   -8.6876 C.ar    1  UNL1        0.1656
      8 O           1.8968    3.3198   -9.6567 O.3     1  UNL1       -0.4913
      9 C           0.7455    2.5744   -9.2876 C.3     1  UNL1        0.0790
     10 C           3.6425    4.8126   -9.1289 C.ar    1  UNL1        0.2035
     11 O           3.8464    4.8654  -10.4895 O.3     1  UNL1       -0.4885
     12 C           5.1906    4.5992  -10.8870 C.3     1  UNL1        0.0791
     13 C           2.8908    4.3318   -4.8894 C.3     1  UNL1        0.0680
     14 N           3.8051    3.1994   -4.3156 N.4     1  UNL1        0.2507
     15 C           4.1321    1.9914   -5.2245 C.3     1  UNL1       -0.0264
     16 C           3.4420    0.6514   -4.8519 C.3     1  UNL1        0.0152
     17 C           2.1957    0.8889   -4.0863 C.ar    1  UNL1       -0.0089
     18 C           2.1738    1.8902   -3.1449 C.ar    1  UNL1        0.0658
     19 C           3.3213    2.7858   -2.9244 C.3     1  UNL1        0.0106
     20 N           0.9194    1.9671   -2.6135 N.ar    1  UNL1       -0.3536
     21 C           0.0996    1.0735   -3.2796 C.ar    1  UNL1        0.0471
     22 C           0.8983    0.3349   -4.1617 C.ar    1  UNL1        0.0035
     23 C           0.3056   -0.6894   -4.9200 C.ar    1  UNL1       -0.0523
     24 C          -1.0695   -0.9167   -4.8015 C.ar    1  UNL1       -0.0611
     25 C          -1.8497   -0.1379   -3.9488 C.ar    1  UNL1       -0.0598
     26 C          -1.2788    0.8689   -3.1652 C.ar    1  UNL1       -0.0378
     27 C           3.1192    5.5536   -4.0387 C.ar    1  UNL1        0.2044
     28 N           4.2645    5.7461   -3.3993 N.ar    1  UNL1       -0.1071
     29 N           4.0720    6.7903   -2.5515 N.ar    1  UNL1       -0.0228
     30 N           2.8386    7.2458   -2.6540 N.ar    1  UNL1       -0.0435
     31 N           2.2470    6.5319   -3.6350 N.ar    1  UNL1       -0.2211
     32 C           0.9267    6.9778   -4.0492 C.3     1  UNL1        0.0565
     33 C           0.0450    5.9602   -4.7813 C.3     1  UNL1       -0.0304
     34 C          -1.3221    6.5495   -5.1331 C.3     1  UNL1       -0.0511
     35 C          -1.1845    7.8354   -5.9435 C.3     1  UNL1       -0.0529
     36 C          -0.3204    8.8594   -5.2182 C.3     1  UNL1       -0.0511
     37 C           1.0453    8.2835   -4.8594 C.3     1  UNL1       -0.0304
     38 H           5.0135    8.0286   -7.4976 H       1  UNL1        0.0660
     39 H           6.4939    7.0666   -7.1167 H       1  UNL1        0.0660
     40 H           6.4395    8.1097   -8.5425 H       1  UNL1        0.0660
     41 H           4.7899    5.9442   -6.1320 H       1  UNL1        0.0660
     42 H           1.4982    3.2881   -6.9663 H       1  UNL1        0.0660
     43 H           1.0050    1.7594   -8.6038 H       1  UNL1        0.0660
     44 H          -0.0212    3.2246   -8.8543 H       1  UNL1        0.0660
     45 H           0.3318    2.1245  -10.1955 H       1  UNL1        0.0660
     46 H           5.6955    5.5393  -11.1283 H       1  UNL1        0.0660
     47 H           5.7618    4.0394  -10.1373 H       1  UNL1        0.0660
     48 H           5.1581    3.9930  -11.7979 H       1  UNL1        0.0660
     49 H           1.8680    3.9732   -4.7500 H       1  UNL1        0.0989
     50 H           4.6955    3.6908   -4.1550 H       1  UNL1        0.2049
     51 H           5.2210    1.8712   -5.1818 H       1  UNL1        0.0818
     52 H           3.8888    2.2430   -6.2540 H       1  UNL1        0.0818
     53 H           4.1287    0.0675   -4.2251 H       1  UNL1        0.0366
     54 H           3.2608    0.0587   -5.7547 H       1  UNL1        0.0366
     55 H           4.1590    2.2663   -2.4471 H       1  UNL1        0.0882
     56 H           3.0707    3.6688   -2.3335 H       1  UNL1        0.0882
     57 H           0.5938    2.6019   -1.8945 H       1  UNL1        0.1658
     58 H           0.8983   -1.3041   -5.5916 H       1  UNL1        0.0624
     59 H          -1.5349   -1.7100   -5.3822 H       1  UNL1        0.0618
     60 H          -2.9201   -0.3244   -3.8855 H       1  UNL1        0.0618
     61 H          -1.8953    1.4616   -2.4961 H       1  UNL1        0.0638
     62 H           0.4064    7.2164   -3.1076 H       1  UNL1        0.0546
     63 H           0.5246    5.6431   -5.7116 H       1  UNL1        0.0286
     64 H          -0.0973    5.0670   -4.1612 H       1  UNL1        0.0286
     65 H          -1.9029    5.8166   -5.7046 H       1  UNL1        0.0266
     66 H          -1.8822    6.7546   -4.2125 H       1  UNL1        0.0266
     67 H          -0.7367    7.6073   -6.9186 H       1  UNL1        0.0265
     68 H          -2.1755    8.2606   -6.1369 H       1  UNL1        0.0265
     69 H          -0.1906    9.7482   -5.8454 H       1  UNL1        0.0266
     70 H          -0.8301    9.1864   -4.3033 H       1  UNL1        0.0266
     71 H           1.6035    9.0378   -4.2899 H       1  UNL1        0.0286
     72 H           1.6213    8.0985   -5.7756 H       1  UNL1        0.0286
@<TRIPOS>UNITY_ATOM_ATTR
14 1
charge 1
@<TRIPOS>BOND
     1     1    38    1
     2     1    39    1
     3     1    40    1
     4     2     1    1
     5     3     2    1
     6     4     3   ar
     7     4    41    1
     8     5     4   ar
     9     6     5   ar
    10     6    42    1
    11     7     6   ar
    12     8     7    1
    13     9     8    1
    14     9    43    1
    15     9    44    1
    16     9    45    1
    17    10     7   ar
    18    10     3   ar
    19    11    10    1
    20    12    11    1
    21    12    46    1
    22    12    47    1
    23    12    48    1
    24    13     5    1
    25    13    49    1
    26    15    14    1
    27    15    51    1
    28    15    52    1
    29    16    15    1
    30    16    53    1
    31    16    54    1
    32    17    16    1
    33    18    17   ar
    34    19    18    1
    35    19    14    1
    36    19    55    1
    37    19    56    1
    38    20    18   ar
    39    20    57    1
    40    21    20   ar
    41    22    21   ar
    42    22    17   ar
    43    23    22   ar
    44    23    58    1
    45    24    23   ar
    46    24    59    1
    47    25    24   ar
    48    25    60    1
    49    26    25   ar
    50    26    21   ar
    51    26    61    1
    52    27    13    1
    53    28    27   ar
    54    29    28   ar
    55    30    29   ar
    56    31    30   ar
    57    31    27   ar
    58    32    31    1
    59    32    62    1
    60    33    32    1
    61    33    63    1
    62    33    64    1
    63    34    33    1
    64    34    65    1
    65    34    66    1
    66    35    34    1
    67    35    67    1
    68    35    68    1
    69    36    35    1
    70    36    69    1
    71    36    70    1
    72    37    36    1
    73    37    32    1
    74    37    71    1
    75    37    72    1
    76    14    50    1
    77    14    13    1
