@<TRIPOS>MOLECULE
mol_343_akc_pmc5629310
>328.sdf
 32 34 0 0 0
SMALL
GASTEIGER

@<TRIPOS>ATOM
      1 O          -1.7709   -0.0678    0.6650 O.3     1  UNL1       -0.3917
      2 C          -1.0117    0.0089   -0.5415 C.3     1  UNL1        0.0581
      3 C          -0.1929    1.2969   -0.5750 C.3     1  UNL1       -0.0110
      4 C           0.9756    1.2502    0.4062 C.3     1  UNL1        0.0164
      5 N           1.7648    0.0497    0.1602 N.pl3   1  UNL1       -0.3080
      6 C           1.0606   -1.2268    0.2379 C.3     1  UNL1        0.0164
      7 C          -0.1333   -1.2315   -0.7118 C.3     1  UNL1       -0.0110
      8 C           3.0619    0.0834   -0.2664 C.ar    1  UNL1        0.1844
      9 N           3.6772   -0.8961   -0.9039 N.ar    1  UNL1       -0.1255
     10 N           5.0065   -0.6308   -1.1769 N.ar    1  UNL1       -0.1391
     11 C           5.3850    0.5375   -0.7040 C.ar    1  UNL1        0.1403
     12 S           4.1187    1.4179    0.0350 S.2     1  UNL1       -0.0301
     13 C           6.7497    1.0011   -0.7902 C.ar    1  UNL1        0.0484
     14 C           7.8077    0.3446   -1.3999 C.ar    1  UNL1       -0.0426
     15 C           9.0459    1.0487   -1.2720 C.ar    1  UNL1       -0.0235
     16 C           8.8836    2.2224   -0.5709 C.ar    1  UNL1        0.1641
     17 S           7.2809    2.4828   -0.0920 S.2     1  UNL1       -0.0624
     18 N           9.9066    3.1769   -0.2309 N.pl3   1  UNL1        0.0632
     19 O          11.0552    2.9097   -0.6149 O.2     1  UNL1       -0.1256
     20 O           9.5825    4.1863    0.4078 O.2     1  UNL1       -0.1256
     21 H          -1.1674   -0.1273    1.4234 H       1  UNL1        0.2098
     22 H          -1.7448    0.0353   -1.3551 H       1  UNL1        0.0594
     23 H           0.1981    1.4458   -1.5896 H       1  UNL1        0.0305
     24 H          -0.8273    2.1572   -0.3331 H       1  UNL1        0.0305
     25 H           1.5452    2.1785    0.2977 H       1  UNL1        0.0465
     26 H           0.6102    1.2363    1.4398 H       1  UNL1        0.0465
     27 H           1.7075   -2.0834    0.0139 H       1  UNL1        0.0465
     28 H           0.7168   -1.3740    1.2693 H       1  UNL1        0.0465
     29 H          -0.7236   -2.1382   -0.5369 H       1  UNL1        0.0305
     30 H           0.2354   -1.2672   -1.7445 H       1  UNL1        0.0305
     31 H           7.6992   -0.6099   -1.9057 H       1  UNL1        0.0630
     32 H           9.9949    0.7010   -1.6670 H       1  UNL1        0.0646
@<TRIPOS>BOND
     1     1    21    1
     2     2     1    1
     3     2    22    1
     4     3     2    1
     5     3    23    1
     6     3    24    1
     7     4     3    1
     8     4    25    1
     9     4    26    1
    10     5     4    1
    11     6     5    1
    12     6    27    1
    13     6    28    1
    14     7     6    1
    15     7     2    1
    16     7    29    1
    17     7    30    1
    18     8     5    1
    19     9     8   ar
    20    10     9   ar
    21    11    10   ar
    22    12    11   ar
    23    12     8   ar
    24    13    11    1
    25    14    13   ar
    26    14    31    1
    27    15    14   ar
    28    15    32    1
    29    16    15   ar
    30    17    16   ar
    31    17    13   ar
    32    18    16    1
    33    19    18    2
    34    20    18    2
