@<TRIPOS>MOLECULE
mol_344_akc_c7ra01070b
>329.sdf
 60 65 0 0 0
SMALL
GASTEIGER

@<TRIPOS>ATOM
      1 C           0.7552   -5.4077   -1.6020 C.3     1  UNL1        0.0253
      2 C           0.8180   -5.5986   -0.1452 C.ar    1  UNL1        0.2350
      3 C           0.2575   -6.5677    0.6524 C.ar    1  UNL1        0.1390
      4 C          -0.5879   -7.7545    0.3912 C.ar    1  UNL1       -0.0299
      5 C          -0.9483   -8.4724    1.4728 C.ar    1  UNL1       -0.0581
      6 C          -0.5147   -8.0729    2.8117 C.ar    1  UNL1       -0.0433
      7 C           0.2561   -6.9890    3.0374 C.ar    1  UNL1        0.0351
      8 N           0.6443   -6.2356    1.9486 N.ar    1  UNL1       -0.1798
      9 N           1.3956   -5.1623    2.0525 N.ar    1  UNL1        0.0999
     10 N           1.5088   -4.7757    0.7776 N.ar    1  UNL1       -0.0621
     11 C           2.3116   -3.5708    0.5023 C.3     1  UNL1        0.2034
     12 C           3.7456   -3.9786    0.2693 C.ar    1  UNL1        0.0195
     13 C           4.1880   -4.3796   -0.9947 C.ar    1  UNL1       -0.0519
     14 C           5.4848   -4.8753   -1.1739 C.ar    1  UNL1       -0.0536
     15 C           6.3991   -4.9657   -0.1090 C.ar    1  UNL1       -0.0179
     16 C           5.9631   -4.4854    1.1376 C.ar    1  UNL1       -0.0536
     17 C           4.6566   -4.0160    1.3309 C.ar    1  UNL1       -0.0519
     18 C           7.7232   -5.6159   -0.2832 C.ar    1  UNL1       -0.0179
     19 C           8.3859   -5.6291   -1.5231 C.ar    1  UNL1       -0.0536
     20 C           9.5386   -6.3965   -1.7324 C.ar    1  UNL1       -0.0519
     21 C          10.0930   -7.1541   -0.6958 C.ar    1  UNL1        0.0195
     22 C          11.2355   -8.1019   -0.9474 C.3     1  UNL1        0.2034
     23 N          12.5329   -7.4323   -0.8222 N.ar    1  UNL1       -0.0621
     24 N          13.1136   -7.4374    0.3789 N.ar    1  UNL1        0.0999
     25 N          14.3127   -6.9798    0.0996 N.ar    1  UNL1       -0.1798
     26 C          15.3060   -6.8625    1.0512 C.ar    1  UNL1        0.0351
     27 C          16.5190   -6.4363    0.6469 C.ar    1  UNL1       -0.0433
     28 C          16.8136   -6.0946   -0.7445 C.ar    1  UNL1       -0.0581
     29 C          15.8612   -6.1824   -1.6928 C.ar    1  UNL1       -0.0299
     30 C          14.5360   -6.6564   -1.2355 C.ar    1  UNL1        0.1390
     31 C          13.3409   -6.9159   -1.8637 C.ar    1  UNL1        0.2350
     32 C          12.9240   -6.7796   -3.2673 C.3     1  UNL1        0.0253
     33 C           9.5028   -7.0749    0.5697 C.ar    1  UNL1       -0.0519
     34 C           8.3316   -6.3310    0.7640 C.ar    1  UNL1       -0.0536
     35 H           1.2103   -6.2678   -2.1024 H       1  UNL1        0.0338
     36 H          -0.2890   -5.3262   -1.9158 H       1  UNL1        0.0338
     37 H           1.2741   -4.5038   -1.9197 H       1  UNL1        0.0338
     38 H          -0.8934   -8.0190   -0.6141 H       1  UNL1        0.0641
     39 H          -1.5710   -9.3596    1.3794 H       1  UNL1        0.0619
     40 H          -0.8439   -8.6920    3.6437 H       1  UNL1        0.0633
     41 H           0.5835   -6.6827    4.0244 H       1  UNL1        0.0832
     42 H           1.9024   -3.0410   -0.3637 H       1  UNL1        0.1110
     43 H           2.2348   -2.8848    1.3549 H       1  UNL1        0.1110
     44 H           3.5355   -4.3348   -1.8626 H       1  UNL1        0.0623
     45 H           5.7539   -5.2271   -2.1683 H       1  UNL1        0.0624
     46 H           6.6342   -4.4852    1.9948 H       1  UNL1        0.0624
     47 H           4.3633   -3.6931    2.3288 H       1  UNL1        0.0623
     48 H           7.9913   -5.0657   -2.3667 H       1  UNL1        0.0624
     49 H           9.9557   -6.4249   -2.7357 H       1  UNL1        0.0623
     50 H          11.1996   -8.9391   -0.2384 H       1  UNL1        0.1110
     51 H          11.1481   -8.5485   -1.9437 H       1  UNL1        0.1110
     52 H          15.0753   -7.1256    2.0782 H       1  UNL1        0.0832
     53 H          17.3318   -6.3397    1.3627 H       1  UNL1        0.0633
     54 H          17.8233   -5.7743   -0.9897 H       1  UNL1        0.0619
     55 H          16.0476   -5.9425   -2.7329 H       1  UNL1        0.0641
     56 H          12.5900   -7.7439   -3.6578 H       1  UNL1        0.0338
     57 H          12.1127   -6.0528   -3.3413 H       1  UNL1        0.0338
     58 H          13.7540   -6.4234   -3.8833 H       1  UNL1        0.0338
     59 H           9.9067   -7.6347    1.4119 H       1  UNL1        0.0623
     60 H           7.8703   -6.3687    1.7493 H       1  UNL1        0.0624
@<TRIPOS>UNITY_ATOM_ATTR
10 1
charge 1
23 1
charge 1
@<TRIPOS>BOND
     1     1    35    1
     2     1    36    1
     3     1    37    1
     4     2     1    1
     5     3     2   ar
     6     4     3   ar
     7     4    38    1
     8     5     4   ar
     9     5    39    1
    10     6     5   ar
    11     6    40    1
    12     7     6   ar
    13     7    41    1
    14     8     7   ar
    15     8     3   ar
    16     9     8   ar
    17    10     9   ar
    18    10     2   ar
    19    11    10    1
    20    11    42    1
    21    11    43    1
    22    12    11    1
    23    13    12   ar
    24    13    44    1
    25    14    13   ar
    26    14    45    1
    27    15    14   ar
    28    16    15   ar
    29    16    46    1
    30    17    16   ar
    31    17    12   ar
    32    17    47    1
    33    18    15    1
    34    19    18   ar
    35    19    48    1
    36    20    19   ar
    37    20    49    1
    38    21    20   ar
    39    22    21    1
    40    22    50    1
    41    22    51    1
    42    23    22    1
    43    24    23   ar
    44    25    24   ar
    45    26    25   ar
    46    26    52    1
    47    27    26   ar
    48    27    53    1
    49    28    27   ar
    50    28    54    1
    51    29    28   ar
    52    29    55    1
    53    30    29   ar
    54    30    25   ar
    55    31    30   ar
    56    31    23   ar
    57    32    31    1
    58    32    56    1
    59    32    57    1
    60    32    58    1
    61    33    21   ar
    62    33    59    1
    63    34    33   ar
    64    34    18   ar
    65    34    60    1
