@<TRIPOS>MOLECULE
mol_346_akc_jejmech201701022
>331.sdf
 30 32 0 0 0
SMALL
GASTEIGER

@<TRIPOS>ATOM
      1 O           3.1737   -0.5390   -2.0634 O.co2   1  UNL1       -0.5735
      2 N           3.8063   -0.1204   -1.0858 N.pl3   1  UNL1        0.1186
      3 O           3.9305    1.0678   -0.7559 O.2     1  UNL1        0.0446
      4 C           4.4450   -1.1060   -0.2732 C.ar    1  UNL1        0.4380
      5 C           4.5196   -2.4724   -0.3972 C.ar    1  UNL1        0.0595
      6 C           5.2594   -2.9068    0.7260 C.ar    1  UNL1       -0.0078
      7 C           5.5750   -1.7794    1.4668 C.ar    1  UNL1        0.1545
      8 O           5.0869   -0.6621    0.8440 O.2     1  UNL1       -0.3992
      9 C           6.2540   -1.6449    2.7245 C.2     1  UNL1        0.0880
     10 N           6.6337   -2.7217    3.3325 N.2     1  UNL1       -0.1855
     11 N           7.2244   -2.5815    4.5530 N.pl3   1  UNL1       -0.2190
     12 C           7.6331   -3.8128    5.1554 C.ar    1  UNL1        0.1683
     13 N           7.4798   -4.9727    4.4666 N.ar    1  UNL1       -0.1307
     14 N           7.8150   -6.1745    5.0170 N.ar    1  UNL1       -0.1352
     15 C           8.2840   -6.2092    6.2754 C.ar    1  UNL1        0.1593
     16 CL          8.6270   -7.8094    6.8138 Cl      1  UNL1       -0.0595
     17 C           8.4665   -5.0671    7.0638 C.ar    1  UNL1        0.0241
     18 C           8.9501   -5.0992    8.3956 C.ar    1  UNL1       -0.0510
     19 C           9.1061   -3.9319    9.1405 C.ar    1  UNL1       -0.0611
     20 C           8.7793   -2.7080    8.5764 C.ar    1  UNL1       -0.0611
     21 C           8.2939   -2.6520    7.2684 C.ar    1  UNL1       -0.0505
     22 C           8.1314   -3.8205    6.4815 C.ar    1  UNL1        0.0282
     23 H           4.0861   -3.0768   -1.1840 H       1  UNL1        0.0722
     24 H           5.5224   -3.9227    0.9980 H       1  UNL1        0.0658
     25 H           6.4089   -0.6349    3.1425 H       1  UNL1        0.0883
     26 H           7.9790   -1.8999    4.6220 H       1  UNL1        0.1760
     27 H           9.2057   -6.0448    8.8719 H       1  UNL1        0.0625
     28 H           9.4751   -3.9835   10.1621 H       1  UNL1        0.0618
     29 H           8.8921   -1.7946    9.1558 H       1  UNL1        0.0618
     30 H           8.0267   -1.6743    6.8730 H       1  UNL1        0.0625
@<TRIPOS>UNITY_ATOM_ATTR
1 1
charge -1
2 1
charge 1
@<TRIPOS>BOND
     1     2     1    1
     2     3     2    2
     3     4     2    1
     4     5     4   ar
     5     5    23    1
     6     6     5   ar
     7     6    24    1
     8     7     6   ar
     9     8     7   ar
    10     8     4   ar
    11     9     7    1
    12     9    25    1
    13    10     9    2
    14    11    10    1
    15    11    26    1
    16    12    11    1
    17    13    12   ar
    18    14    13   ar
    19    15    14   ar
    20    16    15    1
    21    17    15   ar
    22    18    17   ar
    23    18    27    1
    24    19    18   ar
    25    19    28    1
    26    20    19   ar
    27    20    29    1
    28    21    20   ar
    29    21    30    1
    30    22    21   ar
    31    22    12   ar
    32    22    17   ar
