@<TRIPOS>MOLECULE
mol_347_akc_jbmc201610013
>332.sdf
 77 78 0 0 0
SMALL
GASTEIGER

@<TRIPOS>ATOM
      1 C          12.8911   -0.5051   -8.0211 C.3     1  UNL1       -0.0253
      2 C          12.5758    0.1197   -6.6538 C.3     1  UNL1        0.1068
      3 C          13.6360   -0.2343   -5.6004 C.3     1  UNL1       -0.0253
      4 C          12.5497    1.6458   -6.8168 C.3     1  UNL1       -0.0253
      5 O          11.2348   -0.2435   -6.2133 O.3     1  UNL1       -0.4447
      6 C          10.9768   -1.5528   -6.0068 C.2     1  UNL1        0.4008
      7 O          11.7737   -2.4646   -6.1146 O.2     1  UNL1       -0.2265
      8 N           9.6575   -1.7447   -5.6669 N.am    1  UNL1       -0.2811
      9 C           9.1878   -3.0990   -5.5814 C.3     1  UNL1        0.0148
     10 C           7.8551   -3.2635   -4.8757 C.3     1  UNL1       -0.0359
     11 C           7.5284   -4.7382   -4.5999 C.3     1  UNL1       -0.0357
     12 C           8.3000   -5.4112   -3.4438 C.3     1  UNL1        0.0148
     13 N           9.7144   -5.7356   -3.6980 N.am    1  UNL1       -0.2986
     14 C          10.7365   -4.8476   -3.1090 C.3     1  UNL1        0.0162
     15 C          11.1840   -5.1582   -1.6839 C.3     1  UNL1       -0.0214
     16 C          12.0188   -6.4231   -1.5143 C.3     1  UNL1        0.0161
     17 N          12.3634   -6.6055   -0.1125 N.am    1  UNL1       -0.2811
     18 C          11.4329   -7.0885    0.7629 C.2     1  UNL1        0.4008
     19 O          10.3391   -7.5172    0.4153 O.2     1  UNL1       -0.2265
     20 O          11.8762   -6.9897    2.0417 O.3     1  UNL1       -0.4447
     21 C          11.0080   -7.4676    3.1076 C.3     1  UNL1        0.1068
     22 C          10.7607   -8.9762    2.9628 C.3     1  UNL1       -0.0253
     23 C          11.7600   -7.2365    4.4297 C.3     1  UNL1       -0.0253
     24 C           9.7013   -6.6615    3.1721 C.3     1  UNL1       -0.0253
     25 C          10.1564   -6.8065   -4.4827 C.2     1  UNL1        0.2559
     26 O          11.3607   -7.0190   -4.6608 O.2     1  UNL1       -0.2718
     27 C           9.1301   -7.7574   -5.1198 C.3     1  UNL1        0.1934
     28 O           8.6429   -7.2781   -6.3717 O.3     1  UNL1       -0.3835
     29 N           7.7410   -8.2109   -6.8944 N.ar    1  UNL1       -0.0765
     30 N           6.7435   -8.6988   -6.1397 N.ar    1  UNL1       -0.0288
     31 N           6.0613   -9.5551   -6.8877 N.ar    1  UNL1       -0.1267
     32 C           6.5862   -9.5203   -8.1520 C.ar    1  UNL1        0.1163
     33 C           6.2030  -10.2101   -9.3108 C.ar    1  UNL1       -0.0323
     34 C           6.8895   -9.9448  -10.5024 C.ar    1  UNL1       -0.0596
     35 C           7.9351   -9.0147  -10.5333 C.ar    1  UNL1       -0.0595
     36 C           8.3457   -8.3351   -9.3761 C.ar    1  UNL1       -0.0310
     37 C           7.6513   -8.6253   -8.2007 C.ar    1  UNL1        0.1301
     38 H          13.8463   -0.1433   -8.4140 H       1  UNL1        0.0268
     39 H          12.9536   -1.5963   -7.9780 H       1  UNL1        0.0268
     40 H          12.1018   -0.2695   -8.7439 H       1  UNL1        0.0268
     41 H          14.6281    0.1171   -5.9036 H       1  UNL1        0.0268
     42 H          13.3884    0.2153   -4.6321 H       1  UNL1        0.0268
     43 H          13.7163   -1.3112   -5.4279 H       1  UNL1        0.0268
     44 H          11.7723    1.9494   -7.5269 H       1  UNL1        0.0268
     45 H          12.3128    2.1371   -5.8663 H       1  UNL1        0.0268
     46 H          13.5128    2.0276   -7.1726 H       1  UNL1        0.0268
     47 H           9.0374   -0.9479   -5.7282 H       1  UNL1        0.1520
     48 H           9.1588   -3.5263   -6.5897 H       1  UNL1        0.0463
     49 H           9.9627   -3.6460   -5.0610 H       1  UNL1        0.0463
     50 H           7.8177   -2.6877   -3.9442 H       1  UNL1        0.0281
     51 H           7.0749   -2.8481   -5.5280 H       1  UNL1        0.0281
     52 H           6.4614   -4.7878   -4.3460 H       1  UNL1        0.0281
     53 H           7.6398   -5.2998   -5.5291 H       1  UNL1        0.0281
     54 H           8.2357   -4.7911   -2.5425 H       1  UNL1        0.0464
     55 H           7.7867   -6.3461   -3.1978 H       1  UNL1        0.0464
     56 H          11.6108   -4.8085   -3.7688 H       1  UNL1        0.0465
     57 H          10.3161   -3.8365   -3.0767 H       1  UNL1        0.0465
     58 H          11.7977   -4.3121   -1.3424 H       1  UNL1        0.0295
     59 H          10.3100   -5.1813   -1.0229 H       1  UNL1        0.0295
     60 H          11.4611   -7.3028   -1.8501 H       1  UNL1        0.0463
     61 H          12.9539   -6.3653   -2.0808 H       1  UNL1        0.0463
     62 H          13.1923   -6.1837    0.2804 H       1  UNL1        0.1520
     63 H          11.7140   -9.5170    2.9281 H       1  UNL1        0.0268
     64 H          10.1668   -9.3670    3.7940 H       1  UNL1        0.0268
     65 H          10.2333   -9.2276    2.0387 H       1  UNL1        0.0268
     66 H          11.9764   -6.1731    4.5810 H       1  UNL1        0.0268
     67 H          11.1738   -7.5903    5.2864 H       1  UNL1        0.0268
     68 H          12.7234   -7.7574    4.4345 H       1  UNL1        0.0268
     69 H           9.9136   -5.5921    3.2870 H       1  UNL1        0.0268
     70 H           9.0974   -6.7591    2.2667 H       1  UNL1        0.0268
     71 H           9.0780   -6.9821    4.0136 H       1  UNL1        0.0268
     72 H           9.6346   -8.7207   -5.2707 H       1  UNL1        0.0822
     73 H           8.3186   -7.9282   -4.4084 H       1  UNL1        0.0822
     74 H           5.3864  -10.9236   -9.2812 H       1  UNL1        0.0640
     75 H           6.6006  -10.4653  -11.4124 H       1  UNL1        0.0618
     76 H           8.4410   -8.8198  -11.4779 H       1  UNL1        0.0618
     77 H           9.1598   -7.6133   -9.4029 H       1  UNL1        0.0640
@<TRIPOS>BOND
     1     1    38    1
     2     1    39    1
     3     1    40    1
     4     2     1    1
     5     3     2    1
     6     3    41    1
     7     3    42    1
     8     3    43    1
     9     4     2    1
    10     4    44    1
    11     4    45    1
    12     4    46    1
    13     5     2    1
    14     6     5    1
    15     7     6    2
    16     8     6   am
    17     8    47    1
    18     9     8    1
    19     9    48    1
    20     9    49    1
    21    10     9    1
    22    10    50    1
    23    10    51    1
    24    11    10    1
    25    11    52    1
    26    11    53    1
    27    12    11    1
    28    12    54    1
    29    12    55    1
    30    13    12    1
    31    14    13    1
    32    14    56    1
    33    14    57    1
    34    15    14    1
    35    15    58    1
    36    15    59    1
    37    16    15    1
    38    16    60    1
    39    16    61    1
    40    17    16    1
    41    17    62    1
    42    18    17   am
    43    19    18    2
    44    20    18    1
    45    21    20    1
    46    22    21    1
    47    22    63    1
    48    22    64    1
    49    22    65    1
    50    23    21    1
    51    23    66    1
    52    23    67    1
    53    23    68    1
    54    24    21    1
    55    24    69    1
    56    24    70    1
    57    24    71    1
    58    25    13   am
    59    26    25    2
    60    27    25    1
    61    27    72    1
    62    27    73    1
    63    28    27    1
    64    29    28    1
    65    30    29   ar
    66    31    30   ar
    67    32    31   ar
    68    33    32   ar
    69    33    74    1
    70    34    33   ar
    71    34    75    1
    72    35    34   ar
    73    35    76    1
    74    36    35   ar
    75    36    77    1
    76    37    36   ar
    77    37    29   ar
    78    37    32   ar
