@<TRIPOS>MOLECULE
mol_348_akc_s00044_016_1729_1
>333.sdf
 40 42 0 0 0
SMALL
GASTEIGER

@<TRIPOS>ATOM
      1 C           1.7653   -1.0374   -1.7131 C.3     1  UNL1       -0.0596
      2 C           2.8688   -0.4298   -0.8476 C.3     1  UNL1       -0.0124
      3 C           2.3545    0.8141   -0.1218 C.3     1  UNL1       -0.0596
      4 C           3.3844   -1.4861    0.1380 C.3     1  UNL1        0.0919
      5 O           4.4650   -0.9555    0.9068 O.3     1  UNL1       -0.4916
      6 C           5.0058   -1.7994    1.8392 C.ar    1  UNL1        0.1240
      7 C           4.5986   -3.1083    2.0872 C.ar    1  UNL1        0.0231
      8 C           5.2453   -3.8554    3.0719 C.ar    1  UNL1        0.1431
      9 C           6.2970   -3.3401    3.8201 C.ar    1  UNL1        0.0255
     10 C           6.7017   -2.0243    3.5676 C.ar    1  UNL1       -0.0470
     11 C           6.0577   -1.2615    2.5862 C.ar    1  UNL1       -0.0191
     12 C           6.9423   -4.1906    4.8308 C.ar    1  UNL1       -0.0005
     13 C           6.4677   -5.4342    5.0054 C.ar    1  UNL1        0.0313
     14 C           5.3424   -5.9845    4.2341 C.ar    1  UNL1        0.3378
     15 O           4.9411   -7.1243    4.4403 O.2     1  UNL1       -0.2452
     16 O           4.7748   -5.1661    3.2746 O.2     1  UNL1       -0.4220
     17 C           8.0887   -3.7862    5.6624 C.ar    1  UNL1       -0.0170
     18 C           9.3947   -4.0386    5.2241 C.ar    1  UNL1       -0.0540
     19 C          10.4829   -3.5850    5.9704 C.ar    1  UNL1       -0.0612
     20 C          10.2706   -2.8823    7.1560 C.ar    1  UNL1       -0.0617
     21 C           8.9721   -2.6405    7.6038 C.ar    1  UNL1       -0.0612
     22 C           7.8814   -3.0931    6.8606 C.ar    1  UNL1       -0.0540
     23 H           1.3993   -0.3140   -2.4481 H       1  UNL1        0.0233
     24 H           2.1373   -1.9116   -2.2582 H       1  UNL1        0.0233
     25 H           0.9157   -1.3600   -1.1009 H       1  UNL1        0.0233
     26 H           3.6979   -0.1171   -1.4945 H       1  UNL1        0.0328
     27 H           1.5501    0.5615    0.5774 H       1  UNL1        0.0233
     28 H           3.1555    1.3007    0.4443 H       1  UNL1        0.0233
     29 H           1.9633    1.5455   -0.8370 H       1  UNL1        0.0233
     30 H           2.5652   -1.7880    0.8036 H       1  UNL1        0.0699
     31 H           3.7375   -2.3552   -0.4310 H       1  UNL1        0.0699
     32 H           3.7894   -3.5774    1.5402 H       1  UNL1        0.0691
     33 H           7.5177   -1.5709    4.1255 H       1  UNL1        0.0626
     34 H           6.3823   -0.2386    2.4029 H       1  UNL1        0.0654
     35 H           6.8922   -6.1197    5.7315 H       1  UNL1        0.0695
     36 H           9.5708   -4.5692    4.2912 H       1  UNL1        0.0624
     37 H          11.4952   -3.7698    5.6205 H       1  UNL1        0.0618
     38 H          11.1192   -2.5182    7.7297 H       1  UNL1        0.0618
     39 H           8.8089   -2.0893    8.5263 H       1  UNL1        0.0618
     40 H           6.8726   -2.8841    7.2096 H       1  UNL1        0.0624
@<TRIPOS>BOND
     1     1    23    1
     2     1    24    1
     3     1    25    1
     4     2     1    1
     5     2    26    1
     6     3     2    1
     7     3    27    1
     8     3    28    1
     9     3    29    1
    10     4     2    1
    11     4    30    1
    12     4    31    1
    13     5     4    1
    14     6     5    1
    15     7     6   ar
    16     7    32    1
    17     8     7   ar
    18     9     8   ar
    19    10     9   ar
    20    10    33    1
    21    11    10   ar
    22    11     6   ar
    23    11    34    1
    24    12     9   ar
    25    13    12   ar
    26    13    35    1
    27    14    13   ar
    28    15    14    2
    29    16    14   ar
    30    16     8   ar
    31    17    12    1
    32    18    17   ar
    33    18    36    1
    34    19    18   ar
    35    19    37    1
    36    20    19   ar
    37    20    38    1
    38    21    20   ar
    39    21    39    1
    40    22    21   ar
    41    22    17   ar
    42    22    40    1
