@<TRIPOS>MOLECULE
mol_349_akc_jcbi201610017
>334.sdf
 27 28 0 0 0
SMALL
GASTEIGER

@<TRIPOS>ATOM
      1 N           5.9054    0.0391   -1.6794 N.4     1  UNL1        0.2191
      2 C           6.4083    0.9470   -0.6108 C.3     1  UNL1       -0.0258
      3 C           6.5311    0.2088    0.7238 C.3     1  UNL1        0.0384
      4 S           4.9161   -0.5091    1.1964 S.3     1  UNL1       -0.1192
      5 C           5.3656   -1.2964    2.7549 C.ar    1  UNL1        0.0187
      6 C           5.8247   -0.4815    3.7912 C.ar    1  UNL1       -0.0296
      7 C           6.1590   -1.0758    4.9879 C.ar    1  UNL1        0.0293
      8 N           6.0576   -2.3975    5.2153 N.ar    1  UNL1       -0.2549
      9 C           5.5883   -3.1873    4.2394 C.ar    1  UNL1        0.0734
     10 C           5.4642   -4.5411    4.5110 C.ar    1  UNL1       -0.0174
     11 C           4.9898   -5.4311    3.5521 C.ar    1  UNL1        0.0430
     12 CL          4.8487   -7.1030    3.9263 Cl      1  UNL1       -0.0835
     13 C           4.6287   -4.9754    2.2931 C.ar    1  UNL1       -0.0427
     14 C           4.7408   -3.6165    2.0004 C.ar    1  UNL1       -0.0501
     15 C           5.2218   -2.6937    2.9656 C.ar    1  UNL1        0.0139
     16 H           5.7600    0.5394   -2.5660 H       1  UNL1        0.1994
     17 H           6.5464   -0.7442   -1.8596 H       1  UNL1        0.1994
     18 H           4.9984   -0.3648   -1.3988 H       1  UNL1        0.1994
     19 H           7.3776    1.3244   -0.9452 H       1  UNL1        0.0821
     20 H           5.7012    1.7820   -0.5492 H       1  UNL1        0.0821
     21 H           7.2658   -0.5995    0.6406 H       1  UNL1        0.0432
     22 H           6.8723    0.9094    1.4913 H       1  UNL1        0.0432
     23 H           5.9100    0.5945    3.6947 H       1  UNL1        0.0644
     24 H           6.5245   -0.4902    5.8285 H       1  UNL1        0.0830
     25 H           5.7406   -4.9056    5.4982 H       1  UNL1        0.0653
     26 H           4.2545   -5.6678    1.5430 H       1  UNL1        0.0632
     27 H           4.4356   -3.2870    1.0119 H       1  UNL1        0.0625
@<TRIPOS>UNITY_ATOM_ATTR
1 1
charge 1
@<TRIPOS>BOND
     1     1    16    1
     2     1    17    1
     3     1    18    1
     4     2     1    1
     5     2    19    1
     6     2    20    1
     7     3     2    1
     8     3    21    1
     9     3    22    1
    10     4     3    1
    11     5     4    1
    12     6     5   ar
    13     6    23    1
    14     7     6   ar
    15     7    24    1
    16     8     7   ar
    17     9     8   ar
    18    10     9   ar
    19    10    25    1
    20    11    10   ar
    21    12    11    1
    22    13    11   ar
    23    13    26    1
    24    14    13   ar
    25    14    27    1
    26    15    14   ar
    27    15     5   ar
    28    15     9   ar
