@<TRIPOS>MOLECULE
mol_350_akc_jexppara201610009
>335.sdf
 33 35 0 0 0
SMALL
GASTEIGER

@<TRIPOS>ATOM
      1 O           2.2016    0.0510   -0.0273 O.3     1  UNL1       -0.5068
      2 C           0.8393    0.0062   -0.0507 C.ar    1  UNL1        0.1169
      3 C           0.1569   -1.2052   -0.0666 C.ar    1  UNL1       -0.0196
      4 C          -1.2393   -1.2020   -0.0862 C.ar    1  UNL1       -0.0497
      5 C          -1.9394    0.0112   -0.0885 C.ar    1  UNL1       -0.0052
      6 C          -3.4179    0.0204   -0.0806 C.2     1  UNL1        0.0527
      7 N          -4.0823   -1.0897   -0.0706 N.2     1  UNL1       -0.1899
      8 N          -5.4363   -0.9821   -0.0172 N.pl3   1  UNL1       -0.2371
      9 C          -6.1876   -2.1903   -0.0539 C.ar    1  UNL1        0.0589
     10 C          -5.5267   -3.4235   -0.0780 C.ar    1  UNL1       -0.0204
     11 C          -6.2667   -4.5853   -0.0497 C.ar    1  UNL1        0.0301
     12 N          -7.6090   -4.6128    0.0286 N.ar    1  UNL1       -0.2548
     13 C          -8.2588   -3.4433    0.0969 C.ar    1  UNL1        0.0742
     14 C          -9.6381   -3.4943    0.2180 C.ar    1  UNL1       -0.0173
     15 C         -10.3992   -2.3341    0.3104 C.ar    1  UNL1        0.0430
     16 CL        -12.1095   -2.4421    0.4649 Cl      1  UNL1       -0.0835
     17 C          -9.7854   -1.0899    0.2854 C.ar    1  UNL1       -0.0426
     18 C          -8.3969   -1.0143    0.1667 C.ar    1  UNL1       -0.0494
     19 C          -7.6047   -2.1853    0.0641 C.ar    1  UNL1        0.0230
     20 C          -1.2455    1.2232   -0.0744 C.ar    1  UNL1       -0.0497
     21 C           0.1518    1.2168   -0.0548 C.ar    1  UNL1       -0.0196
     22 H           2.5440   -0.8581   -0.0303 H       1  UNL1        0.2921
     23 H           0.6851   -2.1539   -0.0589 H       1  UNL1        0.0654
     24 H          -1.7759   -2.1481   -0.0910 H       1  UNL1        0.0625
     25 H          -3.9213    1.0034   -0.0657 H       1  UNL1        0.0851
     26 H          -5.8875   -0.2048   -0.4948 H       1  UNL1        0.1744
     27 H          -4.4457   -3.4814   -0.1308 H       1  UNL1        0.0652
     28 H          -5.7809   -5.5559   -0.0854 H       1  UNL1        0.0830
     29 H         -10.1232   -4.4670    0.2486 H       1  UNL1        0.0653
     30 H         -10.3761   -0.1813    0.3641 H       1  UNL1        0.0632
     31 H          -7.9387   -0.0295    0.1694 H       1  UNL1        0.0625
     32 H          -1.7738    2.1734   -0.0706 H       1  UNL1        0.0625
     33 H           0.7049    2.1519   -0.0384 H       1  UNL1        0.0654
@<TRIPOS>BOND
     1     1    22    1
     2     2     1    1
     3     3     2   ar
     4     3    23    1
     5     4     3   ar
     6     4    24    1
     7     5     4   ar
     8     6     5    1
     9     6    25    1
    10     7     6    2
    11     8     7    1
    12     8    26    1
    13     9     8    1
    14    10     9   ar
    15    10    27    1
    16    11    10   ar
    17    11    28    1
    18    12    11   ar
    19    13    12   ar
    20    14    13   ar
    21    14    29    1
    22    15    14   ar
    23    16    15    1
    24    17    15   ar
    25    17    30    1
    26    18    17   ar
    27    18    31    1
    28    19    18   ar
    29    19     9   ar
    30    19    13   ar
    31    20     5   ar
    32    20    32    1
    33    21    20   ar
    34    21     2   ar
    35    21    33    1
