@<TRIPOS>MOLECULE
mol_351_akc_jparint201608003
>336.sdf
 52 54 0 0 0
SMALL
GASTEIGER

@<TRIPOS>ATOM
      1 C           1.7816    0.7216    0.5756 C.3     1  UNL1       -0.0425
      2 N           3.1473    0.4705   -0.0068 N.4     1  UNL1        0.2396
      3 C           3.1884    0.7935   -1.4936 C.3     1  UNL1       -0.0059
      4 C           2.3812   -0.0782   -2.4166 C.ar    1  UNL1       -0.0029
      5 C           1.0804    0.2705   -2.7967 C.ar    1  UNL1       -0.0533
      6 C           0.3452   -0.5465   -3.6568 C.ar    1  UNL1       -0.0576
      7 C           0.8651   -1.7544   -4.1521 C.ar    1  UNL1       -0.0420
      8 C           2.1787   -2.0749   -3.7872 C.ar    1  UNL1       -0.0576
      9 C           2.9331   -1.2501   -2.9455 C.ar    1  UNL1       -0.0533
     10 C           0.0631   -2.7110   -5.0497 C.3     1  UNL1       -0.0127
     11 C          -1.3629   -2.2150   -5.3778 C.3     1  UNL1       -0.0560
     12 C           0.7938   -2.9204   -6.3947 C.3     1  UNL1       -0.0560
     13 C          -0.0770   -4.0706   -4.3320 C.3     1  UNL1       -0.0560
     14 C           3.6838   -0.8789    0.4546 C.3     1  UNL1       -0.0053
     15 C           4.9853   -1.3949   -0.1184 C.ar    1  UNL1        0.0048
     16 C           6.0570   -0.5790   -0.5568 C.ar    1  UNL1       -0.0097
     17 C           6.3394    0.7237   -0.0809 C.ar    1  UNL1       -0.0536
     18 C           7.3011    1.5277   -0.6944 C.ar    1  UNL1       -0.0612
     19 C           7.9697    1.0674   -1.8221 C.ar    1  UNL1       -0.0612
     20 C           7.7822   -0.2462   -2.2443 C.ar    1  UNL1       -0.0540
     21 C           6.9078   -1.1004   -1.5610 C.ar    1  UNL1       -0.0174
     22 C           6.8833   -2.4696   -1.8531 C.ar    1  UNL1       -0.0540
     23 C           6.0376   -3.3237   -1.1584 C.ar    1  UNL1       -0.0607
     24 C           5.0676   -2.7865   -0.3214 C.ar    1  UNL1       -0.0529
     25 H           1.0574    0.0639    0.0907 H       1  UNL1        0.0778
     26 H           1.8217    0.5132    1.6482 H       1  UNL1        0.0778
     27 H           1.5318    1.7736    0.4152 H       1  UNL1        0.0778
     28 H           3.7653    1.1647    0.4188 H       1  UNL1        0.2037
     29 H           2.8505    1.8308   -1.5812 H       1  UNL1        0.0867
     30 H           4.2341    0.8157   -1.8143 H       1  UNL1        0.0867
     31 H           0.6337    1.2056   -2.4602 H       1  UNL1        0.0622
     32 H          -0.6621   -0.2187   -3.9285 H       1  UNL1        0.0621
     33 H           2.6510   -2.9841   -4.1616 H       1  UNL1        0.0621
     34 H           3.9546   -1.5388   -2.7409 H       1  UNL1        0.0622
     35 H          -1.3438   -1.2616   -5.9211 H       1  UNL1        0.0238
     36 H          -1.8973   -2.9354   -6.0079 H       1  UNL1        0.0238
     37 H          -1.9612   -2.0769   -4.4688 H       1  UNL1        0.0238
     38 H           1.7809   -3.3770   -6.2650 H       1  UNL1        0.0238
     39 H           0.2214   -3.5826   -7.0554 H       1  UNL1        0.0238
     40 H           0.9379   -1.9686   -6.9199 H       1  UNL1        0.0238
     41 H           0.8938   -4.5525   -4.1668 H       1  UNL1        0.0238
     42 H          -0.5536   -3.9505   -3.3516 H       1  UNL1        0.0238
     43 H          -0.6850   -4.7673   -4.9172 H       1  UNL1        0.0238
     44 H           3.7650   -0.8278    1.5467 H       1  UNL1        0.0867
     45 H           2.8849   -1.5904    0.2069 H       1  UNL1        0.0867
     46 H           5.8637    1.1030    0.8195 H       1  UNL1        0.0624
     47 H           7.5403    2.5096   -0.2927 H       1  UNL1        0.0618
     48 H           8.6815    1.7058   -2.3399 H       1  UNL1        0.0618
     49 H           8.3490   -0.6075   -3.1025 H       1  UNL1        0.0624
     50 H           7.5758   -2.8910   -2.5806 H       1  UNL1        0.0624
     51 H           6.0987   -4.3992   -1.3133 H       1  UNL1        0.0618
     52 H           4.3450   -3.4652    0.1308 H       1  UNL1        0.0622
@<TRIPOS>UNITY_ATOM_ATTR
2 1
charge 1
@<TRIPOS>BOND
     1     1    25    1
     2     1    26    1
     3     1    27    1
     4     3     2    1
     5     3    29    1
     6     3    30    1
     7     4     3    1
     8     5     4   ar
     9     5    31    1
    10     6     5   ar
    11     6    32    1
    12     7     6   ar
    13     8     7   ar
    14     8    33    1
    15     9     8   ar
    16     9     4   ar
    17     9    34    1
    18    10     7    1
    19    11    10    1
    20    11    35    1
    21    11    36    1
    22    11    37    1
    23    12    10    1
    24    12    38    1
    25    12    39    1
    26    12    40    1
    27    13    10    1
    28    13    41    1
    29    13    42    1
    30    13    43    1
    31    14     2    1
    32    14    44    1
    33    14    45    1
    34    15    14    1
    35    16    15   ar
    36    17    16   ar
    37    17    46    1
    38    18    17   ar
    39    18    47    1
    40    19    18   ar
    41    19    48    1
    42    20    19   ar
    43    20    49    1
    44    21    20   ar
    45    21    16   ar
    46    22    21   ar
    47    22    50    1
    48    23    22   ar
    49    23    51    1
    50    24    23   ar
    51    24    15   ar
    52    24    52    1
    53     2    28    1
    54     2     1    1
