@<TRIPOS>MOLECULE
mol_352_akc_aac01545_16
>337.sdf
 51 54 0 0 0
SMALL
GASTEIGER

@<TRIPOS>ATOM
      1 O           0.9933    2.3047    1.0039 O.3     1  UNL1       -0.3872
      2 C           0.4705    0.9827    1.1189 C.3     1  UNL1        0.0802
      3 C           1.0198    0.3292    2.3926 C.3     1  UNL1       -0.0219
      4 C           2.5531    0.2729    2.4218 C.3     1  UNL1       -0.0372
      5 C           3.0109   -0.3856    3.7192 C.3     1  UNL1        0.0592
      6 C           4.5502   -0.5571    3.9431 C.3     1  UNL1        0.0671
      7 N           4.2859   -2.0018    4.0296 N.am    1  UNL1       -0.2630
      8 C           2.9647   -1.9226    3.7272 C.2     1  UNL1        0.2255
      9 O           2.1084   -2.7455    3.5145 O.2     1  UNL1       -0.2749
     10 C           5.1796   -3.0726    3.9558 C.ar    1  UNL1        0.0371
     11 C           4.7489   -4.3297    3.5096 C.ar    1  UNL1       -0.0375
     12 C           5.6567   -5.3786    3.3498 C.ar    1  UNL1       -0.0247
     13 C           6.9911   -5.1836    3.6730 C.ar    1  UNL1        0.1235
     14 F           7.8641   -6.1856    3.5088 F       1  UNL1       -0.2055
     15 C           7.4327   -3.9609    4.1613 C.ar    1  UNL1       -0.0247
     16 C           6.5288   -2.9020    4.2949 C.ar    1  UNL1       -0.0375
     17 C           5.1669    0.1647    5.2173 C.ar    1  UNL1       -0.0257
     18 C           4.7359   -0.1283    6.5301 C.ar    1  UNL1       -0.0533
     19 C           5.2720    0.5107    7.6512 C.ar    1  UNL1       -0.0199
     20 C           6.2645    1.4644    7.4783 C.ar    1  UNL1        0.1169
     21 O           6.8203    2.1111    8.5404 O.3     1  UNL1       -0.5068
     22 C           6.7204    1.7865    6.2095 C.ar    1  UNL1       -0.0199
     23 C           6.1743    1.1439    5.0953 C.ar    1  UNL1       -0.0533
     24 C          -1.0485    1.0114    1.1079 C.ar    1  UNL1       -0.0190
     25 C          -1.7532    0.3274    0.1001 C.ar    1  UNL1       -0.0534
     26 C          -3.1492    0.3267    0.0814 C.ar    1  UNL1       -0.0261
     27 C          -3.8500    1.0113    1.0663 C.ar    1  UNL1        0.1234
     28 F          -5.1888    1.0093    1.0474 F       1  UNL1       -0.2055
     29 C          -3.1806    1.6940    2.0729 C.ar    1  UNL1       -0.0261
     30 C          -1.7830    1.6937    2.0976 C.ar    1  UNL1       -0.0534
     31 H           0.4774    2.8848    1.5864 H       1  UNL1        0.2102
     32 H           0.8365    0.4264    0.2482 H       1  UNL1        0.0643
     33 H           0.6906    0.8936    3.2748 H       1  UNL1        0.0294
     34 H           0.6044   -0.6809    2.4951 H       1  UNL1        0.0294
     35 H           2.9286   -0.2785    1.5511 H       1  UNL1        0.0274
     36 H           2.9645    1.2870    2.3670 H       1  UNL1        0.0274
     37 H           2.4948    0.0417    4.5900 H       1  UNL1        0.0416
     38 H           5.1328   -0.3413    3.0338 H       1  UNL1        0.0561
     39 H           3.7098   -4.5063    3.2432 H       1  UNL1        0.0637
     40 H           5.3263   -6.3377    2.9640 H       1  UNL1        0.0647
     41 H           8.4775   -3.8362    4.4284 H       1  UNL1        0.0647
     42 H           6.8993   -1.9572    4.6820 H       1  UNL1        0.0637
     43 H           3.9592   -0.8773    6.6804 H       1  UNL1        0.0622
     44 H           4.9030    0.2494    8.6374 H       1  UNL1        0.0654
     45 H           6.4131    1.7750    9.3561 H       1  UNL1        0.2921
     46 H           7.4972    2.5349    6.0845 H       1  UNL1        0.0654
     47 H           6.5449    1.4128    4.1062 H       1  UNL1        0.0622
     48 H          -1.2160   -0.2163   -0.6746 H       1  UNL1        0.0622
     49 H          -3.6932   -0.2051   -0.6926 H       1  UNL1        0.0646
     50 H          -3.7480    2.2179    2.8346 H       1  UNL1        0.0646
     51 H          -1.2781    2.2242    2.8991 H       1  UNL1        0.0622
@<TRIPOS>BOND
     1     1    31    1
     2     2     1    1
     3     2    32    1
     4     3     2    1
     5     3    33    1
     6     3    34    1
     7     4     3    1
     8     4    35    1
     9     4    36    1
    10     5     4    1
    11     5    37    1
    12     6     5    1
    13     6    38    1
    14     7     6    1
    15     8     7   am
    16     8     5    1
    17     9     8    2
    18    10     7    1
    19    11    10   ar
    20    11    39    1
    21    12    11   ar
    22    12    40    1
    23    13    12   ar
    24    14    13    1
    25    15    13   ar
    26    15    41    1
    27    16    15   ar
    28    16    10   ar
    29    16    42    1
    30    17     6    1
    31    18    17   ar
    32    18    43    1
    33    19    18   ar
    34    19    44    1
    35    20    19   ar
    36    21    20    1
    37    21    45    1
    38    22    20   ar
    39    22    46    1
    40    23    22   ar
    41    23    17   ar
    42    23    47    1
    43    24     2    1
    44    25    24   ar
    45    25    48    1
    46    26    25   ar
    47    26    49    1
    48    27    26   ar
    49    28    27    1
    50    29    27   ar
    51    29    50    1
    52    30    29   ar
    53    30    24   ar
    54    30    51    1
