@<TRIPOS>MOLECULE
mol_354_akc_aac00352_16
>339.sdf
 52 56 0 0 0
SMALL
GASTEIGER

@<TRIPOS>ATOM
      1 C           4.8216   -3.9161   -1.4429 C.3     1  UNL1        0.0817
      2 O           4.5514   -3.0744   -0.3213 O.3     1  UNL1       -0.4677
      3 C           5.0776   -1.8211   -0.4166 C.2     1  UNL1        0.3126
      4 O           5.7140   -1.3999   -1.3728 O.2     1  UNL1       -0.2505
      5 C           4.7040   -1.0099    0.7982 C.3     1  UNL1        0.0889
      6 C           5.2146    0.4273    0.7459 C.3     1  UNL1       -0.0218
      7 C           5.0541    0.8754    2.1893 C.3     1  UNL1        0.0126
      8 C           6.0406    1.9264    2.6678 C.3     1  UNL1       -0.0361
      9 C           7.1324    1.1258    3.3543 C.3     1  UNL1       -0.0387
     10 C           6.3984   -0.0816    3.9162 C.3     1  UNL1        0.0005
     11 N           5.2934   -0.3273    2.9998 N.3     1  UNL1       -0.2817
     12 C           5.2887   -1.5258    2.1165 C.3     1  UNL1        0.1395
     13 C           4.3120   -2.5659    2.7661 C.2     1  UNL1        0.2459
     14 O           3.1240   -2.3990    3.0114 O.2     1  UNL1       -0.2728
     15 N           5.0519   -3.7241    3.0246 N.am    1  UNL1       -0.2649
     16 C           4.5011   -4.8849    3.6879 C.3     1  UNL1        0.0449
     17 C           4.8020   -4.9071    5.1704 C.ar    1  UNL1       -0.0297
     18 C           4.2955   -3.9060    6.0126 C.ar    1  UNL1       -0.0571
     19 C           4.5909   -3.9055    7.3767 C.ar    1  UNL1       -0.0615
     20 C           5.3854   -4.9134    7.9179 C.ar    1  UNL1       -0.0617
     21 C           5.8765   -5.9268    7.0976 C.ar    1  UNL1       -0.0615
     22 C           5.5863   -5.9261    5.7313 C.ar    1  UNL1       -0.0571
     23 C           6.3725   -3.5957    2.5771 C.ar    1  UNL1        0.0421
     24 C           6.5715   -2.3263    2.0210 C.ar    1  UNL1        0.0039
     25 C           7.7957   -1.9952    1.4552 C.ar    1  UNL1       -0.0545
     26 C           8.8188   -2.9471    1.4714 C.ar    1  UNL1       -0.0613
     27 C           8.6140   -4.2103    2.0444 C.ar    1  UNL1       -0.0600
     28 C           7.3794   -4.5456    2.6043 C.ar    1  UNL1       -0.0399
     29 H           4.4524   -3.4611   -2.3671 H       1  UNL1        0.0661
     30 H           5.8937   -4.1247   -1.5122 H       1  UNL1        0.0661
     31 H           4.2932   -4.8611   -1.2891 H       1  UNL1        0.0661
     32 H           3.6057   -0.9712    0.8294 H       1  UNL1        0.0441
     33 H           6.2590    0.4772    0.4161 H       1  UNL1        0.0289
     34 H           4.6250    1.0431    0.0582 H       1  UNL1        0.0289
     35 H           4.0256    1.2231    2.3450 H       1  UNL1        0.0463
     36 H           6.4297    2.5627    1.8675 H       1  UNL1        0.0281
     37 H           5.5544    2.5740    3.4089 H       1  UNL1        0.0281
     38 H           7.6316    1.7067    4.1362 H       1  UNL1        0.0278
     39 H           7.8869    0.8184    2.6227 H       1  UNL1        0.0278
     40 H           5.9683    0.1868    4.8892 H       1  UNL1        0.0427
     41 H           7.0664   -0.9256    4.1052 H       1  UNL1        0.0427
     42 H           3.4125   -4.8972    3.5544 H       1  UNL1        0.0518
     43 H           4.8786   -5.7883    3.1948 H       1  UNL1        0.0518
     44 H           3.6673   -3.1137    5.6068 H       1  UNL1        0.0621
     45 H           4.2002   -3.1163    8.0133 H       1  UNL1        0.0618
     46 H           5.6197   -4.9081    8.9790 H       1  UNL1        0.0618
     47 H           6.4892   -6.7173    7.5232 H       1  UNL1        0.0618
     48 H           5.9798   -6.7265    5.1101 H       1  UNL1        0.0621
     49 H           7.9677   -1.0267    0.9976 H       1  UNL1        0.0622
     50 H           9.7848   -2.7084    1.0310 H       1  UNL1        0.0618
     51 H           9.4209   -4.9405    2.0427 H       1  UNL1        0.0618
     52 H           7.2302   -5.5301    3.0312 H       1  UNL1        0.0636
@<TRIPOS>BOND
     1     1    29    1
     2     1    30    1
     3     1    31    1
     4     2     1    1
     5     3     2    1
     6     4     3    2
     7     6     5    1
     8     6    33    1
     9     6    34    1
    10     7     6    1
    11     7    35    1
    12     8     7    1
    13     8    36    1
    14     8    37    1
    15     9     8    1
    16     9    38    1
    17     9    39    1
    18    10     9    1
    19    10    40    1
    20    10    41    1
    21    11    10    1
    22    11     7    1
    23    12    11    1
    24    12     5    1
    25    12    13    1
    26    14    13    2
    27    15    13   am
    28    16    15    1
    29    16    42    1
    30    16    43    1
    31    17    16    1
    32    18    17   ar
    33    18    44    1
    34    19    18   ar
    35    19    45    1
    36    20    19   ar
    37    20    46    1
    38    21    20   ar
    39    21    47    1
    40    22    21   ar
    41    22    17   ar
    42    22    48    1
    43    23    15    1
    44    24    23   ar
    45    24    12    1
    46    25    24   ar
    47    25    49    1
    48    26    25   ar
    49    26    50    1
    50    27    26   ar
    51    27    51    1
    52    28    27   ar
    53    28    23   ar
    54    28    52    1
    55     5    32    1
    56     5     3    1
