@<TRIPOS>MOLECULE
mol_356_akc_acsjnatprod6b00256
>341.sdf
 48 52 0 0 0
SMALL
GASTEIGER

@<TRIPOS>ATOM
      1 H           2.1469   -0.9700    0.1327 H       1  UNL1        0.2580
      2 N           1.5795   -0.1420    0.2439 N.2     1  UNL1       -0.2749
      3 C           0.2605   -0.1988   -0.0302 C.cat   1  UNL1        0.3327
      4 N          -0.2977   -1.3913   -0.3795 N.pl3   1  UNL1       -0.2341
      5 C          -1.6927   -1.4275   -0.8224 C.3     1  UNL1        0.0971
      6 C          -2.5783   -0.4533   -0.0500 C.3     1  UNL1        0.0151
      7 C          -1.9637    0.9135    0.0284 C.3     1  UNL1        0.0752
      8 H          -2.2675    1.5041   -0.8442 H       1  UNL1        0.0672
      9 C          -2.3136    1.6567    1.3208 C.3     1  UNL1       -0.0179
     10 C          -1.2065    2.7065    1.4823 C.3     1  UNL1       -0.0178
     11 C          -0.0386    2.2014    0.6168 C.3     1  UNL1        0.0753
     12 H           0.0250    2.9107   -0.2120 H       1  UNL1        0.0672
     13 C           1.3163    2.1002    1.2795 C.3     1  UNL1        0.0169
     14 C           2.2502    1.1379    0.5328 C.3     1  UNL1        0.1034
     15 C           2.8929    1.5509   -0.7822 C.ar    1  UNL1       -0.0109
     16 C           4.1994    1.1024   -1.0473 C.ar    1  UNL1       -0.0553
     17 C           4.7918    1.3023   -2.3035 C.ar    1  UNL1       -0.0614
     18 C           4.1054    1.9667   -3.3022 C.ar    1  UNL1       -0.0617
     19 C           2.8230    2.4432   -3.0580 C.ar    1  UNL1       -0.0614
     20 C           2.2246    2.2296   -1.8098 C.ar    1  UNL1       -0.0553
     21 N          -0.5011    0.9194    0.0487 N.pl3   1  UNL1       -0.2220
     22 C          -2.3180   -2.7932   -0.6249 C.ar    1  UNL1       -0.0128
     23 C          -2.2486   -3.4547    0.6129 C.ar    1  UNL1       -0.0555
     24 C          -3.1586   -4.4678    0.9172 C.ar    1  UNL1       -0.0614
     25 C          -4.1208   -4.8480   -0.0164 C.ar    1  UNL1       -0.0617
     26 C          -4.1422   -4.2577   -1.2771 C.ar    1  UNL1       -0.0614
     27 C          -3.2386   -3.2439   -1.5869 C.ar    1  UNL1       -0.0555
     28 H           0.2697   -2.2254   -0.4350 H       1  UNL1        0.2449
     29 H          -1.6745   -1.1810   -1.8916 H       1  UNL1        0.0721
     30 H          -2.7548   -0.8298    0.9666 H       1  UNL1        0.0332
     31 H          -3.5688   -0.3854   -0.5177 H       1  UNL1        0.0332
     32 H          -2.2535    0.9693    2.1753 H       1  UNL1        0.0298
     33 H          -3.3199    2.0841    1.3065 H       1  UNL1        0.0298
     34 H          -1.5613    3.6746    1.1109 H       1  UNL1        0.0298
     35 H          -0.9382    2.8337    2.5352 H       1  UNL1        0.0298
     36 H           1.1747    1.7005    2.2926 H       1  UNL1        0.0334
     37 H           1.7693    3.0919    1.3897 H       1  UNL1        0.0334
     38 H           3.0545    0.9127    1.2373 H       1  UNL1        0.0744
     39 H           4.7660    0.5547   -0.2994 H       1  UNL1        0.0621
     40 H           5.7979    0.9294   -2.4931 H       1  UNL1        0.0618
     41 H           4.5607    2.1150   -4.2808 H       1  UNL1        0.0618
     42 H           2.2803    2.9681   -3.8402 H       1  UNL1        0.0618
     43 H           1.2124    2.5936   -1.7118 H       1  UNL1        0.0621
     44 H          -1.5655   -3.1208    1.3906 H       1  UNL1        0.0621
     45 H          -3.1583   -4.9250    1.9040 H       1  UNL1        0.0618
     46 H          -4.8696   -5.5927    0.2448 H       1  UNL1        0.0618
     47 H          -4.8986   -4.5508   -2.0014 H       1  UNL1        0.0618
     48 H          -3.3222   -2.7494   -2.5526 H       1  UNL1        0.0621
@<TRIPOS>UNITY_ATOM_ATTR
2 1
charge 1
@<TRIPOS>BOND
     1     3     2    2
     2     4     3    1
     3     5     4    1
     4     6     5    1
     5     7     6    1
     6     9     7    1
     7    10     9    1
     8    11    10    1
     9    13    11    1
    10    14    13    1
    11    14     2    1
    12    16    15   ar
    13    16    39    1
    14    17    16   ar
    15    17    40    1
    16    18    17   ar
    17    18    41    1
    18    19    18   ar
    19    19    42    1
    20    20    19   ar
    21    20    15   ar
    22    20    43    1
    23    21    11    1
    24    21     3    1
    25    21     7    1
    26    23    22   ar
    27    23    44    1
    28    24    23   ar
    29    24    45    1
    30    25    24   ar
    31    25    46    1
    32    26    25   ar
    33    26    47    1
    34    27    26   ar
    35    27    22   ar
    36    27    48    1
    37     2     1    1
    38     4    28    1
    39     5    29    1
    40    22     5    1
    41     6    30    1
    42     6    31    1
    43     7     8    1
    44     9    32    1
    45     9    33    1
    46    10    34    1
    47    10    35    1
    48    11    12    1
    49    13    36    1
    50    13    37    1
    51    14    38    1
    52    15    14    1
