@<TRIPOS>MOLECULE
mol_357_akc_acsjnatprod6b00256
>342.sdf
 57 60 0 0 0
SMALL
GASTEIGER

@<TRIPOS>ATOM
      1 H           4.4410   -1.7706   -0.3111 H       1  UNL1        0.2577
      2 N           4.4927   -0.7612   -0.3111 N.2     1  UNL1       -0.2793
      3 C           3.4884   -0.0563   -0.8760 C.cat   1  UNL1        0.3321
      4 N           2.3312   -0.6920   -1.1550 N.pl3   1  UNL1       -0.2381
      5 C           1.0312    0.0155   -1.1630 C.3     1  UNL1        0.0719
      6 H           0.6575   -0.0213   -2.1933 H       1  UNL1        0.0670
      7 C           0.0410   -0.6839   -0.2089 C.3     1  UNL1       -0.0209
      8 C          -0.1327   -2.1846   -0.4487 C.3     1  UNL1       -0.0480
      9 C          -1.0058   -2.8480    0.6247 C.3     1  UNL1       -0.0293
     10 C          -2.4619   -2.3844    0.6239 C.3     1  UNL1        0.0481
     11 O          -3.0318   -2.4205   -0.6799 O.3     1  UNL1       -0.3752
     12 C          -3.3097   -3.7494   -1.1271 C.3     1  UNL1        0.0727
     13 C          -4.0782   -3.7146   -2.4222 C.ar    1  UNL1       -0.0219
     14 C          -3.8226   -4.6717   -3.4157 C.ar    1  UNL1       -0.0564
     15 C          -4.5745   -4.6916   -4.5909 C.ar    1  UNL1       -0.0614
     16 C          -5.5942   -3.7624   -4.7823 C.ar    1  UNL1       -0.0617
     17 C          -5.8623   -2.8100   -3.8004 C.ar    1  UNL1       -0.0614
     18 C          -5.1110   -2.7892   -2.6249 C.ar    1  UNL1       -0.0564
     19 C           1.1676    1.4792   -0.7016 C.3     1  UNL1        0.0109
     20 C           2.4040    2.1098   -1.3063 C.3     1  UNL1        0.0748
     21 H           2.2911    2.1988   -2.3938 H       1  UNL1        0.0672
     22 C           2.7725    3.4825   -0.7095 C.3     1  UNL1       -0.0179
     23 C           3.9873    3.2033    0.1947 C.3     1  UNL1       -0.0179
     24 C           4.7066    2.0837   -0.5555 C.3     1  UNL1        0.0750
     25 H           5.1713    2.5273   -1.4468 H       1  UNL1        0.0672
     26 C           5.7902    1.3195    0.1851 C.3     1  UNL1        0.0124
     27 C           5.4082   -0.0903    0.6237 C.3     1  UNL1        0.0754
     28 H           6.3180   -0.7002    0.6599 H       1  UNL1        0.0690
     29 C           4.7841   -0.1024    2.0178 C.3     1  UNL1       -0.0313
     30 N           3.5873    1.2709   -1.0379 N.pl3   1  UNL1       -0.2220
     31 H           2.3598   -1.6965   -1.2595 H       1  UNL1        0.2446
     32 H          -0.9298   -0.1805   -0.2857 H       1  UNL1        0.0297
     33 H           0.3900   -0.5483    0.8238 H       1  UNL1        0.0297
     34 H           0.8384   -2.6877   -0.4149 H       1  UNL1        0.0267
     35 H          -0.5422   -2.3578   -1.4501 H       1  UNL1        0.0267
     36 H          -0.5738   -2.6764    1.6184 H       1  UNL1        0.0287
     37 H          -0.9723   -3.9313    0.4605 H       1  UNL1        0.0287
     38 H          -2.5184   -1.3478    0.9729 H       1  UNL1        0.0560
     39 H          -3.0614   -2.9816    1.3207 H       1  UNL1        0.0560
     40 H          -3.9013   -4.2877   -0.3787 H       1  UNL1        0.0610
     41 H          -2.3612   -4.2753   -1.2812 H       1  UNL1        0.0610
     42 H          -3.0421   -5.4160   -3.2780 H       1  UNL1        0.0621
     43 H          -4.3730   -5.4398   -5.3536 H       1  UNL1        0.0618
     44 H          -6.1873   -3.7847   -5.6935 H       1  UNL1        0.0618
     45 H          -6.6626   -2.0901   -3.9458 H       1  UNL1        0.0618
     46 H          -5.3381   -2.0485   -1.8608 H       1  UNL1        0.0621
     47 H           0.2695    2.0486   -0.9682 H       1  UNL1        0.0328
     48 H           1.2579    1.5146    0.3912 H       1  UNL1        0.0328
     49 H           1.9495    3.9591   -0.1692 H       1  UNL1        0.0298
     50 H           3.0771    4.1580   -1.5182 H       1  UNL1        0.0298
     51 H           4.6114    4.0886    0.3402 H       1  UNL1        0.0298
     52 H           3.6406    2.8519    1.1740 H       1  UNL1        0.0298
     53 H           6.6273    1.2055   -0.5176 H       1  UNL1        0.0330
     54 H           6.1944    1.9065    1.0182 H       1  UNL1        0.0330
     55 H           3.8437    0.4609    2.0403 H       1  UNL1        0.0263
     56 H           4.5515   -1.1289    2.3214 H       1  UNL1        0.0263
     57 H           5.4632    0.3263    2.7613 H       1  UNL1        0.0263
@<TRIPOS>UNITY_ATOM_ATTR
2 1
charge 1
@<TRIPOS>BOND
     1     2     1    1
     2     3     2    2
     3     4     3    1
     4     4    31    1
     5     5     4    1
     6     5     6    1
     7     7     5    1
     8     7    32    1
     9     7    33    1
    10     8     7    1
    11     8    34    1
    12     8    35    1
    13     9     8    1
    14     9    36    1
    15     9    37    1
    16    10     9    1
    17    10    38    1
    18    10    39    1
    19    11    10    1
    20    12    11    1
    21    12    40    1
    22    12    41    1
    23    13    12    1
    24    14    13   ar
    25    14    42    1
    26    15    14   ar
    27    15    43    1
    28    16    15   ar
    29    16    44    1
    30    17    16   ar
    31    17    45    1
    32    18    17   ar
    33    18    13   ar
    34    18    46    1
    35    19     5    1
    36    19    47    1
    37    19    48    1
    38    20    19    1
    39    20    21    1
    40    22    20    1
    41    22    49    1
    42    22    50    1
    43    23    22    1
    44    23    51    1
    45    23    52    1
    46    24    23    1
    47    24    25    1
    48    26    24    1
    49    26    53    1
    50    26    54    1
    51    27    26    1
    52    27     2    1
    53    27    28    1
    54    29    27    1
    55    29    55    1
    56    29    56    1
    57    29    57    1
    58    30    24    1
    59    30     3    1
    60    30    20    1
