@<TRIPOS>MOLECULE
mol_358_akc_jexppara201603007
>343.sdf
 44 46 0 0 0
SMALL
GASTEIGER

@<TRIPOS>ATOM
      1 C           1.2886    0.5707   -1.0869 C.3     1  UNL1        0.0788
      2 O           2.3587    0.0820   -0.2821 O.3     1  UNL1       -0.4951
      3 C           3.1566   -0.8623   -0.8649 C.ar    1  UNL1        0.1201
      4 C           3.3003   -1.0737   -2.2300 C.ar    1  UNL1       -0.0194
      5 C           4.0775   -2.1380   -2.7036 C.ar    1  UNL1       -0.0506
      6 C           4.7490   -3.0033   -1.8252 C.ar    1  UNL1       -0.0171
      7 C           4.7014   -2.6857   -0.4572 C.ar    1  UNL1       -0.0506
      8 C           3.8824   -1.6572    0.0194 C.ar    1  UNL1       -0.0194
      9 C           5.4478   -4.2315   -2.3254 C.ar    1  UNL1       -0.0102
     10 C           6.2602   -4.1011   -3.4780 C.ar    1  UNL1       -0.0534
     11 C           6.9751   -5.1756   -4.0140 C.ar    1  UNL1       -0.0611
     12 C           6.9129   -6.4100   -3.3967 C.ar    1  UNL1       -0.0611
     13 C           6.1003   -6.5830   -2.2762 C.ar    1  UNL1       -0.0534
     14 C           5.3323   -5.5248   -1.7205 C.ar    1  UNL1       -0.0100
     15 C           4.4620   -5.8463   -0.5454 C.ar    1  UNL1       -0.0104
     16 C           4.9153   -6.6883    0.4892 C.ar    1  UNL1       -0.0120
     17 C           4.1288   -6.9592    1.6150 C.ar    1  UNL1        0.1241
     18 O           4.4620   -7.7999    2.6437 O.3     1  UNL1       -0.4950
     19 C           5.6031   -8.6297    2.4506 C.3     1  UNL1        0.0788
     20 C           2.9001   -6.3206    1.7660 C.ar    1  UNL1        0.0218
     21 C           2.4334   -5.4687    0.7694 C.ar    1  UNL1        0.1241
     22 O           1.2693   -4.7484    0.8503 O.3     1  UNL1       -0.4950
     23 C           0.9470   -4.2966    2.1652 C.3     1  UNL1        0.0788
     24 C           3.1627   -5.3154   -0.4099 C.ar    1  UNL1       -0.0120
     25 H           1.6645    1.2005   -1.8973 H       1  UNL1        0.0660
     26 H           0.6727   -0.2482   -1.4764 H       1  UNL1        0.0660
     27 H           0.6497    1.1938   -0.4534 H       1  UNL1        0.0660
     28 H           2.8071   -0.4365   -2.9597 H       1  UNL1        0.0654
     29 H           4.1219   -2.3021   -3.7765 H       1  UNL1        0.0625
     30 H           5.2377   -3.2951    0.2727 H       1  UNL1        0.0625
     31 H           3.7815   -1.5060    1.0910 H       1  UNL1        0.0654
     32 H           6.3511   -3.1387   -3.9787 H       1  UNL1        0.0624
     33 H           7.5817   -5.0363   -4.9039 H       1  UNL1        0.0618
     34 H           7.4864   -7.2480   -3.7875 H       1  UNL1        0.0618
     35 H           6.0564   -7.5790   -1.8417 H       1  UNL1        0.0624
     36 H           5.9124   -7.1170    0.4156 H       1  UNL1        0.0660
     37 H           5.5148   -9.2287    1.5382 H       1  UNL1        0.0660
     38 H           6.5185   -8.0310    2.4447 H       1  UNL1        0.0660
     39 H           5.6611   -9.3208    3.2969 H       1  UNL1        0.0660
     40 H           2.3196   -6.5085    2.6627 H       1  UNL1        0.0691
     41 H           0.4594   -5.0959    2.7322 H       1  UNL1        0.0660
     42 H           1.8254   -3.9171    2.7024 H       1  UNL1        0.0660
     43 H           0.2360   -3.4678    2.0723 H       1  UNL1        0.0660
     44 H           2.7399   -4.6936   -1.1922 H       1  UNL1        0.0660
@<TRIPOS>BOND
     1     1    25    1
     2     1    26    1
     3     1    27    1
     4     2     1    1
     5     3     2    1
     6     4     3   ar
     7     4    28    1
     8     5     4   ar
     9     5    29    1
    10     6     5   ar
    11     7     6   ar
    12     7    30    1
    13     8     7   ar
    14     8     3   ar
    15     8    31    1
    16     9     6    1
    17    10     9   ar
    18    10    32    1
    19    11    10   ar
    20    11    33    1
    21    12    11   ar
    22    12    34    1
    23    13    12   ar
    24    13    35    1
    25    14    13   ar
    26    14     9   ar
    27    15    14    1
    28    16    15   ar
    29    16    36    1
    30    17    16   ar
    31    18    17    1
    32    19    18    1
    33    19    37    1
    34    19    38    1
    35    19    39    1
    36    20    17   ar
    37    20    40    1
    38    21    20   ar
    39    22    21    1
    40    23    22    1
    41    23    41    1
    42    23    42    1
    43    23    43    1
    44    24    21   ar
    45    24    15   ar
    46    24    44    1
