@<TRIPOS>MOLECULE
mol_359_akc_s00109_016_1384_5
>344.sdf
 51 51 0 0 0
SMALL
GASTEIGER

@<TRIPOS>ATOM
      1 C           9.4913   -7.7565    1.5803 C.3     1  UNL1       -0.0653
      2 C           8.1951   -7.4364    2.3080 C.3     1  UNL1       -0.0559
      3 C           8.2161   -6.0117    2.8585 C.3     1  UNL1       -0.0530
      4 C           6.9167   -5.6687    3.5891 C.3     1  UNL1       -0.0496
      5 C           6.9287   -4.2578    4.1848 C.3     1  UNL1       -0.0345
      6 C           7.0233   -3.1660    3.1600 C.2     1  UNL1       -0.0840
      7 C           8.0740   -2.3481    3.0051 C.2     1  UNL1       -0.0653
      8 C           8.0833   -1.2196    2.1041 C.2     1  UNL1       -0.0547
      9 C           8.0024   -1.2254    0.7651 C.2     1  UNL1        0.0064
     10 C           7.9233   -2.3079   -0.2792 C.3     1  UNL1        0.0096
     11 C           6.6581   -3.1753   -0.2409 C.3     1  UNL1       -0.0243
     12 C           6.6589   -4.2596   -1.2884 C.2     1  UNL1       -0.0871
     13 C           5.5957   -4.6926   -1.9824 C.2     1  UNL1       -0.0879
     14 C           4.1960   -4.1520   -1.8958 C.3     1  UNL1       -0.0343
     15 C           3.2371   -5.1167   -1.1965 C.3     1  UNL1       -0.0395
     16 C           3.6862   -5.4322    0.2349 C.3     1  UNL1        0.0451
     17 C           2.7536   -6.3902    0.9294 C.2     1  UNL1        0.3047
     18 O           3.3654   -7.1357    1.8788 O.3     1  UNL1       -0.4806
     19 O           1.5571   -6.4767    0.7062 O.2     1  UNL1       -0.2510
     20 C           7.9516   -1.5357   -1.5757 C.2     1  UNL1       -0.0726
     21 C           8.0110   -0.2108   -1.4192 C.2     1  UNL1       -0.0180
     22 C           8.0732    0.0695    0.0255 C.2     1  UNL1        0.1824
     23 O           8.1740    1.1790    0.5017 O.2     1  UNL1       -0.2876
     24 H           9.4561   -8.7689    1.1669 H       1  UNL1        0.0230
     25 H           9.6597   -7.0570    0.7551 H       1  UNL1        0.0230
     26 H          10.3468   -7.6954    2.2609 H       1  UNL1        0.0230
     27 H           7.3536   -7.5552    1.6155 H       1  UNL1        0.0263
     28 H           8.0502   -8.1539    3.1239 H       1  UNL1        0.0263
     29 H           9.0629   -5.8945    3.5457 H       1  UNL1        0.0265
     30 H           8.3729   -5.3143    2.0279 H       1  UNL1        0.0265
     31 H           6.0665   -5.7792    2.9054 H       1  UNL1        0.0268
     32 H           6.7602   -6.3861    4.4051 H       1  UNL1        0.0268
     33 H           5.9902   -4.1039    4.7312 H       1  UNL1        0.0307
     34 H           7.7363   -4.1730    4.9207 H       1  UNL1        0.0307
     35 H           6.1289   -3.0131    2.5634 H       1  UNL1        0.0572
     36 H           8.9388   -2.4366    3.6613 H       1  UNL1        0.0615
     37 H           8.2107   -0.2621    2.6141 H       1  UNL1        0.0622
     38 H           8.8195   -2.9377   -0.2158 H       1  UNL1        0.0396
     39 H           6.5922   -3.7101    0.7036 H       1  UNL1        0.0316
     40 H           5.7738   -2.5313   -0.3040 H       1  UNL1        0.0316
     41 H           7.6148   -4.7565   -1.4545 H       1  UNL1        0.0569
     42 H           5.7376   -5.5337   -2.6605 H       1  UNL1        0.0569
     43 H           4.1604   -3.1877   -1.3809 H       1  UNL1        0.0307
     44 H           3.8478   -3.9543   -2.9158 H       1  UNL1        0.0307
     45 H           2.2372   -4.6639   -1.1840 H       1  UNL1        0.0273
     46 H           3.1482   -6.0425   -1.7787 H       1  UNL1        0.0273
     47 H           4.6798   -5.8889    0.2099 H       1  UNL1        0.0378
     48 H           3.7372   -4.5137    0.8293 H       1  UNL1        0.0378
     49 H           4.3247   -6.9822    1.9552 H       1  UNL1        0.2951
     50 H           7.8835   -2.0199   -2.5424 H       1  UNL1        0.0579
     51 H           8.0128    0.5548   -2.1746 H       1  UNL1        0.0653
@<TRIPOS>BOND
     1     1    24    1
     2     1    25    1
     3     1    26    1
     4     2     1    1
     5     2    27    1
     6     2    28    1
     7     3     2    1
     8     3    29    1
     9     3    30    1
    10     4     3    1
    11     4    31    1
    12     4    32    1
    13     5     4    1
    14     5    33    1
    15     5    34    1
    16     6     5    1
    17     6    35    1
    18     7     6    2
    19     7    36    1
    20     8     7    1
    21     8    37    1
    22     9     8    2
    23    10     9    1
    24    10    38    1
    25    11    10    1
    26    11    39    1
    27    11    40    1
    28    12    11    1
    29    12    41    1
    30    13    12    2
    31    13    42    1
    32    14    13    1
    33    14    43    1
    34    14    44    1
    35    15    14    1
    36    15    45    1
    37    15    46    1
    38    16    15    1
    39    16    47    1
    40    16    48    1
    41    17    16    1
    42    18    17    1
    43    18    49    1
    44    19    17    2
    45    20    10    1
    46    20    50    1
    47    21    20    2
    48    21    51    1
    49    22    21    1
    50    22     9    1
    51    23    22    2
