@<TRIPOS>MOLECULE
mol_35_akc_101016c
>35.sdf
 44 46 0 0 0
SMALL
GASTEIGER

@<TRIPOS>ATOM
      1 C           2.6030   -1.1961    1.6626 C.3     1  UNL1       -0.0121
      2 S           3.6888   -0.3795    0.4660 S.3     1  UNL1       -0.1091
      3 C           3.7370   -1.6176   -0.8228 C.ar    1  UNL1        0.1023
      4 C           4.4677   -1.3514   -1.9546 C.ar    1  UNL1       -0.0042
      5 C           4.4796   -2.3426   -2.9054 C.ar    1  UNL1        0.0700
      6 C           5.2441   -2.1484   -4.1462 C.2     1  UNL1       -0.0356
      7 C           5.3395   -3.0705   -5.1165 C.2     1  UNL1       -0.0526
      8 C           6.0947   -2.8823   -6.3613 C.ar    1  UNL1       -0.0247
      9 C           7.2742   -2.1301   -6.4307 C.ar    1  UNL1       -0.0511
     10 C           7.9902   -2.0399   -7.6285 C.ar    1  UNL1       -0.0194
     11 C           7.5518   -2.7197   -8.7636 C.ar    1  UNL1        0.1210
     12 O           8.3664   -2.6266   -9.8614 O.3     1  UNL1       -0.4874
     13 C           8.2143   -3.6879  -10.8083 C.3     1  UNL1        0.1146
     14 C           9.4240   -3.8059  -11.7047 C.ar    1  UNL1       -0.0104
     15 C           9.8451   -5.0779  -12.1244 C.ar    1  UNL1       -0.0554
     16 C          10.9283   -5.2191  -12.9912 C.ar    1  UNL1       -0.0614
     17 C          11.5968   -4.0901  -13.4553 C.ar    1  UNL1       -0.0617
     18 C          11.1828   -2.8201  -13.0549 C.ar    1  UNL1       -0.0614
     19 C          10.0978   -2.6767  -12.1870 C.ar    1  UNL1       -0.0554
     20 C           6.3578   -3.4401   -8.7115 C.ar    1  UNL1       -0.0194
     21 C           5.6446   -3.5339   -7.5141 C.ar    1  UNL1       -0.0511
     22 N           3.8159   -3.5047   -2.7523 N.ar    1  UNL1       -0.2152
     23 C           3.1201   -3.6557   -1.6269 C.ar    1  UNL1        0.2141
     24 N           2.4429   -4.8447   -1.4509 N.pl3   1  UNL1       -0.3274
     25 N           3.0643   -2.7662   -0.6376 N.ar    1  UNL1       -0.2083
     26 H           1.6221   -1.3963    1.2227 H       1  UNL1        0.0344
     27 H           3.0492   -2.1307    2.0138 H       1  UNL1        0.0344
     28 H           2.4653   -0.5366    2.5234 H       1  UNL1        0.0344
     29 H           5.0038   -0.4195   -2.0833 H       1  UNL1        0.0665
     30 H           5.7361   -1.1864   -4.2531 H       1  UNL1        0.0639
     31 H           4.8226   -4.0236   -5.0174 H       1  UNL1        0.0624
     32 H           7.6680   -1.6257   -5.5524 H       1  UNL1        0.0625
     33 H           8.9107   -1.4626   -7.6646 H       1  UNL1        0.0654
     34 H           8.0926   -4.6435  -10.2815 H       1  UNL1        0.0748
     35 H           7.3355   -3.4959  -11.4354 H       1  UNL1        0.0748
     36 H           9.3295   -5.9702  -11.7756 H       1  UNL1        0.0621
     37 H          11.2460   -6.2100  -13.3041 H       1  UNL1        0.0618
     38 H          12.4410   -4.1984  -14.1321 H       1  UNL1        0.0618
     39 H          11.7035   -1.9395  -13.4200 H       1  UNL1        0.0618
     40 H           9.7816   -1.6808  -11.8872 H       1  UNL1        0.0621
     41 H           5.9579   -3.9490   -9.5822 H       1  UNL1        0.0654
     42 H           4.7309   -4.1243   -7.4923 H       1  UNL1        0.0625
     43 H           2.3248   -5.0318   -0.4658 H       1  UNL1        0.1452
     44 H           2.8691   -5.5681   -2.0131 H       1  UNL1        0.1452
@<TRIPOS>BOND
     1     1    26    1
     2     1    27    1
     3     1    28    1
     4     2     1    1
     5     3     2    1
     6     4     3   ar
     7     4    29    1
     8     5     4   ar
     9     6     5    1
    10     6    30    1
    11     7     6    2
    12     7    31    1
    13     8     7    1
    14     9     8   ar
    15     9    32    1
    16    10     9   ar
    17    10    33    1
    18    11    10   ar
    19    12    11    1
    20    13    12    1
    21    13    34    1
    22    13    35    1
    23    14    13    1
    24    15    14   ar
    25    15    36    1
    26    16    15   ar
    27    16    37    1
    28    17    16   ar
    29    17    38    1
    30    18    17   ar
    31    18    39    1
    32    19    18   ar
    33    19    14   ar
    34    19    40    1
    35    20    11   ar
    36    20    41    1
    37    21    20   ar
    38    21     8   ar
    39    21    42    1
    40    22     5   ar
    41    23    22   ar
    42    24    23    1
    43    24    43    1
    44    24    44    1
    45    25    23   ar
    46    25     3   ar
