@<TRIPOS>MOLECULE
mol_361_akc_dddts96650
>346.sdf
 31 32 0 0 0
SMALL
GASTEIGER

@<TRIPOS>ATOM
      1 O           0.7397   -0.8375   -0.8508 O.co2   1  UNL1       -0.5760
      2 N           1.3759   -0.9600   -1.9088 N.pl3   1  UNL1        0.0816
      3 O           1.1014   -1.7300   -2.8360 O.2     1  UNL1        0.0415
      4 C           2.6033   -0.1962   -2.0186 C.ar    1  UNL1        0.2992
      5 C           2.6185    1.1961   -1.8964 C.ar    1  UNL1        0.1818
      6 C           3.8384    1.8724   -2.0392 C.ar    1  UNL1       -0.0286
      7 C           5.0204    1.1544   -2.2582 C.ar    1  UNL1       -0.0595
      8 C           4.9970   -0.2381   -2.3422 C.ar    1  UNL1       -0.0552
      9 C           3.7873   -0.9213   -2.2266 C.ar    1  UNL1        0.0176
     10 S           1.1179    2.1378   -1.7843 S.O2    1  UNL1        0.0652
     11 O           1.4736    3.5383   -1.8307 O.2     1  UNL1       -0.1528
     12 O           0.2170    1.5624   -2.7572 O.2     1  UNL1       -0.1528
     13 N           0.5082    1.8186   -0.2579 N.3     1  UNL1       -0.1839
     14 C           1.0814    2.5571    0.8764 C.3     1  UNL1        0.0596
     15 C           0.4425    2.1536    2.1910 C.ar    1  UNL1        0.0567
     16 N           1.0406    1.1531    2.8872 N.ar    1  UNL1       -0.2585
     17 C           0.4642    0.7793    4.0523 C.ar    1  UNL1        0.0279
     18 C          -0.6894    1.3502    4.5633 C.ar    1  UNL1       -0.0436
     19 C          -1.3008    2.3598    3.8304 C.ar    1  UNL1       -0.0586
     20 C          -0.7360    2.7633    2.6230 C.ar    1  UNL1       -0.0391
     21 H           3.8822    2.9606   -2.0179 H       1  UNL1        0.0639
     22 H           5.9631    1.6858   -2.3822 H       1  UNL1        0.0618
     23 H           5.9198   -0.7899   -2.5122 H       1  UNL1        0.0620
     24 H           3.7725   -2.0065   -2.3054 H       1  UNL1        0.0686
     25 H           0.3838    0.8133   -0.0695 H       1  UNL1        0.1484
     26 H           2.1572    2.3652    0.9422 H       1  UNL1        0.0506
     27 H           0.9360    3.6335    0.7333 H       1  UNL1        0.0506
     28 H           0.9717   -0.0204    4.5843 H       1  UNL1        0.0829
     29 H          -1.1046    1.0117    5.5061 H       1  UNL1        0.0633
     30 H          -2.2135    2.8245    4.1931 H       1  UNL1        0.0619
     31 H          -1.2116    3.5392    2.0304 H       1  UNL1        0.0636
@<TRIPOS>UNITY_ATOM_ATTR
1 1
charge -1
2 1
charge 1
@<TRIPOS>BOND
     1     2     1    1
     2     3     2    2
     3     4     2    1
     4     5     4   ar
     5     6     5   ar
     6     6    21    1
     7     7     6   ar
     8     7    22    1
     9     8     7   ar
    10     8    23    1
    11     9     8   ar
    12     9     4   ar
    13     9    24    1
    14    10     5    1
    15    11    10    2
    16    12    10    2
    17    13    10    1
    18    13    25    1
    19    14    13    1
    20    14    26    1
    21    14    27    1
    22    15    14    1
    23    16    15   ar
    24    17    16   ar
    25    17    28    1
    26    18    17   ar
    27    18    29    1
    28    19    18   ar
    29    19    30    1
    30    20    19   ar
    31    20    15   ar
    32    20    31    1
