@<TRIPOS>MOLECULE
mol_362_akc_jbmcl201603082
>347.sdf
 55 58 0 0 0
SMALL
GASTEIGER

@<TRIPOS>ATOM
      1 C           0.7237   -0.2228    1.6486 C.3     1  UNL1       -0.0281
      2 C           2.2020   -0.5497    1.8698 C.3     1  UNL1        0.0946
      3 C           2.5284   -1.8833    1.1976 C.3     1  UNL1       -0.0281
      4 O           2.9638    0.5363    1.3100 O.3     1  UNL1       -0.4885
      5 C           4.3206    0.5727    1.5167 C.ar    1  UNL1        0.1353
      6 C           5.1339    1.0813    0.4864 C.ar    1  UNL1        0.0591
      7 C           6.5276    1.0415    0.6488 C.ar    1  UNL1       -0.0437
      8 C           7.1055    0.6035    1.8390 C.ar    1  UNL1       -0.0161
      9 C           6.3078    0.2406    2.9240 C.ar    1  UNL1        0.1220
     10 N           6.8205    0.0344    4.2283 N.pl3   1  UNL1       -0.2050
     11 C           7.9143    0.5507    4.8591 C.2     1  UNL1        0.2565
     12 N           8.5934    1.4307    4.2870 N.2     1  UNL1       -0.4083
     13 C           8.3449    0.2113    6.2608 C.ar    1  UNL1        0.1463
     14 N           9.4076    0.9938    6.6204 N.ar    1  UNL1       -0.2477
     15 C           9.8879    0.7893    7.8682 C.ar    1  UNL1        0.0285
     16 C           9.3527   -0.1365    8.7509 C.ar    1  UNL1       -0.0435
     17 C           8.2596   -0.9007    8.3423 C.ar    1  UNL1       -0.0581
     18 C           7.7342   -0.7300    7.0648 C.ar    1  UNL1       -0.0286
     19 C           4.9129    0.1933    2.7329 C.ar    1  UNL1        0.0254
     20 C           4.6025    1.6893   -0.7288 C.ar    1  UNL1        0.1392
     21 C           3.5169    2.4886   -1.0167 C.ar    1  UNL1       -0.0151
     22 C           3.5878    2.7819   -2.4006 C.ar    1  UNL1       -0.0153
     23 C           4.7045    2.1334   -2.8917 C.ar    1  UNL1        0.1357
     24 O           5.3411    1.4962   -1.8631 O.2     1  UNL1       -0.4547
     25 C           5.2762    1.9572   -4.2254 C.ar    1  UNL1        0.0173
     26 C           4.5905    2.4346   -5.3528 C.ar    1  UNL1       -0.0511
     27 C           5.0705    2.1944   -6.6430 C.ar    1  UNL1       -0.0611
     28 C           6.2521    1.4822   -6.8256 C.ar    1  UNL1       -0.0617
     29 C           6.9630    1.0254   -5.7186 C.ar    1  UNL1       -0.0611
     30 C           6.4800    1.2641   -4.4274 C.ar    1  UNL1       -0.0511
     31 H           0.0794   -1.0622    1.9324 H       1  UNL1        0.0265
     32 H           0.4333    0.6451    2.2501 H       1  UNL1        0.0265
     33 H           0.5253    0.0343    0.6023 H       1  UNL1        0.0265
     34 H           2.3537   -0.6239    2.9513 H       1  UNL1        0.0727
     35 H           2.4744   -1.8012    0.1070 H       1  UNL1        0.0265
     36 H           3.5418   -2.2122    1.4471 H       1  UNL1        0.0265
     37 H           1.8364   -2.6684    1.5234 H       1  UNL1        0.0265
     38 H           7.1755    1.3802   -0.1600 H       1  UNL1        0.0627
     39 H           8.1877    0.5548    1.8779 H       1  UNL1        0.0658
     40 H           6.1812   -0.5302    4.7863 H       1  UNL1        0.2983
     41 H           9.0844    1.9423    5.0280 H       1  UNL1        0.2551
     42 H          10.7394    1.4016    8.1577 H       1  UNL1        0.0830
     43 H           9.7778   -0.2623    9.7433 H       1  UNL1        0.0633
     44 H           7.8225   -1.6280    9.0236 H       1  UNL1        0.0619
     45 H           6.8874   -1.3207    6.7423 H       1  UNL1        0.0641
     46 H           4.2780   -0.0959    3.5648 H       1  UNL1        0.0695
     47 H           2.7675    2.8247   -0.3139 H       1  UNL1        0.0656
     48 H           2.8887    3.3733   -2.9746 H       1  UNL1        0.0656
     49 H           3.6569    2.9807   -5.2449 H       1  UNL1        0.0625
     50 H           4.5110    2.5515   -7.5040 H       1  UNL1        0.0618
     51 H           6.6145    1.2791   -7.8302 H       1  UNL1        0.0618
     52 H           7.8860    0.4689   -5.8606 H       1  UNL1        0.0618
     53 H           7.0457    0.8830   -3.5807 H       1  UNL1        0.0625
     54 H           8.0390    1.9952    3.6709 H       1  UNL1        0.2551
     55 H           9.3404    0.9732    3.7953 H       1  UNL1        0.2551
@<TRIPOS>BOND
     1     1    31    1
     2     1    32    1
     3     1    33    1
     4     2     1    1
     5     2    34    1
     6     3     2    1
     7     3    35    1
     8     3    36    1
     9     3    37    1
    10     4     2    1
    11     5     4    1
    12     6     5   ar
    13     7     6   ar
    14     7    38    1
    15     8     7   ar
    16     8    39    1
    17     9     8   ar
    18    10     9    1
    19    10    40    1
    20    11    10    1
    21    12    11    2
    22    12    41    1
    23    12    54    1
    24    13    11    1
    25    14    13   ar
    26    15    14   ar
    27    15    42    1
    28    16    15   ar
    29    16    43    1
    30    17    16   ar
    31    17    44    1
    32    18    17   ar
    33    18    13   ar
    34    18    45    1
    35    19     9   ar
    36    19     5   ar
    37    19    46    1
    38    20     6    1
    39    21    20   ar
    40    21    47    1
    41    22    21   ar
    42    22    48    1
    43    23    22   ar
    44    24    23   ar
    45    24    20   ar
    46    25    23    1
    47    26    25   ar
    48    26    49    1
    49    27    26   ar
    50    27    50    1
    51    28    27   ar
    52    28    51    1
    53    29    28   ar
    54    29    52    1
    55    30    29   ar
    56    30    25   ar
    57    30    53    1
    58    12    55    1
