@<TRIPOS>MOLECULE
mol_364_akc_0103_505320150330
>349.sdf
 30 31 0 0 0
SMALL
GASTEIGER

@<TRIPOS>ATOM
      1 C           0.9579   -0.0609    0.0809 C.3     1  UNL1       -0.0188
      2 C           2.4748    0.0048    0.0710 C.2     1  UNL1        0.0815
      3 N           3.1566    0.8720    0.7686 N.2     1  UNL1       -0.1828
      4 N           2.4847    1.7856    1.5266 N.am    1  UNL1       -0.2027
      5 C           3.1866    2.7198    2.2749 C.2     1  UNL1        0.2634
      6 O           4.4082    2.8207    2.3277 O.2     1  UNL1       -0.2684
      7 C           2.3446    3.6870    3.0354 C.ar    1  UNL1        0.0412
      8 C           1.0732    3.3556    3.5090 C.ar    1  UNL1       -0.0314
      9 C           0.3640    4.3257    4.1957 C.ar    1  UNL1        0.0283
     10 N           0.8328    5.5673    4.4370 N.ar    1  UNL1       -0.2632
     11 C           2.0756    5.8529    3.9914 C.ar    1  UNL1        0.0283
     12 C           2.8647    4.9557    3.2965 C.ar    1  UNL1       -0.0314
     13 C           3.2071   -0.9782   -0.7939 C.ar    1  UNL1        0.0862
     14 N           2.4417   -1.8440   -1.5049 N.ar    1  UNL1       -0.2537
     15 C           3.0873   -2.7268   -2.2970 C.ar    1  UNL1        0.0283
     16 C           4.4649   -2.7881   -2.4195 C.ar    1  UNL1       -0.0436
     17 C           5.2313   -1.8915   -1.6831 C.ar    1  UNL1       -0.0583
     18 C           4.5970   -0.9693   -0.8535 C.ar    1  UNL1       -0.0345
     19 H           0.6048   -0.1566    1.1124 H       1  UNL1        0.0294
     20 H           0.5569    0.8580   -0.3571 H       1  UNL1        0.0294
     21 H           0.5541   -0.9053   -0.4793 H       1  UNL1        0.0294
     22 H           1.4815    1.8616    1.4278 H       1  UNL1        0.1776
     23 H           0.6422    2.3700    3.3845 H       1  UNL1        0.0640
     24 H          -0.6290    4.1233    4.5883 H       1  UNL1        0.0830
     25 H           2.4297    6.8553    4.2162 H       1  UNL1        0.0830
     26 H           3.8587    5.2376    2.9635 H       1  UNL1        0.0640
     27 H           2.4459   -3.4070   -2.8509 H       1  UNL1        0.0830
     28 H           4.9299   -3.5171   -3.0741 H       1  UNL1        0.0633
     29 H           6.3155   -1.9076   -1.7540 H       1  UNL1        0.0619
     30 H           5.1793   -0.2605   -0.2721 H       1  UNL1        0.0639
@<TRIPOS>BOND
     1     1    19    1
     2     1    20    1
     3     1    21    1
     4     2     1    1
     5     3     2    2
     6     4     3    1
     7     4    22    1
     8     5     4   am
     9     6     5    2
    10     7     5    1
    11     8     7   ar
    12     8    23    1
    13     9     8   ar
    14     9    24    1
    15    10     9   ar
    16    11    10   ar
    17    11    25    1
    18    12    11   ar
    19    12     7   ar
    20    12    26    1
    21    13     2    1
    22    14    13   ar
    23    15    14   ar
    24    15    27    1
    25    16    15   ar
    26    16    28    1
    27    17    16   ar
    28    17    29    1
    29    18    17   ar
    30    18    13   ar
    31    18    30    1
