@<TRIPOS>MOLECULE
mol_365_akc_jexppara201601007
>350.sdf
 28 29 0 0 0
SMALL
GASTEIGER

@<TRIPOS>ATOM
      1 O           1.0659   -0.0550    0.0337 O.2     1  UNL1       -0.2685
      2 C           2.2860    0.0502    0.1055 C.2     1  UNL1        0.2633
      3 N           3.0080    0.1739    1.2863 N.am    1  UNL1       -0.2030
      4 N           2.3251    0.3021    2.4640 N.2     1  UNL1       -0.1874
      5 C           3.0375    0.4758    3.5256 C.2     1  UNL1        0.0559
      6 C           2.3508    0.6710    4.7800 C.ar    1  UNL1        0.0346
      7 C           2.9662    0.8374    6.0060 C.ar    1  UNL1        0.1033
      8 O           2.0443    1.0044    6.9940 O.2     1  UNL1       -0.4417
      9 C           0.8268    0.9453    6.3895 C.ar    1  UNL1        0.2803
     10 C           0.9480    0.7466    5.0353 C.ar    1  UNL1        0.0166
     11 N          -0.3158    1.0927    7.2349 N.pl3   1  UNL1        0.0926
     12 O          -1.4215    1.0384    6.6806 O.2     1  UNL1       -0.1231
     13 O          -0.1202    1.2642    8.4456 O.2     1  UNL1       -0.1231
     14 C           3.0854    0.1108   -1.1505 C.ar    1  UNL1        0.0384
     15 C           2.4780    0.6636   -2.2865 C.ar    1  UNL1       -0.0496
     16 C           3.1851    0.7648   -3.4851 C.ar    1  UNL1       -0.0610
     17 C           4.4988    0.3054   -3.5581 C.ar    1  UNL1       -0.0617
     18 C           5.1039   -0.2639   -2.4368 C.ar    1  UNL1       -0.0610
     19 C           4.4001   -0.3662   -1.2331 C.ar    1  UNL1       -0.0496
     20 H           4.0014    0.3687    1.2657 H       1  UNL1        0.1776
     21 H           4.1412    0.4887    3.5218 H       1  UNL1        0.0852
     22 H           3.9976    0.8612    6.3326 H       1  UNL1        0.1037
     23 H           0.1432    0.6666    4.3153 H       1  UNL1        0.0680
     24 H           1.4506    1.0209   -2.2364 H       1  UNL1        0.0625
     25 H           2.7079    1.1984   -4.3608 H       1  UNL1        0.0618
     26 H           5.0474    0.3804   -4.4937 H       1  UNL1        0.0618
     27 H           6.1228   -0.6379   -2.5067 H       1  UNL1        0.0618
     28 H           4.8814   -0.8476   -0.3869 H       1  UNL1        0.0625
@<TRIPOS>BOND
     1     2     1    2
     2     3     2   am
     3     3    20    1
     4     4     3    1
     5     5     4    2
     6     5    21    1
     7     6     5    1
     8     7     6   ar
     9     7    22    1
    10     8     7   ar
    11     9     8   ar
    12    10     9   ar
    13    10     6   ar
    14    10    23    1
    15    11     9    1
    16    12    11    2
    17    13    11    2
    18    14     2    1
    19    15    14   ar
    20    15    24    1
    21    16    15   ar
    22    16    25    1
    23    17    16   ar
    24    17    26    1
    25    18    17   ar
    26    18    27    1
    27    19    18   ar
    28    19    14   ar
    29    19    28    1
