@<TRIPOS>MOLECULE
mol_368_akc_acsjnatprod5b00990
>353.sdf
 58 60 0 0 0
SMALL
GASTEIGER

@<TRIPOS>ATOM
      1 H          -1.0314    2.6337   -0.8884 H       1  UNL1        0.0315
      2 C          -0.6461    1.9556   -0.1054 C.3     1  UNL1       -0.0245
      3 C           0.3848    1.0936   -0.8756 C.3     1  UNL1       -0.0449
      4 C           1.8575    1.4399   -0.6847 C.3     1  UNL1       -0.0271
      5 C           2.1135    2.8799   -0.3558 C.ar    1  UNL1       -0.0434
      6 C           1.1548    3.6592    0.3185 C.ar    1  UNL1       -0.0380
      7 C           1.3895    5.0361    0.4258 C.ar    1  UNL1       -0.0575
      8 C           2.5637    5.6064   -0.0685 C.ar    1  UNL1       -0.0580
      9 C           3.5799    4.8064   -0.5974 C.ar    1  UNL1       -0.0445
     10 C           3.3453    3.4368   -0.7237 C.ar    1  UNL1       -0.0549
     11 C           4.8659    5.3890   -1.1454 C.3     1  UNL1       -0.0215
     12 C           5.4145    6.5510   -0.3149 C.3     1  UNL1       -0.0586
     13 C           4.6337    5.7937   -2.6024 C.3     1  UNL1       -0.0586
     14 C          -0.0598    2.9509    0.9471 C.3     1  UNL1       -0.0034
     15 C           0.4678    2.2593    2.2358 C.3     1  UNL1       -0.0553
     16 C          -1.1954    3.9585    1.3337 C.3     1  UNL1       -0.0433
     17 C          -2.6168    3.3979    1.3432 C.3     1  UNL1       -0.0517
     18 C          -2.6553    1.8949    1.5265 C.3     1  UNL1       -0.0459
     19 C          -1.9076    1.1395    0.3916 C.3     1  UNL1       -0.0129
     20 C          -1.5440   -0.2746    0.9207 C.3     1  UNL1       -0.0579
     21 C          -2.8626    0.9745   -0.8320 C.3     1  UNL1        0.0176
     22 N          -4.0207    0.1577   -0.5310 N.am    1  UNL1       -0.3113
     23 C          -4.9519   -0.1240   -1.4913 C.2     1  UNL1        0.2364
     24 O          -5.0529    0.4159   -2.5837 O.2     1  UNL1       -0.2709
     25 C          -5.7856   -1.2613   -1.0699 C.2     1  UNL1       -0.0070
     26 C          -5.6231   -2.4258   -1.7338 C.2     1  UNL1       -0.0938
     27 H           0.2798    0.0227   -0.6874 H       1  UNL1        0.0271
     28 H           0.1471    1.1953   -1.9450 H       1  UNL1        0.0271
     29 H           2.3071    0.8016    0.0834 H       1  UNL1        0.0313
     30 H           2.3650    1.2000   -1.6304 H       1  UNL1        0.0313
     31 H           0.6658    5.7073    0.8779 H       1  UNL1        0.0621
     32 H           2.6678    6.6867   -0.0320 H       1  UNL1        0.0620
     33 H           4.1149    2.7951   -1.1503 H       1  UNL1        0.0623
     34 H           5.6390    4.6078   -1.1242 H       1  UNL1        0.0343
     35 H           6.4118    6.8331   -0.6685 H       1  UNL1        0.0235
     36 H           5.5024    6.2702    0.7413 H       1  UNL1        0.0235
     37 H           4.7798    7.4402   -0.3783 H       1  UNL1        0.0235
     38 H           4.5704    4.9015   -3.2372 H       1  UNL1        0.0235
     39 H           3.6937    6.3442   -2.7271 H       1  UNL1        0.0235
     40 H           5.4475    6.4179   -2.9818 H       1  UNL1        0.0235
     41 H           0.4412    2.9426    3.0932 H       1  UNL1        0.0238
     42 H           1.5076    1.9240    2.1507 H       1  UNL1        0.0238
     43 H          -0.1114    1.3859    2.5286 H       1  UNL1        0.0238
     44 H          -1.2285    4.7981    0.6291 H       1  UNL1        0.0274
     45 H          -0.9832    4.4093    2.3126 H       1  UNL1        0.0274
     46 H          -3.1974    3.8879    2.1342 H       1  UNL1        0.0266
     47 H          -3.1131    3.6636    0.4015 H       1  UNL1        0.0266
     48 H          -3.7018    1.5719    1.5888 H       1  UNL1        0.0271
     49 H          -2.2298    1.6527    2.5068 H       1  UNL1        0.0271
     50 H          -1.5275   -1.0176    0.1132 H       1  UNL1        0.0236
     51 H          -2.2716   -0.6267    1.6624 H       1  UNL1        0.0236
     52 H          -0.5628   -0.3065    1.4019 H       1  UNL1        0.0236
     53 H          -2.3362    0.4945   -1.6668 H       1  UNL1        0.0467
     54 H          -3.2216    1.9417   -1.1996 H       1  UNL1        0.0467
     55 H          -3.9518   -0.4953    0.2347 H       1  UNL1        0.1490
     56 H          -6.4004   -1.1686   -0.1969 H       1  UNL1        0.0663
     57 H          -4.9609   -2.4925   -2.5916 H       1  UNL1        0.0536
     58 H          -6.1431   -3.3185   -1.4268 H       1  UNL1        0.0536
@<TRIPOS>BOND
     1     3     2    1
     2     4     3    1
     3     5     4    1
     4     6     5   ar
     5     7     6   ar
     6     8     7   ar
     7     9     8   ar
     8    10     9   ar
     9    10     5   ar
    10    11    34    1
    11    12    11    1
    12    12    35    1
    13    12    36    1
    14    12    37    1
    15    13    11    1
    16    13    38    1
    17    13    39    1
    18    13    40    1
    19    14     6    1
    20    14     2    1
    21    15    41    1
    22    15    42    1
    23    15    43    1
    24    16    14    1
    25    17    16    1
    26    18    17    1
    27    19    18    1
    28    19     2    1
    29    20    50    1
    30    20    51    1
    31    20    52    1
    32    21    53    1
    33    21    54    1
    34    22    21    1
    35    22    55    1
    36    23    22   am
    37    24    23    2
    38    25    23    1
    39    25    56    1
    40    26    25    2
    41    26    57    1
    42    26    58    1
    43     2     1    1
    44     3    27    1
    45     3    28    1
    46     4    29    1
    47     4    30    1
    48     7    31    1
    49     8    32    1
    50    11     9    1
    51    10    33    1
    52    14    15    1
    53    16    44    1
    54    16    45    1
    55    17    46    1
    56    17    47    1
    57    18    48    1
    58    18    49    1
    59    19    21    1
    60    19    20    1
