@<TRIPOS>MOLECULE
mol_369_akc_jbmcl201601040
>354.sdf
 43 43 0 0 0
SMALL
GASTEIGER

@<TRIPOS>ATOM
      1 C           0.9121   -0.0857    0.1245 C.3     1  UNL1       -0.0653
      2 C           2.4308   -0.0776    0.1058 C.3     1  UNL1       -0.0559
      3 C           2.9631    0.9977   -0.8384 C.3     1  UNL1       -0.0533
      4 C           4.4891    1.0060   -0.8575 C.3     1  UNL1       -0.0531
      5 C           5.0195    2.0808   -1.8038 C.3     1  UNL1       -0.0529
      6 C           6.5446    2.0789   -1.8137 C.3     1  UNL1       -0.0483
      7 C           7.0967    3.1473   -2.7538 C.3     1  UNL1       -0.0126
      8 C           8.6155    3.1176   -2.7376 C.3     1  UNL1       -0.0334
      9 N           9.1303    4.1657   -3.6561 N.4     1  UNL1        0.2303
     10 C          10.6164    4.2222   -3.7191 C.3     1  UNL1       -0.0077
     11 C          11.0784    5.2868   -4.6674 C.ar    1  UNL1       -0.0027
     12 C          11.2621    6.6068   -4.2243 C.ar    1  UNL1       -0.0501
     13 C          11.7205    7.5902   -5.1035 C.ar    1  UNL1       -0.0197
     14 C          11.9815    7.2545   -6.4271 C.ar    1  UNL1        0.1169
     15 O          12.4540    8.1716   -7.3154 O.3     1  UNL1       -0.5068
     16 C          11.7708    5.9627   -6.8893 C.ar    1  UNL1       -0.0197
     17 C          11.3127    4.9781   -6.0159 C.ar    1  UNL1       -0.0501
     18 H           0.5442   -0.8608    0.8041 H       1  UNL1        0.0230
     19 H           0.5205    0.8788    0.4632 H       1  UNL1        0.0230
     20 H           0.5104   -0.2882   -0.8735 H       1  UNL1        0.0230
     21 H           2.8052    0.0986    1.1210 H       1  UNL1        0.0263
     22 H           2.7948   -1.0630   -0.2080 H       1  UNL1        0.0263
     23 H           2.5838    0.8194   -1.8519 H       1  UNL1        0.0265
     24 H           2.5943    1.9813   -0.5232 H       1  UNL1        0.0265
     25 H           4.8700    1.1859    0.1550 H       1  UNL1        0.0265
     26 H           4.8598    0.0228   -1.1723 H       1  UNL1        0.0265
     27 H           4.6423    1.9013   -2.8177 H       1  UNL1        0.0265
     28 H           4.6523    3.0653   -1.4900 H       1  UNL1        0.0265
     29 H           6.9188    2.2552   -0.7976 H       1  UNL1        0.0267
     30 H           6.9089    1.0924   -2.1248 H       1  UNL1        0.0267
     31 H           6.7275    2.9721   -3.7716 H       1  UNL1        0.0317
     32 H           6.7362    4.1359   -2.4443 H       1  UNL1        0.0317
     33 H           9.0092    3.3331   -1.7391 H       1  UNL1        0.0814
     34 H           9.0000    2.1539   -3.0884 H       1  UNL1        0.0814
     35 H           8.7737    4.0126   -4.6100 H       1  UNL1        0.2017
     36 H           8.7806    5.0914   -3.3788 H       1  UNL1        0.2017
     37 H          10.9847    4.4135   -2.7052 H       1  UNL1        0.0866
     38 H          10.9718    3.2342   -4.0348 H       1  UNL1        0.0866
     39 H          11.0777    6.8842   -3.1880 H       1  UNL1        0.0623
     40 H          11.8796    8.6025   -4.7420 H       1  UNL1        0.0654
     41 H          12.6141    9.0157   -6.8627 H       1  UNL1        0.2921
     42 H          11.9808    5.7224   -7.9303 H       1  UNL1        0.0654
     43 H          11.1697    3.9700   -6.4022 H       1  UNL1        0.0623
@<TRIPOS>UNITY_ATOM_ATTR
9 1
charge 1
@<TRIPOS>BOND
     1     1    18    1
     2     1    19    1
     3     1    20    1
     4     2     1    1
     5     2    21    1
     6     2    22    1
     7     3     2    1
     8     3    23    1
     9     3    24    1
    10     4     3    1
    11     4    25    1
    12     4    26    1
    13     5     4    1
    14     5    27    1
    15     5    28    1
    16     6     5    1
    17     6    29    1
    18     6    30    1
    19     7     6    1
    20     7    31    1
    21     7    32    1
    22     8     7    1
    23     8    33    1
    24     8    34    1
    25     9     8    1
    26     9    35    1
    27     9    36    1
    28    10     9    1
    29    10    37    1
    30    10    38    1
    31    11    10    1
    32    12    11   ar
    33    12    39    1
    34    13    12   ar
    35    13    40    1
    36    14    13   ar
    37    15    14    1
    38    15    41    1
    39    16    14   ar
    40    16    42    1
    41    17    16   ar
    42    17    11   ar
    43    17    43    1
