@<TRIPOS>MOLECULE
mol_36_akc_c5ob00280j
>36.sdf
 46 51 0 0 0
SMALL
GASTEIGER

@<TRIPOS>ATOM
      1 C           1.3567   -0.0358   -0.1361 C.ar    1  UNL1       -0.0617
      2 C           0.5523   -1.1008    0.2511 C.ar    1  UNL1       -0.0611
      3 C          -0.8368   -0.9827    0.1801 C.ar    1  UNL1       -0.0524
      4 C          -1.4426    0.2114   -0.2368 C.ar    1  UNL1        0.0043
      5 C          -0.6205    1.2650   -0.6579 C.ar    1  UNL1       -0.0524
      6 C           0.7730    1.1402   -0.6072 C.ar    1  UNL1       -0.0611
      7 C          -2.8856    0.3789   -0.2080 C.ar    1  UNL1        0.1203
      8 C          -3.7488   -0.1212    0.7480 C.ar    1  UNL1        0.0970
      9 C          -3.6514   -0.9004    1.9207 C.ar    1  UNL1       -0.0332
     10 C          -4.7589   -1.2183    2.6031 C.ar    1  UNL1       -0.0469
     11 C          -6.0801   -0.7020    2.2043 C.ar    1  UNL1        0.0454
     12 C          -6.2138    0.0263    1.0190 C.ar    1  UNL1        0.1678
     13 N          -7.3940    0.4651    0.5160 N.ar    1  UNL1       -0.2062
     14 C          -8.4906    0.1608    1.2354 C.ar    1  UNL1        0.1810
     15 N          -8.4491   -0.4848    2.4202 N.ar    1  UNL1       -0.2252
     16 C          -7.2584   -0.8954    2.9147 C.ar    1  UNL1        0.0855
     17 C          -7.3650   -1.5533    4.2320 C.ar    1  UNL1        0.0192
     18 C          -8.4229   -2.4238    4.5319 C.ar    1  UNL1       -0.0497
     19 C          -8.4892   -3.0660    5.7683 C.ar    1  UNL1       -0.0430
     20 C          -7.4858   -2.8233    6.6885 C.ar    1  UNL1        0.0276
     21 N          -6.4673   -1.9686    6.4696 N.ar    1  UNL1       -0.2626
     22 C          -6.4538   -1.3390    5.2686 C.ar    1  UNL1        0.0367
     23 C          -9.8307    0.5118    0.6933 C.ar    1  UNL1        0.1079
     24 C          -9.9946    1.2043   -0.5088 C.ar    1  UNL1       -0.0326
     25 C         -11.2811    1.4772   -0.9746 C.ar    1  UNL1       -0.0582
     26 C         -12.3804    1.0590   -0.2378 C.ar    1  UNL1       -0.0436
     27 C         -12.1479    0.3808    0.9434 C.ar    1  UNL1        0.0284
     28 N         -10.9153    0.1019    1.4169 N.ar    1  UNL1       -0.2518
     29 N          -4.9983    0.3081    0.3358 N.ar    1  UNL1       -0.1935
     30 N          -4.8943    1.0480   -0.7886 N.ar    1  UNL1       -0.0582
     31 N          -3.6063    1.1133   -1.1190 N.ar    1  UNL1       -0.1285
     32 H           2.4395   -0.1231   -0.0810 H       1  UNL1        0.0618
     33 H           1.0019   -2.0239    0.6072 H       1  UNL1        0.0618
     34 H          -1.4370   -1.8452    0.4574 H       1  UNL1        0.0624
     35 H          -1.0570    2.1974   -1.0136 H       1  UNL1        0.0624
     36 H           1.4029    1.9676   -0.9263 H       1  UNL1        0.0618
     37 H          -2.6867   -1.2679    2.2645 H       1  UNL1        0.0640
     38 H          -4.6703   -1.8827    3.4560 H       1  UNL1        0.0626
     39 H          -9.2095   -2.5990    3.7988 H       1  UNL1        0.0625
     40 H          -9.3071   -3.7377    6.0036 H       1  UNL1        0.0633
     41 H          -7.4802   -3.3146    7.6569 H       1  UNL1        0.0829
     42 H          -5.6406   -0.6235    5.1702 H       1  UNL1        0.0836
     43 H          -9.1317    1.5264   -1.0850 H       1  UNL1        0.0640
     44 H         -11.4205    2.0150   -1.9078 H       1  UNL1        0.0619
     45 H         -13.3932    1.2554   -0.5731 H       1  UNL1        0.0633
     46 H         -12.9702    0.0302    1.5627 H       1  UNL1        0.0830
@<TRIPOS>BOND
     1     1    32    1
     2     2     1   ar
     3     2    33    1
     4     3     2   ar
     5     3    34    1
     6     4     3   ar
     7     5     4   ar
     8     5    35    1
     9     6     5   ar
    10     6     1   ar
    11     6    36    1
    12     7     4    1
    13     8     7   ar
    14     9     8   ar
    15     9    37    1
    16    10     9   ar
    17    10    38    1
    18    11    10   ar
    19    12    11   ar
    20    13    12   ar
    21    14    13   ar
    22    15    14   ar
    23    16    15   ar
    24    16    11   ar
    25    17    16    1
    26    18    17   ar
    27    18    39    1
    28    19    18   ar
    29    19    40    1
    30    20    19   ar
    31    20    41    1
    32    21    20   ar
    33    22    21   ar
    34    22    17   ar
    35    22    42    1
    36    23    14    1
    37    24    23   ar
    38    24    43    1
    39    25    24   ar
    40    25    44    1
    41    26    25   ar
    42    26    45    1
    43    27    26   ar
    44    27    46    1
    45    28    27   ar
    46    28    23   ar
    47    29    12   ar
    48    29     8   ar
    49    30    29   ar
    50    31    30   ar
    51    31     7   ar
