@<TRIPOS>MOLECULE
mol_370_akc_journalpntd0004442
>355.sdf
 30 32 0 0 0
SMALL
GASTEIGER

@<TRIPOS>ATOM
      1 O           2.0597   -0.2447    0.8543 O.3     1  UNL1       -0.5068
      2 C           0.7411   -0.1672    0.5188 C.ar    1  UNL1        0.1169
      3 C          -0.0666    0.8619    0.9919 C.ar    1  UNL1       -0.0195
      4 C          -1.4189    0.8870    0.6425 C.ar    1  UNL1       -0.0476
      5 C          -1.9594   -0.1168   -0.1737 C.ar    1  UNL1        0.0176
      6 C          -1.1292   -1.1371   -0.6529 C.ar    1  UNL1       -0.0476
      7 C           0.2235   -1.1589   -0.3071 C.ar    1  UNL1       -0.0195
      8 C          -3.3885   -0.1071   -0.4948 C.ar    1  UNL1        0.1392
      9 C          -3.8687    0.6591   -1.4831 C.ar    1  UNL1        0.0288
     10 C          -5.3199    0.6703   -1.7171 C.ar    1  UNL1        0.1966
     11 O          -5.8235    1.3591   -2.5990 O.2     1  UNL1       -0.2869
     12 C          -6.1467   -0.1702   -0.8414 C.ar    1  UNL1        0.1055
     13 C          -7.5390   -0.2137   -0.9630 C.ar    1  UNL1        0.1347
     14 O          -8.2296    0.5282   -1.8825 O.3     1  UNL1       -0.5058
     15 C          -8.2864   -1.0382   -0.1261 C.ar    1  UNL1        0.0223
     16 C          -7.6371   -1.8178    0.8281 C.ar    1  UNL1        0.1239
     17 O          -8.4032   -2.6261    1.6146 O.3     1  UNL1       -0.5065
     18 C          -6.2528   -1.7729    0.9701 C.ar    1  UNL1        0.0231
     19 C          -5.5094   -0.9410    0.1308 C.ar    1  UNL1        0.1462
     20 O          -4.1492   -0.9258    0.3186 O.2     1  UNL1       -0.4544
     21 H           2.2593    0.4547    1.4982 H       1  UNL1        0.2921
     22 H           0.3317    1.6430    1.6316 H       1  UNL1        0.0654
     23 H          -2.0519    1.6854    1.0239 H       1  UNL1        0.0626
     24 H          -1.5294   -1.9245   -1.2872 H       1  UNL1        0.0626
     25 H           0.8693   -1.9534   -0.6711 H       1  UNL1        0.0654
     26 H          -3.2532    1.2872   -2.1137 H       1  UNL1        0.0693
     27 H          -7.5818    1.0511   -2.4066 H       1  UNL1        0.2922
     28 H          -9.3680   -1.0767   -0.2205 H       1  UNL1        0.0691
     29 H          -7.8257   -3.1573    2.1875 H       1  UNL1        0.2921
     30 H          -5.7434   -2.3702    1.7199 H       1  UNL1        0.0691
@<TRIPOS>BOND
     1     1    21    1
     2     2     1    1
     3     3     2   ar
     4     3    22    1
     5     4     3   ar
     6     4    23    1
     7     5     4   ar
     8     6     5   ar
     9     6    24    1
    10     7     6   ar
    11     7     2   ar
    12     7    25    1
    13     8     5    1
    14     9     8   ar
    15     9    26    1
    16    10     9   ar
    17    11    10    2
    18    12    10   ar
    19    13    12   ar
    20    14    13    1
    21    14    27    1
    22    15    13   ar
    23    15    28    1
    24    16    15   ar
    25    17    16    1
    26    17    29    1
    27    18    16   ar
    28    18    30    1
    29    19    18   ar
    30    19    12   ar
    31    20    19   ar
    32    20     8   ar
