@<TRIPOS>MOLECULE
mol_371_akc_aac00426_15
>356.sdf
 88 91 0 0 0
SMALL
GASTEIGER

@<TRIPOS>ATOM
      1 C           5.7672   -0.2878    1.6014 C.3     1  UNL1       -0.0626
      2 C           4.9791    0.8134    0.8943 C.3     1  UNL1       -0.0446
      3 C           5.3845    2.1669    1.4985 C.3     1  UNL1       -0.0626
      4 C           5.1952    0.8193   -0.6326 C.3     1  UNL1       -0.0235
      5 C           4.8169   -0.4800   -1.3966 C.3     1  UNL1        0.1029
      6 N           3.3863   -0.7795   -1.2233 N.am    1  UNL1       -0.2698
      7 C           2.9457   -1.9494   -0.6463 C.2     1  UNL1        0.4014
      8 O           3.7001   -2.8408   -0.2713 O.2     1  UNL1       -0.2264
      9 O           1.5874   -1.9732   -0.5247 O.3     1  UNL1       -0.4447
     10 C           0.9186   -3.1388    0.0689 C.3     1  UNL1        0.1068
     11 C           1.3010   -3.3355    1.5438 C.3     1  UNL1       -0.0253
     12 C          -0.5996   -2.8631    0.0176 C.3     1  UNL1       -0.0253
     13 C           1.1768   -4.4116   -0.7498 C.3     1  UNL1       -0.0253
     14 C           5.2818   -0.2572   -2.8849 C.2     1  UNL1        0.2366
     15 O           4.5256    0.2779   -3.7016 O.2     1  UNL1       -0.2735
     16 N           6.6287   -0.4788   -3.1939 N.am    1  UNL1       -0.2884
     17 C           7.6268   -1.0934   -2.3287 C.3     1  UNL1        0.0156
     18 C           8.8129   -0.1529   -2.4105 C.3     1  UNL1       -0.0350
     19 C           8.7905    0.2945   -3.8579 C.3     1  UNL1       -0.0243
     20 C           7.2949    0.2960   -4.2630 C.3     1  UNL1        0.1025
     21 C           7.2368   -0.0996   -5.7717 C.2     1  UNL1        0.2376
     22 O           6.6537   -1.0630   -6.2460 O.2     1  UNL1       -0.2735
     23 N           8.0219    0.7972   -6.4925 N.am    1  UNL1       -0.2686
     24 C           8.3587    0.8159   -7.8722 C.3     1  UNL1        0.1527
     25 C           7.4682    1.8730   -7.2456 C.3     1  UNL1        0.1527
     26 C           8.0007    3.2163   -6.9357 C.2     1  UNL1        0.3306
     27 O           8.8717    3.7474   -7.6079 O.2     1  UNL1       -0.2486
     28 O           7.4704    3.7000   -5.7823 O.3     1  UNL1       -0.4585
     29 C           8.0512    4.9348   -5.3405 C.3     1  UNL1        0.1176
     30 C           7.4413    5.4020   -4.0345 C.ar    1  UNL1       -0.0103
     31 C           6.4108    4.7057   -3.3866 C.ar    1  UNL1       -0.0554
     32 C           5.8786    5.1744   -2.1826 C.ar    1  UNL1       -0.0614
     33 C           6.3667    6.3476   -1.6101 C.ar    1  UNL1       -0.0617
     34 C           7.3867    7.0539   -2.2426 C.ar    1  UNL1       -0.0614
     35 C           7.9205    6.5854   -3.4457 C.ar    1  UNL1       -0.0554
     36 C           7.8200   -0.0735   -8.9196 C.2     1  UNL1        0.3306
     37 O           6.7655    0.1518   -9.4965 O.2     1  UNL1       -0.2486
     38 O           8.7289   -1.0279   -9.2539 O.3     1  UNL1       -0.4585
     39 C           8.4213   -1.7635  -10.4459 C.3     1  UNL1        0.1176
     40 C           9.5150   -2.7769  -10.6948 C.ar    1  UNL1       -0.0103
     41 C           9.7740   -3.7818   -9.7508 C.ar    1  UNL1       -0.0554
     42 C          10.7546   -4.7463   -9.9757 C.ar    1  UNL1       -0.0614
     43 C          11.5068   -4.7181  -11.1596 C.ar    1  UNL1       -0.0617
     44 C          11.2640   -3.7215  -12.1047 C.ar    1  UNL1       -0.0614
     45 C          10.2749   -2.7553  -11.8719 C.ar    1  UNL1       -0.0554
     46 H           5.5602   -0.2733    2.6772 H       1  UNL1        0.0232
     47 H           5.5033   -1.2811    1.2327 H       1  UNL1        0.0232
     48 H           6.8457   -0.1494    1.4661 H       1  UNL1        0.0232
     49 H           3.9107    0.6672    1.0938 H       1  UNL1        0.0296
     50 H           6.4746    2.2665    1.5621 H       1  UNL1        0.0232
     51 H           5.0041    3.0076    0.9097 H       1  UNL1        0.0232
     52 H           4.9860    2.2638    2.5148 H       1  UNL1        0.0232
     53 H           4.6062    1.6465   -1.0556 H       1  UNL1        0.0290
     54 H           6.2430    1.0742   -0.8371 H       1  UNL1        0.0290
     55 H           5.3677   -1.3311   -0.9991 H       1  UNL1        0.0596
     56 H           2.6879   -0.1236   -1.5376 H       1  UNL1        0.1528
     57 H           1.0402   -2.4518    2.1372 H       1  UNL1        0.0268
     58 H           0.7790   -4.1982    1.9763 H       1  UNL1        0.0268
     59 H           2.3729   -3.4981    1.6785 H       1  UNL1        0.0268
     60 H          -0.9122   -2.5397   -0.9809 H       1  UNL1        0.0268
     61 H          -1.1781   -3.7571    0.2852 H       1  UNL1        0.0268
     62 H          -0.8864   -2.0663    0.7131 H       1  UNL1        0.0268
     63 H           0.8733   -4.2697   -1.7927 H       1  UNL1        0.0268
     64 H           2.2320   -4.6941   -0.7594 H       1  UNL1        0.0268
     65 H           0.6179   -5.2642   -0.3439 H       1  UNL1        0.0268
     66 H           7.8745   -2.0687   -2.7629 H       1  UNL1        0.0465
     67 H           7.3125   -1.2378   -1.2971 H       1  UNL1        0.0465
     68 H           8.6634    0.7124   -1.7549 H       1  UNL1        0.0281
     69 H           9.7557   -0.6346   -2.1359 H       1  UNL1        0.0281
     70 H           9.2453    1.2834   -3.9846 H       1  UNL1        0.0288
     71 H           9.3711   -0.4129   -4.4645 H       1  UNL1        0.0288
     72 H           6.8964    1.3164   -4.1956 H       1  UNL1        0.0597
     73 H           9.3990    1.0798   -8.0333 H       1  UNL1        0.0641
     74 H           6.3974    1.8136   -7.4079 H       1  UNL1        0.0641
     75 H           9.1267    4.7849   -5.1831 H       1  UNL1        0.0749
     76 H           7.8863    5.7052   -6.1029 H       1  UNL1        0.0749
     77 H           6.0011    3.7925   -3.8133 H       1  UNL1        0.0621
     78 H           5.0765    4.6264   -1.6950 H       1  UNL1        0.0618
     79 H           5.9485    6.7127   -0.6761 H       1  UNL1        0.0618
     80 H           7.7642    7.9727   -1.8000 H       1  UNL1        0.0618
     81 H           8.7146    7.1554   -3.9246 H       1  UNL1        0.0621
     82 H           7.4642   -2.2869  -10.3387 H       1  UNL1        0.0749
     83 H           8.3543   -1.0674  -11.2923 H       1  UNL1        0.0749
     84 H           9.1993   -3.8184   -8.8266 H       1  UNL1        0.0621
     85 H          10.9440   -5.5215   -9.2337 H       1  UNL1        0.0618
     86 H          12.2682   -5.4684  -11.3339 H       1  UNL1        0.0618
     87 H          11.8448   -3.7007  -13.0192 H       1  UNL1        0.0618
     88 H          10.1081   -1.9940  -12.6295 H       1  UNL1        0.0621
@<TRIPOS>BOND
     1     1    46    1
     2     1    47    1
     3     1    48    1
     4     2     1    1
     5     2    49    1
     6     3     2    1
     7     3    50    1
     8     3    51    1
     9     3    52    1
    10     4     2    1
    11     4    53    1
    12     4    54    1
    13     5     4    1
    14     5    55    1
    15     6     5    1
    16     6    56    1
    17     7     6   am
    18     8     7    2
    19     9     7    1
    20    10     9    1
    21    11    10    1
    22    11    57    1
    23    11    58    1
    24    11    59    1
    25    12    10    1
    26    12    60    1
    27    12    61    1
    28    12    62    1
    29    13    10    1
    30    13    63    1
    31    13    64    1
    32    13    65    1
    33    14     5    1
    34    15    14    2
    35    16    14   am
    36    17    16    1
    37    17    66    1
    38    17    67    1
    39    18    17    1
    40    18    68    1
    41    18    69    1
    42    19    18    1
    43    19    70    1
    44    19    71    1
    45    20    19    1
    46    20    16    1
    47    20    72    1
    48    21    20    1
    49    22    21    2
    50    23    21   am
    51    24    23    1
    52    24    73    1
    53    25    24    1
    54    25    23    1
    55    25    74    1
    56    26    25    1
    57    27    26    2
    58    28    26    1
    59    29    28    1
    60    29    75    1
    61    29    76    1
    62    30    29    1
    63    31    30   ar
    64    31    77    1
    65    32    31   ar
    66    32    78    1
    67    33    32   ar
    68    33    79    1
    69    34    33   ar
    70    34    80    1
    71    35    34   ar
    72    35    30   ar
    73    35    81    1
    74    36    24    1
    75    37    36    2
    76    38    36    1
    77    39    38    1
    78    39    82    1
    79    39    83    1
    80    40    39    1
    81    41    40   ar
    82    41    84    1
    83    42    41   ar
    84    42    85    1
    85    43    42   ar
    86    43    86    1
    87    44    43   ar
    88    44    87    1
    89    45    44   ar
    90    45    40   ar
    91    45    88    1
