@<TRIPOS>MOLECULE
mol_372_akc_ajtmh15_0448
>357.sdf
 45 48 0 0 0
SMALL
GASTEIGER

@<TRIPOS>ATOM
      1 O          -2.2981   -1.2518   -1.7804 O.3     1  UNL1       -0.5043
      2 C          -3.6476   -1.1875   -2.0498 C.ar    1  UNL1        0.1479
      3 C          -4.4533   -0.4793   -1.1370 C.ar    1  UNL1        0.0207
      4 C          -5.8212   -0.3929   -1.4249 C.ar    1  UNL1       -0.0523
      5 C          -6.3493   -0.9594   -2.5849 C.ar    1  UNL1       -0.0520
      6 C          -5.5294   -1.6844   -3.4597 C.ar    1  UNL1        0.0040
      7 C          -4.1511   -1.8305   -3.1940 C.ar    1  UNL1        0.1125
      8 N          -3.3587   -2.5730   -4.0026 N.ar    1  UNL1       -0.2513
      9 C          -3.9148   -3.1591   -5.0865 C.ar    1  UNL1        0.0284
     10 C          -5.2437   -3.0463   -5.4305 C.ar    1  UNL1       -0.0430
     11 C          -6.0654   -2.2921   -4.6027 C.ar    1  UNL1       -0.0510
     12 C          -3.8476    0.1168    0.1279 C.3     1  UNL1        0.0774
     13 N          -4.4734   -0.4491    1.3140 N.am    1  UNL1       -0.3004
     14 C          -3.8294   -1.4070    2.0709 C.2     1  UNL1        0.2448
     15 O          -2.6904   -1.8027    1.8574 O.2     1  UNL1       -0.2702
     16 C          -4.5839   -1.9727    3.2180 C.ar    1  UNL1        0.0367
     17 C          -5.9658   -2.2152    3.1448 C.ar    1  UNL1       -0.0496
     18 C          -6.6218   -2.8195    4.2254 C.ar    1  UNL1       -0.0610
     19 C          -5.9105   -3.1751    5.3682 C.ar    1  UNL1       -0.0617
     20 C          -4.5370   -2.9400    5.4387 C.ar    1  UNL1       -0.0610
     21 C          -3.8800   -2.3490    4.3655 C.ar    1  UNL1       -0.0496
     22 C          -3.8289    1.6429    0.1531 C.ar    1  UNL1       -0.0227
     23 C          -2.5874    2.3044    0.1019 C.ar    1  UNL1       -0.0565
     24 C          -2.5130    3.6973    0.0596 C.ar    1  UNL1       -0.0614
     25 C          -3.6791    4.4554    0.0594 C.ar    1  UNL1       -0.0617
     26 C          -4.9171    3.8219    0.1300 C.ar    1  UNL1       -0.0614
     27 C          -4.9917    2.4280    0.1926 C.ar    1  UNL1       -0.0565
     28 H          -2.1248   -2.1784   -1.5324 H       1  UNL1        0.2922
     29 H          -6.5013    0.1163   -0.7509 H       1  UNL1        0.0622
     30 H          -7.4121   -0.8480   -2.7893 H       1  UNL1        0.0624
     31 H          -3.2317   -3.7488   -5.6935 H       1  UNL1        0.0830
     32 H          -5.6409   -3.5396   -6.3131 H       1  UNL1        0.0633
     33 H          -7.1198   -2.1902   -4.8462 H       1  UNL1        0.0625
     34 H          -2.7984   -0.1900    0.1766 H       1  UNL1        0.0600
     35 H          -5.3836   -0.1135    1.5843 H       1  UNL1        0.1499
     36 H          -6.5267   -1.9854    2.2478 H       1  UNL1        0.0625
     37 H          -7.6864   -3.0260    4.1625 H       1  UNL1        0.0618
     38 H          -6.4226   -3.6539    6.2015 H       1  UNL1        0.0618
     39 H          -3.9794   -3.2323    6.3275 H       1  UNL1        0.0618
     40 H          -2.7999   -2.1880    4.4156 H       1  UNL1        0.0625
     41 H          -1.6614    1.7302    0.0836 H       1  UNL1        0.0621
     42 H          -1.5431    4.1856    0.0139 H       1  UNL1        0.0618
     43 H          -3.6230    5.5389    0.0030 H       1  UNL1        0.0618
     44 H          -5.8284    4.4141    0.1270 H       1  UNL1        0.0618
     45 H          -5.9737    1.9731    0.2544 H       1  UNL1        0.0621
@<TRIPOS>BOND
     1     1    28    1
     2     2     1    1
     3     3     2   ar
     4     4     3   ar
     5     4    29    1
     6     5     4   ar
     7     5    30    1
     8     6     5   ar
     9     7     6   ar
    10     7     2   ar
    11     8     7   ar
    12     9     8   ar
    13     9    31    1
    14    10     9   ar
    15    10    32    1
    16    11    10   ar
    17    11     6   ar
    18    11    33    1
    19    13    12    1
    20    13    35    1
    21    14    13   am
    22    15    14    2
    23    16    14    1
    24    17    16   ar
    25    17    36    1
    26    18    17   ar
    27    18    37    1
    28    19    18   ar
    29    19    38    1
    30    20    19   ar
    31    20    39    1
    32    21    20   ar
    33    21    16   ar
    34    21    40    1
    35    22    12    1
    36    23    22   ar
    37    23    41    1
    38    24    23   ar
    39    24    42    1
    40    25    24   ar
    41    25    43    1
    42    26    25   ar
    43    26    44    1
    44    27    26   ar
    45    27    22   ar
    46    27    45    1
    47    12    34    1
    48    12     3    1
