@<TRIPOS>MOLECULE
mol_373_akc_ajtmh15_0448
>358.sdf
 58 63 0 0 0
SMALL
GASTEIGER

@<TRIPOS>ATOM
      1 C           5.0061   -0.0239    1.8096 C.3     1  UNL1        0.0517
      2 N           3.8909    0.9009    1.6714 N.ar    1  UNL1       -0.3027
      3 C           2.5572    0.5932    1.8798 C.ar    1  UNL1        0.2514
      4 N           2.1370   -0.6903    1.9944 N.2     1  UNL1       -0.1098
      5 N           1.8673   -1.1750    3.1263 N.2     1  UNL1       -0.1439
      6 C           1.1316   -2.3845    2.8813 C.ar    1  UNL1        0.1150
      7 C           1.6122   -3.3196    1.9329 C.ar    1  UNL1        0.0111
      8 C           2.9681   -3.6901    1.8657 C.ar    1  UNL1       -0.0519
      9 C           3.4169   -4.5907    0.9029 C.ar    1  UNL1       -0.0611
     10 C           2.5374   -5.0693   -0.0624 C.ar    1  UNL1       -0.0612
     11 C           1.1911   -4.7133   -0.0140 C.ar    1  UNL1       -0.0540
     12 C           0.7062   -3.8901    1.0119 C.ar    1  UNL1       -0.0157
     13 C          -0.6623   -3.6285    1.1437 C.ar    1  UNL1       -0.0521
     14 C          -1.1290   -2.9874    2.2875 C.ar    1  UNL1       -0.0378
     15 C          -0.2352   -2.4384    3.2222 C.ar    1  UNL1        0.0594
     16 N          -0.6827   -2.5650    4.5928 N.pl3   1  UNL1       -0.3128
     17 C          -0.1894   -1.9096    5.7418 C.ar    1  UNL1        0.0314
     18 C          -0.1444   -0.5149    5.8155 C.ar    1  UNL1       -0.0405
     19 C           0.1738    0.1196    7.0197 C.ar    1  UNL1       -0.0600
     20 C           0.4674   -0.6328    8.1589 C.ar    1  UNL1       -0.0616
     21 C           0.4421   -2.0219    8.0974 C.ar    1  UNL1       -0.0600
     22 C           0.1041   -2.6542    6.8994 C.ar    1  UNL1       -0.0405
     23 N           1.8197    1.6780    1.7017 N.ar    1  UNL1       -0.2094
     24 C           2.6825    2.6888    1.3696 C.ar    1  UNL1        0.0912
     25 C           2.4080    4.0249    1.0331 C.ar    1  UNL1       -0.0342
     26 C           3.4787    4.8812    0.7349 C.ar    1  UNL1       -0.0596
     27 C           4.7913    4.4150    0.7642 C.ar    1  UNL1       -0.0597
     28 C           5.0819    3.0836    1.0745 C.ar    1  UNL1       -0.0360
     29 C           3.9974    2.2420    1.3691 C.ar    1  UNL1        0.0707
     30 C           5.3129   -0.8566    0.5818 C.ar    1  UNL1       -0.0276
     31 C           5.0901   -0.4219   -0.7316 C.ar    1  UNL1       -0.0569
     32 C           5.4345   -1.2352   -1.8197 C.ar    1  UNL1       -0.0614
     33 C           6.0194   -2.4826   -1.6112 C.ar    1  UNL1       -0.0617
     34 C           6.2789   -2.9121   -0.3152 C.ar    1  UNL1       -0.0614
     35 C           5.9364   -2.1028    0.7707 C.ar    1  UNL1       -0.0569
     36 H           4.7744   -0.6674    2.6643 H       1  UNL1        0.0542
     37 H           5.8961    0.5569    2.0746 H       1  UNL1        0.0542
     38 H           3.6689   -3.3068    2.6046 H       1  UNL1        0.0624
     39 H           4.4563   -4.9052    0.8943 H       1  UNL1        0.0618
     40 H           2.8978   -5.7304   -0.8440 H       1  UNL1        0.0618
     41 H           0.5158   -5.1040   -0.7724 H       1  UNL1        0.0624
     42 H          -1.3773   -4.0310    0.4323 H       1  UNL1        0.0624
     43 H          -2.1959   -2.9827    2.5009 H       1  UNL1        0.0637
     44 H          -0.6300   -3.5685    4.7727 H       1  UNL1        0.1522
     45 H          -0.4092    0.0811    4.9442 H       1  UNL1        0.0636
     46 H           0.1633    1.2038    7.0721 H       1  UNL1        0.0618
     47 H           0.7030   -0.1327    9.0943 H       1  UNL1        0.0618
     48 H           0.6640   -2.6118    8.9831 H       1  UNL1        0.0618
     49 H           0.0576   -3.7420    6.8827 H       1  UNL1        0.0636
     50 H           1.3843    4.3794    1.0004 H       1  UNL1        0.0639
     51 H           3.2759    5.9191    0.4776 H       1  UNL1        0.0618
     52 H           5.6074    5.1002    0.5302 H       1  UNL1        0.0618
     53 H           6.1061    2.7247    1.0751 H       1  UNL1        0.0639
     54 H           4.6432    0.5465   -0.9405 H       1  UNL1        0.0621
     55 H           5.2437   -0.8927   -2.8341 H       1  UNL1        0.0618
     56 H           6.2741   -3.1150   -2.4572 H       1  UNL1        0.0618
     57 H           6.7354   -3.8841   -0.1460 H       1  UNL1        0.0618
     58 H           6.1436   -2.4651    1.7755 H       1  UNL1        0.0621
@<TRIPOS>BOND
     1     1    36    1
     2     1    37    1
     3     2     1    1
     4     3     2   ar
     5     4     3    1
     6     5     4    2
     7     6     5    1
     8     7     6   ar
     9     8     7   ar
    10     8    38    1
    11     9     8   ar
    12     9    39    1
    13    10     9   ar
    14    10    40    1
    15    11    10   ar
    16    11    41    1
    17    12    11   ar
    18    12     7   ar
    19    13    12   ar
    20    13    42    1
    21    14    13   ar
    22    14    43    1
    23    15    14   ar
    24    15     6   ar
    25    16    15    1
    26    16    44    1
    27    17    16    1
    28    18    17   ar
    29    18    45    1
    30    19    18   ar
    31    19    46    1
    32    20    19   ar
    33    20    47    1
    34    21    20   ar
    35    21    48    1
    36    22    21   ar
    37    22    17   ar
    38    22    49    1
    39    23     3   ar
    40    24    23   ar
    41    25    24   ar
    42    25    50    1
    43    26    25   ar
    44    26    51    1
    45    27    26   ar
    46    27    52    1
    47    28    27   ar
    48    28    53    1
    49    29    28   ar
    50    29     2   ar
    51    29    24   ar
    52    30     1    1
    53    31    30   ar
    54    31    54    1
    55    32    31   ar
    56    32    55    1
    57    33    32   ar
    58    33    56    1
    59    34    33   ar
    60    34    57    1
    61    35    34   ar
    62    35    30   ar
    63    35    58    1
