@<TRIPOS>MOLECULE
mol_375_akc_s11745_015_4114_9
>360.sdf
 83 82 0 0 0
SMALL
GASTEIGER

@<TRIPOS>ATOM
      1 C         -10.8537    2.3353   -4.2818 C.3     1  UNL1        0.0375
      2 O         -12.1214    2.5937   -4.8865 O.3     1  UNL1       -0.3686
      3 C         -12.8465    3.7144   -4.3271 C.3     1  UNL1        0.1547
      4 C         -12.1016    5.0620   -4.4162 C.3     1  UNL1       -0.0127
      5 C         -11.8520    5.4781   -5.8706 C.3     1  UNL1       -0.0319
      6 C         -11.0838    6.7489   -6.0752 C.2     1  UNL1       -0.0878
      7 C          -9.7455    6.7810   -6.1251 C.2     1  UNL1       -0.0876
      8 C          -8.8905    5.5757   -5.8489 C.3     1  UNL1       -0.0313
      9 C          -8.0413    5.2108   -7.0480 C.3     1  UNL1       -0.0313
     10 C          -7.1949    3.9948   -6.7912 C.2     1  UNL1       -0.0876
     11 C          -6.8360    3.1757   -7.7842 C.2     1  UNL1       -0.0879
     12 C          -7.2630    3.4207   -9.2061 C.3     1  UNL1       -0.0348
     13 C          -6.7496    2.3470  -10.1499 C.3     1  UNL1       -0.0496
     14 C          -7.2893    0.9746   -9.7471 C.3     1  UNL1       -0.0528
     15 C          -8.8131    0.9679   -9.7590 C.3     1  UNL1       -0.0530
     16 C          -9.3266    1.2932  -11.1534 C.3     1  UNL1       -0.0531
     17 C         -10.8359    1.3059  -11.1571 C.3     1  UNL1       -0.0531
     18 C         -11.3399    1.6217  -12.5513 C.3     1  UNL1       -0.0531
     19 C         -12.8551    1.6250  -12.5535 C.3     1  UNL1       -0.0531
     20 C         -13.3657    1.9356  -13.9462 C.3     1  UNL1       -0.0531
     21 C         -14.8818    1.9391  -13.9426 C.3     1  UNL1       -0.0531
     22 C         -15.3992    2.2472  -15.3325 C.3     1  UNL1       -0.0531
     23 C         -16.9180    2.2490  -15.3281 C.3     1  UNL1       -0.0530
     24 C         -17.4199    2.5550  -16.7257 C.3     1  UNL1       -0.0528
     25 C         -18.9416    2.5653  -16.7694 C.3     1  UNL1       -0.0507
     26 C         -19.4703    2.8740  -18.1761 C.3     1  UNL1       -0.0467
     27 C         -19.0008    1.8391  -19.2008 C.3     1  UNL1       -0.0627
     28 C         -20.9960    2.9229  -18.1494 C.3     1  UNL1       -0.0627
     29 C         -14.1769    3.8314   -5.0773 C.2     1  UNL1        0.3339
     30 O         -14.3240    2.9075   -6.0488 O.3     1  UNL1       -0.4788
     31 O         -15.0321    4.7085   -4.8584 O.2     1  UNL1       -0.2481
     32 H         -10.0880    2.9481   -4.7552 H       1  UNL1        0.0524
     33 H         -10.8646    2.5016   -3.2002 H       1  UNL1        0.0524
     34 H         -10.5637    1.2967   -4.4761 H       1  UNL1        0.0524
     35 H         -13.1026    3.4646   -3.2882 H       1  UNL1        0.0713
     36 H         -12.6960    5.8434   -3.9244 H       1  UNL1        0.0299
     37 H         -11.1518    4.9945   -3.8744 H       1  UNL1        0.0299
     38 H         -11.3566    4.6596   -6.4064 H       1  UNL1        0.0308
     39 H         -12.8072    5.6387   -6.3743 H       1  UNL1        0.0308
     40 H         -11.6590    7.6467   -6.3162 H       1  UNL1        0.0569
     41 H          -9.2439    7.7096   -6.3903 H       1  UNL1        0.0569
     42 H          -8.2608    5.7643   -4.9778 H       1  UNL1        0.0310
     43 H          -9.5000    4.7110   -5.5967 H       1  UNL1        0.0310
     44 H          -8.7098    5.0325   -7.8959 H       1  UNL1        0.0310
     45 H          -7.3939    6.0517   -7.3057 H       1  UNL1        0.0310
     46 H          -6.8504    3.7843   -5.7820 H       1  UNL1        0.0569
     47 H          -6.2130    2.3100   -7.5621 H       1  UNL1        0.0569
     48 H          -8.3584    3.4570   -9.2513 H       1  UNL1        0.0307
     49 H          -6.9129    4.3991   -9.5397 H       1  UNL1        0.0307
     50 H          -7.0565    2.5938  -11.1723 H       1  UNL1        0.0268
     51 H          -5.6584    2.3429  -10.1601 H       1  UNL1        0.0268
     52 H          -6.9042    0.2082  -10.4251 H       1  UNL1        0.0265
     53 H          -6.9384    0.7085   -8.7448 H       1  UNL1        0.0265
     54 H          -9.1849   -0.0043   -9.4316 H       1  UNL1        0.0265
     55 H          -9.2118    1.6923   -9.0402 H       1  UNL1        0.0265
     56 H          -8.9771    2.2760  -11.4884 H       1  UNL1        0.0265
     57 H          -8.9407    0.5565  -11.8665 H       1  UNL1        0.0265
     58 H         -11.2108    0.3302  -10.8316 H       1  UNL1        0.0265
     59 H         -11.2048    2.0554  -10.4459 H       1  UNL1        0.0265
     60 H         -10.9622    2.5994  -12.8766 H       1  UNL1        0.0265
     61 H         -10.9648    0.8760  -13.2627 H       1  UNL1        0.0265
     62 H         -13.2316    0.6481  -12.2257 H       1  UNL1        0.0265
     63 H         -13.2288    2.3720  -11.8424 H       1  UNL1        0.0265
     64 H         -12.9889    2.9121  -14.2746 H       1  UNL1        0.0265
     65 H         -12.9933    1.1880  -14.6575 H       1  UNL1        0.0265
     66 H         -15.2572    0.9626  -13.6127 H       1  UNL1        0.0265
     67 H         -15.2530    2.6879  -13.2324 H       1  UNL1        0.0265
     68 H         -15.0236    3.2228  -15.6657 H       1  UNL1        0.0265
     69 H         -15.0259    1.4988  -16.0432 H       1  UNL1        0.0265
     70 H         -17.2888    1.2679  -15.0059 H       1  UNL1        0.0265
     71 H         -17.2947    2.9927  -14.6165 H       1  UNL1        0.0265
     72 H         -17.0309    3.5237  -17.0623 H       1  UNL1        0.0265
     73 H         -17.0193    1.7906  -17.3992 H       1  UNL1        0.0265
     74 H         -19.3263    1.5960  -16.4275 H       1  UNL1        0.0268
     75 H         -19.3149    3.3189  -16.0633 H       1  UNL1        0.0268
     76 H         -19.0985    3.8605  -18.4821 H       1  UNL1        0.0295
     77 H         -19.3192    0.8316  -18.9125 H       1  UNL1        0.0232
     78 H         -19.4066    2.0602  -20.1920 H       1  UNL1        0.0232
     79 H         -17.9114    1.8326  -19.3024 H       1  UNL1        0.0232
     80 H         -21.4144    1.9574  -17.8447 H       1  UNL1        0.0232
     81 H         -21.3499    3.6829  -17.4450 H       1  UNL1        0.0232
     82 H         -21.3921    3.1693  -19.1393 H       1  UNL1        0.0232
     83 H         -13.5209    2.3328   -6.0398 H       1  UNL1        0.2951
@<TRIPOS>BOND
     1     1    32    1
     2     1    33    1
     3     1    34    1
     4     2     1    1
     5     3     2    1
     6     3    35    1
     7     4     3    1
     8     4    36    1
     9     4    37    1
    10     5     4    1
    11     5    38    1
    12     5    39    1
    13     6     5    1
    14     6    40    1
    15     7     6    2
    16     7    41    1
    17     8     7    1
    18     8    42    1
    19     8    43    1
    20     9     8    1
    21     9    44    1
    22     9    45    1
    23    10     9    1
    24    10    46    1
    25    11    10    2
    26    11    47    1
    27    12    11    1
    28    12    48    1
    29    12    49    1
    30    13    12    1
    31    13    50    1
    32    13    51    1
    33    14    13    1
    34    14    52    1
    35    14    53    1
    36    15    14    1
    37    15    54    1
    38    15    55    1
    39    16    15    1
    40    16    56    1
    41    16    57    1
    42    17    16    1
    43    17    58    1
    44    17    59    1
    45    18    17    1
    46    18    60    1
    47    18    61    1
    48    19    18    1
    49    19    62    1
    50    19    63    1
    51    20    19    1
    52    20    64    1
    53    20    65    1
    54    21    20    1
    55    21    66    1
    56    21    67    1
    57    22    21    1
    58    22    68    1
    59    22    69    1
    60    23    22    1
    61    23    70    1
    62    23    71    1
    63    24    23    1
    64    24    72    1
    65    24    73    1
    66    25    24    1
    67    25    74    1
    68    25    75    1
    69    26    25    1
    70    26    76    1
    71    27    26    1
    72    27    77    1
    73    27    78    1
    74    27    79    1
    75    28    26    1
    76    28    80    1
    77    28    81    1
    78    28    82    1
    79    29     3    1
    80    30    29    1
    81    31    29    2
    82    30    83    1
