@<TRIPOS>MOLECULE
mol_376_akc_s11745_015_4114_9
>361.sdf
 83 82 0 0 0
SMALL
GASTEIGER

@<TRIPOS>ATOM
      1 C          22.2236   32.7738  -31.0866 C.3     1  UNL1       -0.0650
      2 C          22.0331   31.4748  -30.3181 C.3     1  UNL1       -0.0533
      3 C          22.5253   31.5478  -28.8612 C.3     1  UNL1       -0.0441
      4 C          21.7672   32.6116  -28.0579 C.3     1  UNL1       -0.0624
      5 C          22.3959   30.1525  -28.2195 C.3     1  UNL1       -0.0505
      6 C          22.9110   30.1232  -26.7858 C.3     1  UNL1       -0.0528
      7 C          22.7908   28.7378  -26.1734 C.3     1  UNL1       -0.0530
      8 C          23.2858   28.7870  -24.7358 C.3     1  UNL1       -0.0531
      9 C          23.1458   27.4272  -24.0816 C.3     1  UNL1       -0.0531
     10 C          23.6488   27.4861  -22.6504 C.3     1  UNL1       -0.0531
     11 C          23.5105   26.1181  -22.0111 C.3     1  UNL1       -0.0531
     12 C          24.0266   26.1514  -20.5866 C.3     1  UNL1       -0.0531
     13 C          23.9200   24.7670  -19.9684 C.3     1  UNL1       -0.0531
     14 C          24.4346   24.8157  -18.5444 C.3     1  UNL1       -0.0530
     15 C          24.3660   23.4420  -17.8900 C.3     1  UNL1       -0.0528
     16 C          24.8042   23.4885  -16.4270 C.3     1  UNL1       -0.0496
     17 C          24.0306   24.4896  -15.5681 C.3     1  UNL1       -0.0348
     18 C          22.5571   24.2051  -15.5160 C.2     1  UNL1       -0.0879
     19 C          21.7650   24.5365  -14.4895 C.2     1  UNL1       -0.0876
     20 C          22.2185   25.3182  -13.2901 C.3     1  UNL1       -0.0313
     21 C          21.1331   26.2542  -12.7616 C.3     1  UNL1       -0.0313
     22 C          20.0095   25.4881  -12.1166 C.2     1  UNL1       -0.0876
     23 C          19.7245   25.4636  -10.8091 C.2     1  UNL1       -0.0878
     24 C          20.4718   26.2181   -9.7475 C.3     1  UNL1       -0.0319
     25 C          19.9239   27.6411   -9.6513 C.3     1  UNL1       -0.0127
     26 C          20.7180   28.5089   -8.6821 C.3     1  UNL1        0.1547
     27 O          20.6165   27.9427   -7.3679 O.3     1  UNL1       -0.3686
     28 C          21.5688   28.4991   -6.4614 C.3     1  UNL1        0.0375
     29 C          20.0946   29.9080   -8.7154 C.2     1  UNL1        0.3339
     30 O          19.1288   30.0522   -7.7719 O.3     1  UNL1       -0.4788
     31 O          20.3953   30.7891   -9.5111 O.2     1  UNL1       -0.2481
     32 H          21.9286   32.6385  -32.1314 H       1  UNL1        0.0230
     33 H          21.6077   33.5791  -30.6768 H       1  UNL1        0.0230
     34 H          23.2707   33.0907  -31.0642 H       1  UNL1        0.0230
     35 H          20.9732   31.1937  -30.3419 H       1  UNL1        0.0265
     36 H          22.5814   30.6829  -30.8438 H       1  UNL1        0.0265
     37 H          23.5886   31.8216  -28.8686 H       1  UNL1        0.0298
     38 H          20.7027   32.3653  -27.9862 H       1  UNL1        0.0232
     39 H          22.1636   32.7101  -27.0432 H       1  UNL1        0.0232
     40 H          21.8632   33.6025  -28.5083 H       1  UNL1        0.0232
     41 H          21.3484   29.8258  -28.2399 H       1  UNL1        0.0268
     42 H          22.9641   29.4254  -28.8148 H       1  UNL1        0.0268
     43 H          23.9571   30.4516  -26.7610 H       1  UNL1        0.0265
     44 H          22.3361   30.8136  -26.1605 H       1  UNL1        0.0265
     45 H          21.7446   28.4083  -26.1949 H       1  UNL1        0.0265
     46 H          23.3755   28.0120  -26.7505 H       1  UNL1        0.0265
     47 H          24.3355   29.1056  -24.7138 H       1  UNL1        0.0265
     48 H          22.7121   29.5296  -24.1669 H       1  UNL1        0.0265
     49 H          22.0947   27.1130  -24.0934 H       1  UNL1        0.0265
     50 H          23.7158   26.6803  -24.6471 H       1  UNL1        0.0265
     51 H          24.6985   27.8043  -22.6340 H       1  UNL1        0.0265
     52 H          23.0766   28.2276  -22.0791 H       1  UNL1        0.0265
     53 H          22.4592   25.8061  -22.0190 H       1  UNL1        0.0265
     54 H          24.0746   25.3776  -22.5917 H       1  UNL1        0.0265
     55 H          25.0707   26.4868  -20.5725 H       1  UNL1        0.0265
     56 H          23.4475   26.8740  -19.9977 H       1  UNL1        0.0265
     57 H          22.8731   24.4381  -19.9753 H       1  UNL1        0.0265
     58 H          24.4957   24.0429  -20.5561 H       1  UNL1        0.0265
     59 H          25.4689   25.1800  -18.5248 H       1  UNL1        0.0265
     60 H          23.8247   25.5424  -17.9989 H       1  UNL1        0.0265
     61 H          23.3505   23.0390  -17.9751 H       1  UNL1        0.0265
     62 H          25.0134   22.7427  -18.4322 H       1  UNL1        0.0265
     63 H          24.7094   22.4853  -15.9952 H       1  UNL1        0.0268
     64 H          25.8686   23.7515  -16.3847 H       1  UNL1        0.0268
     65 H          24.4603   24.4524  -14.5605 H       1  UNL1        0.0307
     66 H          24.1857   25.5125  -15.9285 H       1  UNL1        0.0307
     67 H          22.0930   23.6884  -16.3521 H       1  UNL1        0.0569
     68 H          20.7209   24.2371  -14.5412 H       1  UNL1        0.0569
     69 H          22.5412   24.6225  -12.5069 H       1  UNL1        0.0310
     70 H          23.0832   25.9413  -13.5490 H       1  UNL1        0.0310
     71 H          21.6024   26.9474  -12.0557 H       1  UNL1        0.0310
     72 H          20.7303   26.8760  -13.5695 H       1  UNL1        0.0310
     73 H          19.3747   24.9101  -12.7878 H       1  UNL1        0.0569
     74 H          18.8729   24.8705  -10.4737 H       1  UNL1        0.0569
     75 H          20.3601   25.6886   -8.7950 H       1  UNL1        0.0308
     76 H          21.5473   26.2272   -9.9636 H       1  UNL1        0.0308
     77 H          19.9253   28.1160  -10.6417 H       1  UNL1        0.0299
     78 H          18.8743   27.5881   -9.3334 H       1  UNL1        0.0299
     79 H          21.7683   28.5779   -8.9842 H       1  UNL1        0.0713
     80 H          22.5790   28.4759   -6.8806 H       1  UNL1        0.0524
     81 H          21.2897   29.5254   -6.2081 H       1  UNL1        0.0524
     82 H          21.5557   27.9027   -5.5449 H       1  UNL1        0.0524
     83 H          19.0608   29.2204   -7.2573 H       1  UNL1        0.2951
@<TRIPOS>BOND
     1     1    32    1
     2     1    33    1
     3     1    34    1
     4     2     1    1
     5     2    35    1
     6     2    36    1
     7     3     2    1
     8     3    37    1
     9     4     3    1
    10     4    38    1
    11     4    39    1
    12     4    40    1
    13     5     3    1
    14     5    41    1
    15     5    42    1
    16     6     5    1
    17     6    43    1
    18     6    44    1
    19     7     6    1
    20     7    45    1
    21     7    46    1
    22     8     7    1
    23     8    47    1
    24     8    48    1
    25     9     8    1
    26     9    49    1
    27     9    50    1
    28    10     9    1
    29    10    51    1
    30    10    52    1
    31    11    10    1
    32    11    53    1
    33    11    54    1
    34    12    11    1
    35    12    55    1
    36    12    56    1
    37    13    12    1
    38    13    57    1
    39    13    58    1
    40    14    13    1
    41    14    59    1
    42    14    60    1
    43    15    14    1
    44    15    61    1
    45    15    62    1
    46    16    15    1
    47    16    63    1
    48    16    64    1
    49    17    16    1
    50    17    65    1
    51    17    66    1
    52    18    17    1
    53    18    67    1
    54    19    18    2
    55    19    68    1
    56    20    19    1
    57    20    69    1
    58    20    70    1
    59    21    20    1
    60    21    71    1
    61    21    72    1
    62    22    21    1
    63    22    73    1
    64    23    22    2
    65    23    74    1
    66    24    23    1
    67    24    75    1
    68    24    76    1
    69    25    24    1
    70    25    77    1
    71    25    78    1
    72    27    26    1
    73    28    27    1
    74    28    80    1
    75    28    81    1
    76    28    82    1
    77    29    26    1
    78    30    29    1
    79    31    29    2
    80    26    79    1
    81    26    25    1
    82    30    83    1
