@<TRIPOS>MOLECULE
mol_377_akc_jejmech201609017
>362.sdf
 37 41 0 0 0
SMALL
GASTEIGER

@<TRIPOS>ATOM
      1 F           2.5736   -0.2258   -0.1881 F       1  UNL1       -0.2055
      2 C           1.2355   -0.2905   -0.1505 C.ar    1  UNL1        0.1234
      3 C           0.5740   -0.0905    1.0529 C.ar    1  UNL1       -0.0258
      4 C          -0.8253   -0.1134    1.0879 C.ar    1  UNL1       -0.0498
      5 C          -1.5845   -0.3500   -0.0734 C.ar    1  UNL1        0.0008
      6 C          -0.8696   -0.5651   -1.2743 C.ar    1  UNL1       -0.0498
      7 C           0.5272   -0.5299   -1.3152 C.ar    1  UNL1       -0.0258
      8 C          -3.0579   -0.2571   -0.0972 C.ar    1  UNL1        0.0758
      9 N          -3.5483    0.3269   -1.2204 N.ar    1  UNL1       -0.2448
     10 C          -4.8687    0.5904   -1.3276 C.ar    1  UNL1        0.0905
     11 C          -5.3174    1.2237   -2.4746 C.ar    1  UNL1       -0.0328
     12 C          -6.6524    1.5824   -2.6237 C.ar    1  UNL1       -0.0415
     13 C          -7.5196    1.2726   -1.5995 C.ar    1  UNL1        0.0284
     14 N          -7.1431    0.6179   -0.4818 N.ar    1  UNL1       -0.2528
     15 C          -5.8322    0.2809   -0.3492 C.ar    1  UNL1        0.0971
     16 C          -5.3227   -0.3900    0.7550 C.ar    1  UNL1        0.0153
     17 C          -3.9332   -0.6562    0.8939 C.ar    1  UNL1       -0.0073
     18 C          -3.6747   -1.3901    2.1918 C.3     1  UNL1        0.0008
     19 C          -5.0656   -1.5376    2.7677 C.ar    1  UNL1       -0.0352
     20 C          -5.4390   -2.1515    3.9539 C.ar    1  UNL1       -0.0577
     21 C          -6.7936   -2.1627    4.2903 C.ar    1  UNL1       -0.0615
     22 C          -7.7444   -1.5654    3.4481 C.ar    1  UNL1       -0.0612
     23 C          -7.3556   -0.9468    2.2552 C.ar    1  UNL1       -0.0537
     24 C          -6.0111   -0.9331    1.9168 C.ar    1  UNL1       -0.0120
     25 H           1.1467    0.1132    1.9512 H       1  UNL1        0.0646
     26 H          -1.3081    0.1167    2.0333 H       1  UNL1        0.0625
     27 H          -1.4155   -0.7268   -2.2034 H       1  UNL1        0.0625
     28 H           1.0564   -0.6634   -2.2542 H       1  UNL1        0.0646
     29 H          -4.6044    1.4551   -3.2628 H       1  UNL1        0.0640
     30 H          -6.9978    2.0975   -3.5134 H       1  UNL1        0.0633
     31 H          -8.5688    1.5496   -1.6459 H       1  UNL1        0.0830
     32 H          -3.2277   -2.3711    2.0067 H       1  UNL1        0.0362
     33 H          -3.0713   -0.7931    2.8791 H       1  UNL1        0.0362
     34 H          -4.7050   -2.6129    4.6063 H       1  UNL1        0.0621
     35 H          -7.1193   -2.6384    5.2125 H       1  UNL1        0.0618
     36 H          -8.7965   -1.5845    3.7235 H       1  UNL1        0.0618
     37 H          -8.1027   -0.4918    1.6121 H       1  UNL1        0.0624
@<TRIPOS>BOND
     1     2     1    1
     2     3     2   ar
     3     3    25    1
     4     4     3   ar
     5     4    26    1
     6     5     4   ar
     7     6     5   ar
     8     6    27    1
     9     7     6   ar
    10     7     2   ar
    11     7    28    1
    12     8     5    1
    13     9     8   ar
    14    10     9   ar
    15    11    10   ar
    16    11    29    1
    17    12    11   ar
    18    12    30    1
    19    13    12   ar
    20    13    31    1
    21    14    13   ar
    22    15    14   ar
    23    15    10   ar
    24    16    15   ar
    25    17    16   ar
    26    17     8   ar
    27    18    17    1
    28    18    32    1
    29    18    33    1
    30    19    18    1
    31    20    19   ar
    32    20    34    1
    33    21    20   ar
    34    21    35    1
    35    22    21   ar
    36    22    36    1
    37    23    22   ar
    38    23    37    1
    39    24    23   ar
    40    24    16    1
    41    24    19   ar
