@<TRIPOS>MOLECULE
mol_379_akc_jejmech201608014
>364.sdf
 54 58 0 0 0
SMALL
GASTEIGER

@<TRIPOS>ATOM
      1 O           1.9338    5.6902    6.9010 O.co2   1  UNL1       -0.5760
      2 N           3.1356    5.5755    6.6359 N.pl3   1  UNL1        0.0797
      3 O           4.0414    6.2276    7.1746 O.2     1  UNL1        0.0414
      4 C           3.5215    4.6010    5.6071 C.ar    1  UNL1        0.2749
      5 C           2.5267    3.8589    4.9632 C.ar    1  UNL1        0.0157
      6 C           2.8930    2.9482    3.9779 C.ar    1  UNL1       -0.0536
      7 C           4.2407    2.7889    3.6342 C.ar    1  UNL1       -0.0401
      8 C           5.2436    3.5265    4.2729 C.ar    1  UNL1        0.0398
      9 N           6.6145    3.4057    3.9571 N.am    1  UNL1       -0.2842
     10 C           7.1761    2.6616    2.9314 C.2     1  UNL1        0.2313
     11 O           6.5689    1.9756    2.1088 O.2     1  UNL1       -0.2741
     12 C           8.6999    2.7901    2.8535 C.3     1  UNL1        0.0768
     13 N           9.3586    2.3405    4.1032 N.3     1  UNL1       -0.2815
     14 C           9.0404    0.9112    4.4069 C.3     1  UNL1        0.0044
     15 C           9.5559   -0.1348    3.3770 C.3     1  UNL1       -0.0125
     16 C          10.9895    0.1392    3.0868 C.ar    1  UNL1       -0.0160
     17 C          11.5416    1.3606    3.4158 C.ar    1  UNL1        0.0421
     18 N          12.8800    1.3039    3.1441 N.ar    1  UNL1       -0.3562
     19 C          13.1635    0.1468    2.4557 C.ar    1  UNL1        0.0470
     20 C          14.3595   -0.2622    1.8564 C.ar    1  UNL1       -0.0378
     21 C          14.3644   -1.4937    1.1993 C.ar    1  UNL1       -0.0598
     22 C          13.2272   -2.2986    1.1787 C.ar    1  UNL1       -0.0611
     23 C          12.0403   -1.8827    1.7995 C.ar    1  UNL1       -0.0523
     24 C          11.9967   -0.6246    2.4328 C.ar    1  UNL1        0.0032
     25 C          10.8348    2.5564    3.9876 C.3     1  UNL1        0.0768
     26 C          11.4296    3.0653    5.2937 C.ar    1  UNL1       -0.0245
     27 C          11.4819    4.4519    5.5256 C.ar    1  UNL1       -0.0567
     28 C          12.0589    4.9607    6.6891 C.ar    1  UNL1       -0.0614
     29 C          12.5849    4.0915    7.6413 C.ar    1  UNL1       -0.0617
     30 C          12.5238    2.7146    7.4372 C.ar    1  UNL1       -0.0614
     31 C          11.9421    2.2035    6.2761 C.ar    1  UNL1       -0.0567
     32 C           4.8780    4.4341    5.2756 C.ar    1  UNL1        0.0368
     33 H           1.4746    3.9757    5.2135 H       1  UNL1        0.0685
     34 H           2.1356    2.3552    3.4687 H       1  UNL1        0.0620
     35 H           4.4719    2.0611    2.8626 H       1  UNL1        0.0636
     36 H           7.2801    3.8911    4.5523 H       1  UNL1        0.1548
     37 H           9.0540    2.2419    1.9726 H       1  UNL1        0.0522
     38 H           8.9111    3.8535    2.6802 H       1  UNL1        0.0522
     39 H           7.9605    0.7819    4.5440 H       1  UNL1        0.0430
     40 H           9.4706    0.6767    5.3902 H       1  UNL1        0.0430
     41 H           8.9715   -0.0769    2.4518 H       1  UNL1        0.0326
     42 H           9.4305   -1.1425    3.7880 H       1  UNL1        0.0326
     43 H          13.5582    2.0147    3.3831 H       1  UNL1        0.1657
     44 H          15.2457    0.3633    1.8770 H       1  UNL1        0.0638
     45 H          15.2699   -1.8248    0.6958 H       1  UNL1        0.0618
     46 H          13.2582   -3.2567    0.6656 H       1  UNL1        0.0618
     47 H          11.1589   -2.5159    1.7635 H       1  UNL1        0.0624
     48 H          11.0164    3.3610    3.2578 H       1  UNL1        0.0577
     49 H          11.0787    5.1457    4.7907 H       1  UNL1        0.0621
     50 H          12.0998    6.0347    6.8507 H       1  UNL1        0.0618
     51 H          13.0387    4.4868    8.5461 H       1  UNL1        0.0618
     52 H          12.9308    2.0354    8.1816 H       1  UNL1        0.0618
     53 H          11.9047    1.1248    6.1369 H       1  UNL1        0.0621
     54 H           5.6402    5.0205    5.7828 H       1  UNL1        0.0704
@<TRIPOS>UNITY_ATOM_ATTR
1 1
charge -1
2 1
charge 1
@<TRIPOS>BOND
     1     2     1    1
     2     3     2    2
     3     4     2    1
     4     5     4   ar
     5     5    33    1
     6     6     5   ar
     7     6    34    1
     8     7     6   ar
     9     7    35    1
    10     8     7   ar
    11     9     8    1
    12     9    36    1
    13    10     9   am
    14    11    10    2
    15    12    10    1
    16    12    37    1
    17    12    38    1
    18    13    12    1
    19    14    13    1
    20    14    39    1
    21    14    40    1
    22    15    14    1
    23    15    41    1
    24    15    42    1
    25    16    15    1
    26    17    16   ar
    27    18    17   ar
    28    18    43    1
    29    19    18   ar
    30    20    19   ar
    31    20    44    1
    32    21    20   ar
    33    21    45    1
    34    22    21   ar
    35    22    46    1
    36    23    22   ar
    37    23    47    1
    38    24    23   ar
    39    24    16   ar
    40    24    19   ar
    41    25    17    1
    42    25    13    1
    43    25    48    1
    44    26    25    1
    45    27    26   ar
    46    27    49    1
    47    28    27   ar
    48    28    50    1
    49    29    28   ar
    50    29    51    1
    51    30    29   ar
    52    30    52    1
    53    31    30   ar
    54    31    26   ar
    55    31    53    1
    56    32     8   ar
    57    32     4   ar
    58    32    54    1
