@<TRIPOS>MOLECULE
mol_37_akc_fmc_2017_0120
>37.sdf
 38 41 0 0 0
SMALL
GASTEIGER

@<TRIPOS>ATOM
      1 C           1.8939   -0.6104   -1.1467 C.3     1  UNL1       -0.0106
      2 S           2.8683   -0.0210    0.2544 S.3     1  UNL1       -0.0894
      3 C           3.2615   -1.5463    1.0434 C.ar    1  UNL1        0.1902
      4 N           2.7989   -2.6625    0.5447 N.ar    1  UNL1       -0.2218
      5 C           3.1329   -3.8416    1.1858 C.ar    1  UNL1        0.0759
      6 C           3.9136   -3.9295    2.2829 C.ar    1  UNL1       -0.0100
      7 C           4.4270   -2.7369    2.8326 C.ar    1  UNL1        0.0723
      8 C           5.2296   -2.3824    3.8847 C.ar    1  UNL1       -0.0084
      9 C           5.3110   -0.9613    3.8338 C.ar    1  UNL1        0.0938
     10 N           4.5862   -0.4737    2.8105 N.ar    1  UNL1       -0.1641
     11 N           4.0736   -1.5696    2.1997 N.ar    1  UNL1       -0.2081
     12 C           6.0574   -0.0855    4.7407 C.ar    1  UNL1        0.0021
     13 C           7.2150   -0.5450    5.3873 C.ar    1  UNL1       -0.0525
     14 C           7.9277    0.2909    6.2516 C.ar    1  UNL1       -0.0611
     15 C           7.4889    1.5926    6.4823 C.ar    1  UNL1       -0.0617
     16 C           6.3395    2.0611    5.8486 C.ar    1  UNL1       -0.0611
     17 C           5.6293    1.2278    4.9794 C.ar    1  UNL1       -0.0525
     18 C           2.5867   -5.0913    0.6351 C.ar    1  UNL1        0.0005
     19 C           1.3490   -5.5728    1.0814 C.ar    1  UNL1       -0.0526
     20 C           0.8482   -6.7816    0.5956 C.ar    1  UNL1       -0.0611
     21 C           1.5786   -7.5132   -0.3404 C.ar    1  UNL1       -0.0617
     22 C           2.8056   -7.0341   -0.7986 C.ar    1  UNL1       -0.0611
     23 C           3.3093   -5.8256   -0.3134 C.ar    1  UNL1       -0.0526
     24 H           2.4739   -1.3022   -1.7643 H       1  UNL1        0.0345
     25 H           0.9809   -1.1035   -0.8014 H       1  UNL1        0.0345
     26 H           1.6076    0.2420   -1.7690 H       1  UNL1        0.0345
     27 H           4.1448   -4.8834    2.7472 H       1  UNL1        0.0660
     28 H           5.6896   -3.0468    4.6027 H       1  UNL1        0.0661
     29 H           7.5884   -1.5505    5.2135 H       1  UNL1        0.0624
     30 H           8.8285   -0.0734    6.7383 H       1  UNL1        0.0618
     31 H           8.0449    2.2436    7.1519 H       1  UNL1        0.0618
     32 H           5.9954    3.0767    6.0262 H       1  UNL1        0.0618
     33 H           4.7350    1.6090    4.4896 H       1  UNL1        0.0624
     34 H           0.7719   -5.0066    1.8086 H       1  UNL1        0.0624
     35 H          -0.1114   -7.1517    0.9473 H       1  UNL1        0.0618
     36 H           1.1885   -8.4556   -0.7166 H       1  UNL1        0.0618
     37 H           3.3704   -7.6016   -1.5338 H       1  UNL1        0.0618
     38 H           4.2652   -5.4577   -0.6789 H       1  UNL1        0.0624
@<TRIPOS>BOND
     1     1    24    1
     2     1    25    1
     3     1    26    1
     4     2     1    1
     5     3     2    1
     6     4     3   ar
     7     5     4   ar
     8     6     5   ar
     9     6    27    1
    10     7     6   ar
    11     8     7   ar
    12     8    28    1
    13     9     8   ar
    14    10     9   ar
    15    11    10   ar
    16    11     3   ar
    17    11     7   ar
    18    12     9    1
    19    13    12   ar
    20    13    29    1
    21    14    13   ar
    22    14    30    1
    23    15    14   ar
    24    15    31    1
    25    16    15   ar
    26    16    32    1
    27    17    16   ar
    28    17    12   ar
    29    17    33    1
    30    18     5    1
    31    19    18   ar
    32    19    34    1
    33    20    19   ar
    34    20    35    1
    35    21    20   ar
    36    21    36    1
    37    22    21   ar
    38    22    37    1
    39    23    22   ar
    40    23    18   ar
    41    23    38    1
