@<TRIPOS>MOLECULE
mol_380_akc_jejmech201608014
>365.sdf
 56 60 0 0 0
SMALL
GASTEIGER

@<TRIPOS>ATOM
      1 C           1.8969   -4.9262   -2.4782 C.3     1  UNL1       -0.0380
      2 C           3.0335   -5.5533   -1.7297 C.ar    1  UNL1       -0.0292
      3 C           3.7116   -4.9436   -0.6641 C.ar    1  UNL1        0.0365
      4 N           3.3198   -3.7121   -0.0825 N.am    1  UNL1       -0.2809
      5 C           2.0552   -3.5271    0.4792 C.2     1  UNL1        0.2624
      6 O           1.1625   -4.3641    0.5337 O.2     1  UNL1       -0.2696
      7 C           1.9015   -2.1708    1.1593 C.3     1  UNL1        0.0473
      8 N           0.6649   -1.3280    0.9037 N.4     1  UNL1        0.2517
      9 C          -0.5275   -1.5231    1.8395 C.3     1  UNL1       -0.0263
     10 C          -1.3013   -0.1924    1.9951 C.3     1  UNL1        0.0152
     11 C          -1.3874    0.5439    0.6969 C.ar    1  UNL1       -0.0083
     12 C          -0.6590    0.1840   -0.4226 C.ar    1  UNL1        0.0736
     13 N          -0.9554    1.0761   -1.4241 N.ar    1  UNL1       -0.3530
     14 C          -1.8651    2.0040   -0.9648 C.ar    1  UNL1        0.0471
     15 C          -2.4576    3.0794   -1.6352 C.ar    1  UNL1       -0.0378
     16 C          -3.3629    3.8666   -0.9195 C.ar    1  UNL1       -0.0598
     17 C          -3.6595    3.5890    0.4125 C.ar    1  UNL1       -0.0611
     18 C          -3.0596    2.5076    1.0683 C.ar    1  UNL1       -0.0523
     19 C          -2.1496    1.6959    0.3661 C.ar    1  UNL1        0.0035
     20 C           0.2795   -0.9904   -0.5431 C.3     1  UNL1        0.0468
     21 C          -0.2992   -2.0416   -1.4802 C.ar    1  UNL1        0.0062
     22 C          -0.9474   -3.2177   -1.0806 C.ar    1  UNL1       -0.0529
     23 C          -1.5167   -4.0971   -2.0087 C.ar    1  UNL1       -0.0613
     24 C          -1.4748   -3.8094   -3.3661 C.ar    1  UNL1       -0.0617
     25 C          -0.8472   -2.6490   -3.7986 C.ar    1  UNL1       -0.0613
     26 C          -0.2570   -1.7850   -2.8709 C.ar    1  UNL1       -0.0529
     27 C           4.8713   -5.5403   -0.1498 C.ar    1  UNL1       -0.0402
     28 C           5.2995   -6.7782   -0.6185 C.ar    1  UNL1       -0.0600
     29 C           4.5971   -7.4181   -1.6359 C.ar    1  UNL1       -0.0614
     30 C           3.4803   -6.8045   -2.1949 C.ar    1  UNL1       -0.0571
     31 H           1.7262   -3.8968   -2.1677 H       1  UNL1        0.0278
     32 H           0.9860   -5.5115   -2.3300 H       1  UNL1        0.0278
     33 H           2.1248   -4.8873   -3.5495 H       1  UNL1        0.0278
     34 H           4.0824   -3.2253    0.3769 H       1  UNL1        0.1550
     35 H           2.7486   -1.5263    0.8998 H       1  UNL1        0.0913
     36 H           1.9531   -2.3383    2.2425 H       1  UNL1        0.0913
     37 H           1.0017   -0.4097    1.2125 H       1  UNL1        0.2049
     38 H          -0.1495   -1.8508    2.8132 H       1  UNL1        0.0818
     39 H          -1.1758   -2.2995    1.4425 H       1  UNL1        0.0818
     40 H          -0.7754    0.4425    2.7192 H       1  UNL1        0.0366
     41 H          -2.3009   -0.3901    2.3979 H       1  UNL1        0.0366
     42 H          -0.6079    1.0677   -2.3724 H       1  UNL1        0.1658
     43 H          -2.2352    3.3010   -2.6744 H       1  UNL1        0.0638
     44 H          -3.8477    4.7075   -1.4123 H       1  UNL1        0.0618
     45 H          -4.3697    4.2155    0.9476 H       1  UNL1        0.0618
     46 H          -3.3099    2.3019    2.1058 H       1  UNL1        0.0624
     47 H           1.2243   -0.6373   -0.9805 H       1  UNL1        0.0972
     48 H          -1.0047   -3.5349   -0.0478 H       1  UNL1        0.0622
     49 H          -1.9754   -5.0224   -1.6642 H       1  UNL1        0.0618
     50 H          -1.9198   -4.4956   -4.0822 H       1  UNL1        0.0618
     51 H          -0.8178   -2.4179   -4.8614 H       1  UNL1        0.0618
     52 H           0.2303   -0.8940   -3.2619 H       1  UNL1        0.0622
     53 H           5.4330   -5.0800    0.6592 H       1  UNL1        0.0636
     54 H           6.1773   -7.2586   -0.1892 H       1  UNL1        0.0618
     55 H           4.9246   -8.3877   -2.0040 H       1  UNL1        0.0618
     56 H           2.9610   -7.2993   -3.0135 H       1  UNL1        0.0621
@<TRIPOS>UNITY_ATOM_ATTR
8 1
charge 1
@<TRIPOS>BOND
     1     1    31    1
     2     1    32    1
     3     1    33    1
     4     2     1    1
     5     3     2   ar
     6     4     3    1
     7     4    34    1
     8     5     4   am
     9     6     5    2
    10     7     5    1
    11     7    35    1
    12     7    36    1
    13     8     7    1
    14     8    37    1
    15     9     8    1
    16     9    38    1
    17     9    39    1
    18    10     9    1
    19    10    40    1
    20    10    41    1
    21    11    10    1
    22    12    11   ar
    23    13    12   ar
    24    13    42    1
    25    14    13   ar
    26    15    14   ar
    27    15    43    1
    28    16    15   ar
    29    16    44    1
    30    17    16   ar
    31    17    45    1
    32    18    17   ar
    33    18    46    1
    34    19    18   ar
    35    19    11   ar
    36    19    14   ar
    37    20    12    1
    38    20     8    1
    39    20    47    1
    40    21    20    1
    41    22    21   ar
    42    22    48    1
    43    23    22   ar
    44    23    49    1
    45    24    23   ar
    46    24    50    1
    47    25    24   ar
    48    25    51    1
    49    26    25   ar
    50    26    21   ar
    51    26    52    1
    52    27     3   ar
    53    27    53    1
    54    28    27   ar
    55    28    54    1
    56    29    28   ar
    57    29    55    1
    58    30    29   ar
    59    30     2   ar
    60    30    56    1
