@<TRIPOS>MOLECULE
mol_381_akc_jejmech201607014
>366.sdf
 27 28 0 0 0
SMALL
GASTEIGER

@<TRIPOS>ATOM
      1 N           3.2940   -0.5882   -1.2410 N.am    1  UNL1       -0.3394
      2 C           2.5585    0.1895   -0.4099 C.2     1  UNL1        0.1473
      3 S           0.9039    0.1105   -0.3609 S.2     1  UNL1       -0.0174
      4 N           3.2787    1.0400    0.3842 N.am    1  UNL1       -0.2186
      5 N           4.6421    1.0548    0.3307 N.2     1  UNL1       -0.1885
      6 C           5.2254    1.8395    1.1812 C.2     1  UNL1        0.0533
      7 C           6.7037    1.9240    1.2379 C.ar    1  UNL1        0.0024
      8 C           7.4077    1.6145    0.0625 C.ar    1  UNL1       -0.0498
      9 C           8.7960    1.6454    0.0531 C.ar    1  UNL1       -0.0252
     10 C           9.4764    1.9751    1.2180 C.ar    1  UNL1        0.1311
     11 F          10.8189    1.9818    1.1828 F       1  UNL1       -0.2049
     12 C           8.8033    2.2863    2.4100 C.ar    1  UNL1        0.0179
     13 C           9.5282    2.5951    3.5753 C.ar    1  UNL1       -0.0513
     14 C           8.8774    2.8941    4.7695 C.ar    1  UNL1       -0.0611
     15 C           7.4906    2.8915    4.8155 C.ar    1  UNL1       -0.0611
     16 C           6.7535    2.5845    3.6686 C.ar    1  UNL1       -0.0533
     17 C           7.3846    2.2742    2.4375 C.ar    1  UNL1       -0.0065
     18 H           2.8666   -1.3021   -1.8125 H       1  UNL1        0.1440
     19 H           4.2991   -0.5507   -1.1227 H       1  UNL1        0.1440
     20 H           2.7747    1.6305    1.0382 H       1  UNL1        0.1762
     21 H           4.6431    2.4512    1.8905 H       1  UNL1        0.0851
     22 H           6.8753    1.3531   -0.8502 H       1  UNL1        0.0625
     23 H           9.3522    1.4089   -0.8486 H       1  UNL1        0.0646
     24 H          10.6172    2.5938    3.5558 H       1  UNL1        0.0624
     25 H           9.4553    3.1227    5.6613 H       1  UNL1        0.0618
     26 H           6.9779    3.1210    5.7469 H       1  UNL1        0.0618
     27 H           5.6712    2.5817    3.7650 H       1  UNL1        0.0624
@<TRIPOS>BOND
     1     1    18    1
     2     1    19    1
     3     2     1    1
     4     3     2    2
     5     4     2    1
     6     4    20    1
     7     5     4    1
     8     6     5    2
     9     6    21    1
    10     7     6    1
    11     8     7   ar
    12     8    22    1
    13     9     8   ar
    14     9    23    1
    15    10     9   ar
    16    11    10    1
    17    12    10   ar
    18    13    12   ar
    19    13    24    1
    20    14    13   ar
    21    14    25    1
    22    15    14   ar
    23    15    26    1
    24    16    15   ar
    25    16    27    1
    26    17    16   ar
    27    17     7   ar
    28    17    12   ar
