@<TRIPOS>MOLECULE
mol_382_akc_jejmech201601028
>367.sdf
 73 76 0 0 0
SMALL
GASTEIGER

@<TRIPOS>ATOM
      1 C          -3.7836   12.0518    0.8110 C.3     1  UNL1        0.0788
      2 O          -3.5939   11.0700    1.8223 O.3     1  UNL1       -0.4951
      3 C          -2.3872   10.4267    1.8437 C.ar    1  UNL1        0.1201
      4 C          -1.3087   10.6707    0.9961 C.ar    1  UNL1       -0.0196
      5 C          -0.1157    9.9444    1.1345 C.ar    1  UNL1       -0.0536
      6 C           0.0160    8.9426    2.1072 C.ar    1  UNL1       -0.0301
      7 C           1.2825    8.1344    2.3155 C.3     1  UNL1        0.0369
      8 N           2.2657    8.2503    1.2565 N.am    1  UNL1       -0.3099
      9 C           3.6290    8.2293    1.4881 C.2     1  UNL1        0.2307
     10 O           4.1166    8.2103    2.6199 O.2     1  UNL1       -0.2741
     11 C           4.4883    8.2962    0.2003 C.3     1  UNL1        0.0924
     12 N           5.1680    9.5783    0.0276 N.am    1  UNL1       -0.2719
     13 C           6.3945    9.6403   -0.7834 C.3     1  UNL1        0.1282
     14 C           7.6704    9.2185    0.0046 C.2     1  UNL1        0.2385
     15 O           7.6968    8.3006    0.8167 O.2     1  UNL1       -0.2734
     16 N           8.7930    9.9664   -0.3525 N.am    1  UNL1       -0.3087
     17 C          10.1585    9.7608    0.1508 C.3     1  UNL1        0.0262
     18 C          10.6702    8.3638   -0.2258 C.3     1  UNL1       -0.0442
     19 C          11.0645   10.8100   -0.5220 C.3     1  UNL1       -0.0442
     20 C          10.2240    9.9680    1.6705 C.3     1  UNL1       -0.0442
     21 C           6.3042    9.0299   -2.1888 C.ar    1  UNL1       -0.0181
     22 C           5.1877    9.2954   -3.0020 C.ar    1  UNL1       -0.0550
     23 C           5.1923    8.9625   -4.3587 C.ar    1  UNL1       -0.0431
     24 C           6.3187    8.3741   -4.9257 C.ar    1  UNL1        0.0410
     25 CL          6.3689    8.0682   -6.6160 Cl      1  UNL1       -0.0835
     26 C           7.4177    8.0624   -4.1354 C.ar    1  UNL1       -0.0431
     27 C           7.4021    8.3715   -2.7741 C.ar    1  UNL1       -0.0550
     28 C           4.3818   10.7288    0.0693 C.2     1  UNL1        0.2642
     29 O           3.2152   10.7381   -0.3174 O.2     1  UNL1       -0.2683
     30 C           4.9669   11.8341    0.8014 C.ar    1  UNL1        0.1030
     31 C           6.2263   12.0095    1.3534 C.ar    1  UNL1       -0.0241
     32 C           6.0341   12.7483    2.5429 C.ar    1  UNL1        0.0004
     33 C           6.8037   12.8864    3.7096 C.ar    1  UNL1       -0.0526
     34 C           6.2156   13.4925    4.8204 C.ar    1  UNL1       -0.0611
     35 C           4.9337   14.0368    4.7412 C.ar    1  UNL1       -0.0598
     36 C           4.1865   13.9817    3.5577 C.ar    1  UNL1       -0.0378
     37 C           4.7520   13.2797    2.4920 C.ar    1  UNL1        0.0470
     38 N           4.2088   12.8803    1.2892 N.ar    1  UNL1       -0.3506
     39 C          -1.0772    8.7128    2.9596 C.ar    1  UNL1       -0.0536
     40 C          -2.2615    9.4477    2.8293 C.ar    1  UNL1       -0.0196
     41 H          -3.0703   12.8755    0.9186 H       1  UNL1        0.0660
     42 H          -3.7254   11.6052   -0.1871 H       1  UNL1        0.0660
     43 H          -4.7892   12.4671    0.9315 H       1  UNL1        0.0660
     44 H          -1.3537   11.4272    0.2195 H       1  UNL1        0.0654
     45 H           0.7107   10.1879    0.4714 H       1  UNL1        0.0622
     46 H           1.7285    8.3999    3.2791 H       1  UNL1        0.0512
     47 H           1.0104    7.0727    2.3449 H       1  UNL1        0.0512
     48 H           1.9308    8.3063    0.3035 H       1  UNL1        0.1491
     49 H           5.2383    7.5041    0.2950 H       1  UNL1        0.0560
     50 H           3.8704    8.0844   -0.6774 H       1  UNL1        0.0560
     51 H           6.5520   10.7041   -1.0158 H       1  UNL1        0.0648
     52 H           8.6831   10.6398   -1.1011 H       1  UNL1        0.1493
     53 H          10.6420    8.2132   -1.3110 H       1  UNL1        0.0250
     54 H          11.7062    8.2193    0.1041 H       1  UNL1        0.0250
     55 H          10.0673    7.5711    0.2277 H       1  UNL1        0.0250
     56 H          10.7424   11.8270   -0.2810 H       1  UNL1        0.0250
     57 H          12.1123   10.7025   -0.2010 H       1  UNL1        0.0250
     58 H          11.0390   10.7118   -1.6135 H       1  UNL1        0.0250
     59 H           9.8411   10.9569    1.9505 H       1  UNL1        0.0250
     60 H           9.6326    9.2235    2.2127 H       1  UNL1        0.0250
     61 H          11.2558    9.8938    2.0320 H       1  UNL1        0.0250
     62 H           4.3116    9.8017   -2.6007 H       1  UNL1        0.0621
     63 H           4.3280    9.2004   -4.9728 H       1  UNL1        0.0632
     64 H           8.3032    7.6075   -4.5715 H       1  UNL1        0.0632
     65 H           8.2912    8.1209   -2.1991 H       1  UNL1        0.0621
     66 H           7.1107   11.4236    1.1740 H       1  UNL1        0.0646
     67 H           7.7806   12.4197    3.7829 H       1  UNL1        0.0624
     68 H           6.7519   13.4987    5.7656 H       1  UNL1        0.0618
     69 H           4.4886   14.4796    5.6279 H       1  UNL1        0.0618
     70 H           3.1801   14.3789    3.5106 H       1  UNL1        0.0638
     71 H           3.2464   13.0421    1.0213 H       1  UNL1        0.1660
     72 H          -1.0140    7.9612    3.7452 H       1  UNL1        0.0622
     73 H          -3.0920    9.2581    3.5057 H       1  UNL1        0.0654
@<TRIPOS>BOND
     1     1    41    1
     2     1    42    1
     3     1    43    1
     4     2     1    1
     5     3     2    1
     6     4     3   ar
     7     4    44    1
     8     5     4   ar
     9     5    45    1
    10     6     5   ar
    11     7     6    1
    12     7    46    1
    13     7    47    1
    14     8     7    1
    15     8    48    1
    16     9     8   am
    17    10     9    2
    18    11     9    1
    19    11    49    1
    20    11    50    1
    21    12    11    1
    22    13    12    1
    23    13    51    1
    24    14    13    1
    25    15    14    2
    26    16    14   am
    27    16    52    1
    28    17    16    1
    29    18    17    1
    30    18    53    1
    31    18    54    1
    32    18    55    1
    33    19    17    1
    34    19    56    1
    35    19    57    1
    36    19    58    1
    37    20    17    1
    38    20    59    1
    39    20    60    1
    40    20    61    1
    41    21    13    1
    42    22    21   ar
    43    22    62    1
    44    23    22   ar
    45    23    63    1
    46    24    23   ar
    47    25    24    1
    48    26    24   ar
    49    26    64    1
    50    27    26   ar
    51    27    21   ar
    52    27    65    1
    53    28    12   am
    54    29    28    2
    55    30    28    1
    56    31    30   ar
    57    31    66    1
    58    32    31   ar
    59    33    32   ar
    60    33    67    1
    61    34    33   ar
    62    34    68    1
    63    35    34   ar
    64    35    69    1
    65    36    35   ar
    66    36    70    1
    67    37    36   ar
    68    37    32   ar
    69    38    37   ar
    70    38    30   ar
    71    38    71    1
    72    39     6   ar
    73    39    72    1
    74    40    39   ar
    75    40     3   ar
    76    40    73    1
