@<TRIPOS>MOLECULE
mol_383_akc_jvetpar201601002
>368.sdf
 18 19 0 0 0
SMALL
GASTEIGER

@<TRIPOS>ATOM
      1 O          -1.7142    2.0429    0.0101 O.3     1  UNL1       -0.5046
      2 C          -1.3212    0.7236    0.0082 C.ar    1  UNL1        0.1427
      3 C           0.0497    0.4235    0.0061 C.ar    1  UNL1        0.1122
      4 N           0.9932    1.3950    0.0059 N.ar    1  UNL1       -0.2513
      5 C           2.2943    1.0377    0.0060 C.ar    1  UNL1        0.0284
      6 C           2.7308   -0.2711    0.0062 C.ar    1  UNL1       -0.0430
      7 C           1.7712   -1.2746    0.0048 C.ar    1  UNL1       -0.0510
      8 C           0.4089   -0.9431    0.0044 C.ar    1  UNL1        0.0040
      9 C          -0.5790   -1.9446    0.0032 C.ar    1  UNL1       -0.0523
     10 C          -1.9306   -1.6083    0.0058 C.ar    1  UNL1       -0.0576
     11 C          -2.3060   -0.2700    0.0092 C.ar    1  UNL1       -0.0180
     12 H          -2.6816    2.0917    0.0031 H       1  UNL1        0.2922
     13 H           2.9976    1.8652    0.0061 H       1  UNL1        0.0830
     14 H           3.7891   -0.5036    0.0075 H       1  UNL1        0.0633
     15 H           2.0900   -2.3138    0.0048 H       1  UNL1        0.0625
     16 H          -0.2972   -2.9955    0.0003 H       1  UNL1        0.0624
     17 H          -2.6869   -2.3890    0.0058 H       1  UNL1        0.0619
     18 H          -3.3609   -0.0146    0.0127 H       1  UNL1        0.0655
@<TRIPOS>BOND
     1     1    12    1
     2     2     1    1
     3     3     2   ar
     4     4     3   ar
     5     5     4   ar
     6     5    13    1
     7     6     5   ar
     8     6    14    1
     9     7     6   ar
    10     7    15    1
    11     8     7   ar
    12     8     3   ar
    13     9     8   ar
    14     9    16    1
    15    10     9   ar
    16    10    17    1
    17    11    10   ar
    18    11     2   ar
    19    11    18    1
