@<TRIPOS>MOLECULE
mol_384_akc_molecules201219829
>369.sdf
 35 38 0 0 0
SMALL
GASTEIGER

@<TRIPOS>ATOM
      1 C           0.3791    0.8882    0.5760 C.3     1  UNL1        0.0242
      2 C           1.1944   -0.2154   -0.1137 C.3     1  UNL1       -0.0054
      3 C           2.6909   -0.0279    0.1231 C.3     1  UNL1       -0.0430
      4 C           3.1538    1.3443   -0.3474 C.3     1  UNL1       -0.0123
      5 C           2.3507    2.4635    0.2953 C.3     1  UNL1       -0.0315
      6 N           0.8731    2.2487    0.0528 N.4     1  UNL1        0.2409
      7 C           0.0641    3.4269    0.5879 C.3     1  UNL1       -0.0249
      8 C          -1.4397    3.1866    0.3725 C.3     1  UNL1        0.0217
      9 C          -1.8536    1.9085    1.1307 C.3     1  UNL1        0.0080
     10 C          -1.1770    0.7265    0.4319 C.3     1  UNL1        0.1814
     11 O          -1.5768   -0.5200    0.9947 O.3     1  UNL1       -0.4444
     12 C          -2.0965   -1.3108    0.0072 C.2     1  UNL1        0.3334
     13 O          -2.4241   -2.4735    0.1374 O.2     1  UNL1       -0.2456
     14 C          -2.2165   -0.5376   -1.2310 C.2     1  UNL1        0.0297
     15 C          -1.7271    0.6661   -0.9564 C.2     1  UNL1        0.0077
     16 C          -1.8821    1.8683   -1.7286 C.2     1  UNL1       -0.0579
     17 C          -1.7418    3.0578   -1.1175 C.2     1  UNL1       -0.0754
     18 H           0.6235    0.8763    1.6477 H       1  UNL1        0.0894
     19 H           1.0008   -0.2195   -1.1934 H       1  UNL1        0.0321
     20 H           0.9013   -1.1991    0.2700 H       1  UNL1        0.0321
     21 H           3.2519   -0.8089   -0.4019 H       1  UNL1        0.0269
     22 H           2.9097   -0.1423    1.1925 H       1  UNL1        0.0269
     23 H           4.2154    1.4747   -0.1077 H       1  UNL1        0.0317
     24 H           3.0650    1.4053   -1.4390 H       1  UNL1        0.0317
     25 H           2.6179    3.4291   -0.1460 H       1  UNL1        0.0814
     26 H           2.5046    2.5023    1.3791 H       1  UNL1        0.0814
     27 H           0.7358    2.2448   -0.9700 H       1  UNL1        0.2038
     28 H           0.4065    4.3178    0.0495 H       1  UNL1        0.0820
     29 H           0.3040    3.5286    1.6523 H       1  UNL1        0.0820
     30 H          -2.0061    4.0331    0.7771 H       1  UNL1        0.0396
     31 H          -1.5594    1.9574    2.1870 H       1  UNL1        0.0317
     32 H          -2.9463    1.7916    1.1343 H       1  UNL1        0.0317
     33 H          -2.7525   -0.8904   -2.0958 H       1  UNL1        0.0693
     34 H          -2.1810    1.8054   -2.7738 H       1  UNL1        0.0619
     35 H          -1.8952    3.9756   -1.6852 H       1  UNL1        0.0577
@<TRIPOS>UNITY_ATOM_ATTR
6 1
charge 1
@<TRIPOS>BOND
     1     1    18    1
     2     2     1    1
     3     2    19    1
     4     2    20    1
     5     3     2    1
     6     3    21    1
     7     3    22    1
     8     4     3    1
     9     4    23    1
    10     4    24    1
    11     5     4    1
    12     5    25    1
    13     5    26    1
    14     6     5    1
    15     6     1    1
    16     6    27    1
    17     7     6    1
    18     7    28    1
    19     7    29    1
    20     8     7    1
    21     8    30    1
    22     9     8    1
    23     9    31    1
    24     9    32    1
    25    10     9    1
    26    10     1    1
    27    11    10    1
    28    12    11    1
    29    13    12    2
    30    14    12    1
    31    14    33    1
    32    15    14    2
    33    15    10    1
    34    16    15    1
    35    16    34    1
    36    17    16    2
    37    17     8    1
    38    17    35    1
