@<TRIPOS>MOLECULE
mol_385_akc_jejmech201510011
>370.sdf
 40 43 0 0 0
SMALL
GASTEIGER

@<TRIPOS>ATOM
      1 N           1.0387   -0.4704   -0.3951 N.1     1  UNL1       -0.1908
      2 C           2.1864   -0.3590   -0.3198 C.1     1  UNL1        0.1021
      3 C           3.6118   -0.2136   -0.1901 C.ar    1  UNL1        0.0877
      4 C           4.2573    1.0094   -0.3005 C.ar    1  UNL1        0.1190
      5 S           5.9545    0.7921   -0.1182 S.2     1  UNL1       -0.0727
      6 C           5.8277   -0.9021    0.0449 C.ar    1  UNL1       -0.0037
      7 C           4.5091   -1.3294    0.0086 C.ar    1  UNL1       -0.0177
      8 C           4.0638   -2.7698    0.1055 C.3     1  UNL1       -0.0256
      9 C           4.9520   -3.7109   -0.7142 C.3     1  UNL1       -0.0490
     10 C           6.2449   -4.1185   -0.0049 C.3     1  UNL1       -0.0524
     11 C           6.9280   -3.0441    0.8445 C.3     1  UNL1       -0.0486
     12 C           7.0997   -1.7029    0.1415 C.3     1  UNL1       -0.0211
     13 N           3.8525    2.2765   -0.5906 N.2     1  UNL1       -0.2451
     14 C           2.7241    2.6931   -0.1257 C.2     1  UNL1        0.0522
     15 C           2.2970    4.0242   -0.4408 C.ar    1  UNL1        0.0586
     16 C           1.0455    4.5963   -0.3227 C.ar    1  UNL1       -0.0278
     17 C           1.1944    5.9978   -0.5108 C.ar    1  UNL1        0.0003
     18 C           0.3216    7.0923   -0.3919 C.ar    1  UNL1       -0.0526
     19 C           0.8658    8.3799   -0.3539 C.ar    1  UNL1       -0.0611
     20 C           2.2315    8.5846   -0.5507 C.ar    1  UNL1       -0.0598
     21 C           3.0875    7.5187   -0.8416 C.ar    1  UNL1       -0.0378
     22 C           2.5421    6.2336   -0.7767 C.ar    1  UNL1        0.0469
     23 N           3.1420    5.0044   -0.9066 N.ar    1  UNL1       -0.3534
     24 H           3.0461   -2.8644   -0.2863 H       1  UNL1        0.0314
     25 H           4.0238   -3.0787    1.1528 H       1  UNL1        0.0314
     26 H           5.1906   -3.2524   -1.6813 H       1  UNL1        0.0268
     27 H           4.3889   -4.6216   -0.9398 H       1  UNL1        0.0268
     28 H           6.0316   -4.9763    0.6463 H       1  UNL1        0.0265
     29 H           6.9472   -4.4844   -0.7638 H       1  UNL1        0.0265
     30 H           6.3867   -2.9125    1.7875 H       1  UNL1        0.0269
     31 H           7.9229   -3.4250    1.1185 H       1  UNL1        0.0269
     32 H           7.5076   -1.8531   -0.8658 H       1  UNL1        0.0318
     33 H           7.8462   -1.1250    0.7028 H       1  UNL1        0.0318
     34 H           2.0623    2.1010    0.5310 H       1  UNL1        0.0851
     35 H           0.1421    4.0879   -0.0140 H       1  UNL1        0.0645
     36 H          -0.7438    6.9394   -0.2462 H       1  UNL1        0.0624
     37 H           0.2187    9.2257   -0.1371 H       1  UNL1        0.0618
     38 H           2.6399    9.5891   -0.4708 H       1  UNL1        0.0618
     39 H           4.1428    7.6813   -1.0313 H       1  UNL1        0.0638
     40 H           4.1171    4.8466   -1.1222 H       1  UNL1        0.1659
@<TRIPOS>BOND
     1     2     1    3
     2     3     2    1
     3     4     3   ar
     4     5     4   ar
     5     6     5   ar
     6     7     6   ar
     7     7     3   ar
     8     8     7    1
     9     8    24    1
    10     8    25    1
    11     9     8    1
    12     9    26    1
    13     9    27    1
    14    10     9    1
    15    10    28    1
    16    10    29    1
    17    11    10    1
    18    11    30    1
    19    11    31    1
    20    12    11    1
    21    12     6    1
    22    12    32    1
    23    12    33    1
    24    13     4    1
    25    14    13    2
    26    14    34    1
    27    15    14    1
    28    16    15   ar
    29    16    35    1
    30    17    16   ar
    31    18    17   ar
    32    18    36    1
    33    19    18   ar
    34    19    37    1
    35    20    19   ar
    36    20    38    1
    37    21    20   ar
    38    21    39    1
    39    22    21   ar
    40    22    17   ar
    41    23    22   ar
    42    23    15   ar
    43    23    40    1
