@<TRIPOS>MOLECULE
mol_386_akc_jejmech201510011
>371.sdf
 37 40 0 0 0
SMALL
GASTEIGER

@<TRIPOS>ATOM
      1 BR          2.1447   -0.6602    3.3891 Br      1  UNL1       -0.0503
      2 C           0.5679   -0.9330    2.3780 C.ar    1  UNL1        0.0186
      3 C           0.5520   -0.5914    1.0266 C.ar    1  UNL1       -0.0458
      4 C          -0.5984   -0.7841    0.2545 C.ar    1  UNL1       -0.0367
      5 C          -1.7210   -1.3257    0.8890 C.ar    1  UNL1        0.0470
      6 N          -2.9690   -1.6205    0.3894 N.ar    1  UNL1       -0.3534
      7 C          -3.7798   -2.1196    1.3794 C.ar    1  UNL1        0.0586
      8 C          -5.1561   -2.4904    1.1999 C.2     1  UNL1        0.0522
      9 N          -5.7288   -2.3943    0.0426 N.2     1  UNL1       -0.2451
     10 C          -7.0440   -2.7739   -0.0439 C.ar    1  UNL1        0.1190
     11 C          -8.0260   -2.2850   -0.9041 C.ar    1  UNL1        0.0877
     12 C          -7.7717   -1.2383   -1.8556 C.1     1  UNL1        0.1021
     13 N          -7.6298   -0.3918   -2.6456 N.1     1  UNL1       -0.1908
     14 C          -9.3009   -2.9337   -0.7372 C.ar    1  UNL1       -0.0177
     15 C          -9.2391   -3.9139    0.2301 C.ar    1  UNL1       -0.0037
     16 C         -10.3770   -4.7737    0.6806 C.3     1  UNL1       -0.0210
     17 C         -11.5150   -4.7344   -0.3457 C.3     1  UNL1       -0.0483
     18 C         -11.7934   -3.3066   -0.8363 C.3     1  UNL1       -0.0487
     19 C         -10.5634   -2.6733   -1.5097 C.3     1  UNL1       -0.0256
     20 S          -7.6969   -4.0769    0.8983 S.2     1  UNL1       -0.0727
     21 C          -3.0217   -2.1777    2.5334 C.ar    1  UNL1       -0.0277
     22 C          -1.7264   -1.6725    2.2402 C.ar    1  UNL1        0.0013
     23 C          -0.5602   -1.4745    3.0042 C.ar    1  UNL1       -0.0386
     24 H           1.4375   -0.1716    0.5574 H       1  UNL1        0.0629
     25 H          -0.6136   -0.5189   -0.7974 H       1  UNL1        0.0639
     26 H          -3.2667   -1.4784   -0.5669 H       1  UNL1        0.1659
     27 H          -5.6674   -2.8474    2.1114 H       1  UNL1        0.0851
     28 H         -10.0520   -5.8103    0.8244 H       1  UNL1        0.0318
     29 H         -10.7407   -4.4054    1.6476 H       1  UNL1        0.0318
     30 H         -12.4203   -5.1624    0.1006 H       1  UNL1        0.0269
     31 H         -11.2531   -5.3647   -1.2055 H       1  UNL1        0.0269
     32 H         -12.1015   -2.6900    0.0177 H       1  UNL1        0.0268
     33 H         -12.6308   -3.3147   -1.5434 H       1  UNL1        0.0268
     34 H         -10.7298   -1.5966   -1.6222 H       1  UNL1        0.0314
     35 H         -10.4461   -3.0965   -2.5151 H       1  UNL1        0.0314
     36 H          -3.3643   -2.5342    3.4969 H       1  UNL1        0.0645
     37 H          -0.5429   -1.7374    4.0553 H       1  UNL1        0.0635
@<TRIPOS>BOND
     1     2     1    1
     2     3     2   ar
     3     3    24    1
     4     4     3   ar
     5     4    25    1
     6     5     4   ar
     7     6     5   ar
     8     6    26    1
     9     7     6   ar
    10     8     7    1
    11     8    27    1
    12     9     8    2
    13    10     9    1
    14    11    10   ar
    15    12    11    1
    16    13    12    3
    17    14    11   ar
    18    15    14   ar
    19    16    15    1
    20    16    28    1
    21    16    29    1
    22    17    16    1
    23    17    30    1
    24    17    31    1
    25    18    17    1
    26    18    32    1
    27    18    33    1
    28    19    18    1
    29    19    14    1
    30    19    34    1
    31    19    35    1
    32    20    15   ar
    33    20    10   ar
    34    21     7   ar
    35    21    36    1
    36    22    21   ar
    37    22     5   ar
    38    23    22   ar
    39    23     2   ar
    40    23    37    1
