@<TRIPOS>MOLECULE
mol_387_akc_jbiopha201510028
>372.sdf
 26 27 0 0 0
SMALL
GASTEIGER

@<TRIPOS>ATOM
      1 C           0.8699    2.6480    0.4474 C.3     1  UNL1       -0.0649
      2 C           2.3895    2.6757    0.4154 C.3     1  UNL1       -0.0505
      3 C           2.9538    1.3993   -0.2103 C.3     1  UNL1       -0.0106
      4 C           4.4610    1.4112   -0.2526 C.ar    1  UNL1        0.0420
      5 N           5.1083    1.5087    0.9347 N.ar    1  UNL1       -0.2516
      6 C           6.4528    1.5061    0.9420 C.ar    1  UNL1        0.0713
      7 C           7.1311    1.6176    2.1485 C.ar    1  UNL1       -0.0357
      8 C           8.5279    1.6143    2.2101 C.ar    1  UNL1       -0.0597
      9 C           9.2720    1.4971    1.0416 C.ar    1  UNL1       -0.0611
     10 C           8.6170    1.3870   -0.1832 C.ar    1  UNL1       -0.0526
     11 C           7.2126    1.3925   -0.2396 C.ar    1  UNL1        0.0004
     12 C           6.5236    1.2857   -1.4528 C.ar    1  UNL1       -0.0509
     13 C           5.1336    1.2932   -1.4621 C.ar    1  UNL1       -0.0398
     14 H           0.4830    3.5666    0.8988 H       1  UNL1        0.0230
     15 H           0.4581    2.5653   -0.5634 H       1  UNL1        0.0230
     16 H           0.5072    1.8000    1.0372 H       1  UNL1        0.0230
     17 H           2.7249    3.5520   -0.1527 H       1  UNL1        0.0266
     18 H           2.7643    2.7984    1.4386 H       1  UNL1        0.0266
     19 H           2.6328    0.5211    0.3632 H       1  UNL1        0.0328
     20 H           2.5488    1.2802   -1.2228 H       1  UNL1        0.0328
     21 H           6.5544    1.7097    3.0657 H       1  UNL1        0.0639
     22 H           9.0274    1.7028    3.1713 H       1  UNL1        0.0618
     23 H          10.3579    1.4912    1.0829 H       1  UNL1        0.0618
     24 H           9.2052    1.2965   -1.0931 H       1  UNL1        0.0624
     25 H           7.0631    1.1941   -2.3917 H       1  UNL1        0.0625
     26 H           4.5938    1.2072   -2.3988 H       1  UNL1        0.0636
@<TRIPOS>BOND
     1     1    14    1
     2     1    15    1
     3     1    16    1
     4     2     1    1
     5     2    17    1
     6     2    18    1
     7     3     2    1
     8     3    19    1
     9     3    20    1
    10     4     3    1
    11     5     4   ar
    12     6     5   ar
    13     7     6   ar
    14     7    21    1
    15     8     7   ar
    16     8    22    1
    17     9     8   ar
    18     9    23    1
    19    10     9   ar
    20    10    24    1
    21    11    10   ar
    22    11     6   ar
    23    12    11   ar
    24    12    25    1
    25    13    12   ar
    26    13     4   ar
    27    13    26    1
