@<TRIPOS>MOLECULE
mol_389_akc_jparint201506011
>374.sdf
 47 51 0 0 0
SMALL
GASTEIGER

@<TRIPOS>ATOM
      1 C           4.6315    2.0736   -2.7695 C.3     1  UNL1       -0.0613
      2 C           4.0965    0.9129   -1.9317 C.3     1  UNL1       -0.0305
      3 C           3.1302    1.4444   -0.9028 C.ar    1  UNL1       -0.0472
      4 C           1.8019    1.7300   -1.2558 C.ar    1  UNL1       -0.0531
      5 C           1.0154    2.5582   -0.4460 C.ar    1  UNL1       -0.0185
      6 C           1.6099    3.1339    0.6968 C.ar    1  UNL1        0.0314
      7 N           1.0414    4.2455    1.3591 N.pl3   1  UNL1       -0.3350
      8 C           0.1760    5.0079    0.4451 C.3     1  UNL1        0.0668
      9 C          -0.9699    4.1248   -0.0430 C.3     1  UNL1       -0.0022
     10 C          -1.8342    3.4659    1.0546 C.3     1  UNL1       -0.0217
     11 C          -2.2896    2.2310    0.3465 C.ar    1  UNL1       -0.0432
     12 C          -3.3779    1.4279    0.6665 C.ar    1  UNL1       -0.0583
     13 C          -3.6656    0.3449   -0.1639 C.ar    1  UNL1       -0.0615
     14 C          -2.8668    0.0724   -1.2831 C.ar    1  UNL1       -0.0615
     15 C          -1.7532    0.8652   -1.5788 C.ar    1  UNL1       -0.0577
     16 C          -1.4643    1.9429   -0.7499 C.ar    1  UNL1       -0.0364
     17 C          -0.3741    2.9743   -0.9000 C.3     1  UNL1        0.0164
     18 C          -0.2080    6.3850    0.9664 C.ar    1  UNL1        0.0617
     19 N          -1.3287    6.9543    0.4491 N.ar    1  UNL1       -0.2580
     20 C          -1.5213    8.2740    0.6633 C.ar    1  UNL1        0.0279
     21 C          -0.6508    9.0726    1.3815 C.ar    1  UNL1       -0.0436
     22 C           0.4785    8.4812    1.9301 C.ar    1  UNL1       -0.0586
     23 C           0.7091    7.1242    1.7170 C.ar    1  UNL1       -0.0386
     24 C           2.8410    2.6676    1.1597 C.ar    1  UNL1       -0.0403
     25 C           3.6104    1.8373    0.3508 C.ar    1  UNL1       -0.0568
     26 H           5.0518    2.8659   -2.1374 H       1  UNL1        0.0233
     27 H           3.8340    2.5273   -3.3700 H       1  UNL1        0.0233
     28 H           5.4161    1.7338   -3.4506 H       1  UNL1        0.0233
     29 H           3.6043    0.1755   -2.5754 H       1  UNL1        0.0311
     30 H           4.9302    0.4003   -1.4373 H       1  UNL1        0.0311
     31 H           1.4175    1.3923   -2.2143 H       1  UNL1        0.0624
     32 H           0.5920    3.9614    2.2259 H       1  UNL1        0.1467
     33 H           0.7821    5.2706   -0.4386 H       1  UNL1        0.0566
     34 H          -1.6455    4.6982   -0.6940 H       1  UNL1        0.0335
     35 H          -2.6712    4.1127    1.3351 H       1  UNL1        0.0317
     36 H          -1.2844    3.1785    1.9522 H       1  UNL1        0.0317
     37 H          -4.0011    1.6476    1.5264 H       1  UNL1        0.0620
     38 H          -4.5249   -0.2863    0.0528 H       1  UNL1        0.0618
     39 H          -3.1231   -0.7610   -1.9338 H       1  UNL1        0.0618
     40 H          -1.1498    0.6570   -2.4546 H       1  UNL1        0.0621
     41 H          -0.3184    3.3181   -1.9416 H       1  UNL1        0.0401
     42 H          -2.4121    8.6903    0.2015 H       1  UNL1        0.0829
     43 H          -0.8392   10.1337    1.4959 H       1  UNL1        0.0633
     44 H           1.1984    9.0760    2.4844 H       1  UNL1        0.0619
     45 H           1.6256    6.6669    2.0787 H       1  UNL1        0.0636
     46 H           3.2631    3.0593    2.0804 H       1  UNL1        0.0636
     47 H           4.6239    1.5932    0.6588 H       1  UNL1        0.0621
@<TRIPOS>BOND
     1     1    26    1
     2     1    27    1
     3     1    28    1
     4     2     1    1
     5     2    29    1
     6     2    30    1
     7     3     2    1
     8     4     3   ar
     9     4    31    1
    10     5     4   ar
    11     6     5   ar
    12     7     6    1
    13     7    32    1
    14     8     7    1
    15     8    33    1
    16     9     8    1
    17     9    34    1
    18    10     9    1
    19    10    35    1
    20    10    36    1
    21    11    10    1
    22    12    11   ar
    23    12    37    1
    24    13    12   ar
    25    13    38    1
    26    14    13   ar
    27    14    39    1
    28    15    14   ar
    29    15    40    1
    30    16    15   ar
    31    16    11   ar
    32    17    16    1
    33    17     5    1
    34    17     9    1
    35    17    41    1
    36    18     8    1
    37    19    18   ar
    38    20    19   ar
    39    20    42    1
    40    21    20   ar
    41    21    43    1
    42    22    21   ar
    43    22    44    1
    44    23    22   ar
    45    23    18   ar
    46    23    45    1
    47    24     6   ar
    48    24    46    1
    49    25    24   ar
    50    25     3   ar
    51    25    47    1
