@<TRIPOS>MOLECULE
mol_38_akc_molecules21060802
>38.sdf
 48 50 0 0 0
SMALL
GASTEIGER

@<TRIPOS>ATOM
      1 C           3.4100    1.8729   -0.9089 C.3     1  UNL1        0.0790
      2 O           4.0820    0.7145   -0.4211 O.3     1  UNL1       -0.4913
      3 C           3.9507   -0.4397   -1.1515 C.ar    1  UNL1        0.1672
      4 C           3.6359   -0.4155   -2.5159 C.ar    1  UNL1        0.0094
      5 C           3.5472   -1.5974   -3.2611 C.ar    1  UNL1        0.0742
      6 C           3.7855   -2.8262   -2.6398 C.ar    1  UNL1        0.0094
      7 C           4.1599   -2.8639   -1.2916 C.ar    1  UNL1        0.1672
      8 O           4.4397   -4.0413   -0.6370 O.3     1  UNL1       -0.4913
      9 C           5.0363   -5.0580   -1.4371 C.3     1  UNL1        0.0790
     10 C           4.2181   -1.6746   -0.5306 C.ar    1  UNL1        0.2036
     11 O           4.6139   -1.8419    0.7761 O.3     1  UNL1       -0.4885
     12 C           4.0907   -0.9315    1.7331 C.3     1  UNL1        0.0791
     13 N           3.2537   -1.5495   -4.6433 N.ar    1  UNL1       -0.2193
     14 C           3.0776   -0.4372   -5.4352 C.ar    1  UNL1        0.0591
     15 C           2.8944   -0.9326   -6.7026 C.ar    1  UNL1        0.1131
     16 N           2.9412   -2.2968   -6.6634 N.ar    1  UNL1       -0.1292
     17 N           3.1487   -2.6658   -5.4050 N.ar    1  UNL1       -0.0602
     18 C           2.7511   -0.1435   -7.9076 C.ar    1  UNL1        0.0073
     19 C           3.1346   -0.6949   -9.1383 C.ar    1  UNL1       -0.0070
     20 C           3.0516    0.0430  -10.3306 C.ar    1  UNL1        0.1621
     21 O           3.4197   -0.4740  -11.5448 O.3     1  UNL1       -0.4914
     22 C           3.9238   -1.8037  -11.5862 C.3     1  UNL1        0.0790
     23 C           2.5745    1.3660  -10.2793 C.ar    1  UNL1        0.1615
     24 O           2.4250    2.2677  -11.2991 O.3     1  UNL1       -0.4915
     25 C           2.7837    1.8813  -12.6162 C.3     1  UNL1        0.0790
     26 C           2.1825    1.9075   -9.0466 C.ar    1  UNL1       -0.0157
     27 C           2.2652    1.1642   -7.8713 C.ar    1  UNL1       -0.0488
     28 H           3.9202    2.2815   -1.7877 H       1  UNL1        0.0660
     29 H           2.3574    1.6627   -1.1261 H       1  UNL1        0.0660
     30 H           3.4433    2.6366   -0.1264 H       1  UNL1        0.0660
     31 H           3.4830    0.5386   -3.0025 H       1  UNL1        0.0677
     32 H           3.6890   -3.7480   -3.2068 H       1  UNL1        0.0677
     33 H           4.2753   -5.5836   -2.0224 H       1  UNL1        0.0660
     34 H           5.8220   -4.6572   -2.0876 H       1  UNL1        0.0660
     35 H           5.5008   -5.7857   -0.7649 H       1  UNL1        0.0660
     36 H           4.6945   -0.0199    1.7692 H       1  UNL1        0.0660
     37 H           3.0327   -0.7077    1.5584 H       1  UNL1        0.0660
     38 H           4.1690   -1.4038    2.7172 H       1  UNL1        0.0660
     39 H           3.1437    0.5709   -5.0651 H       1  UNL1        0.0853
     40 H           3.5150   -1.7117   -9.1345 H       1  UNL1        0.0662
     41 H           4.8655   -1.8835  -11.0327 H       1  UNL1        0.0660
     42 H           3.1832   -2.5220  -11.2196 H       1  UNL1        0.0660
     43 H           4.1305   -2.0482  -12.6319 H       1  UNL1        0.0660
     44 H           3.8449    1.6233  -12.6826 H       1  UNL1        0.0660
     45 H           2.1368    1.0772  -12.9794 H       1  UNL1        0.0660
     46 H           2.6233    2.7464  -13.2664 H       1  UNL1        0.0660
     47 H           1.8072    2.9278   -9.0084 H       1  UNL1        0.0655
     48 H           1.9417    1.6242   -6.9418 H       1  UNL1        0.0625
@<TRIPOS>BOND
     1     1    28    1
     2     1    29    1
     3     1    30    1
     4     2     1    1
     5     3     2    1
     6     4     3   ar
     7     4    31    1
     8     5     4   ar
     9     6     5   ar
    10     6    32    1
    11     7     6   ar
    12     8     7    1
    13     9     8    1
    14     9    33    1
    15     9    34    1
    16     9    35    1
    17    10     7   ar
    18    10     3   ar
    19    11    10    1
    20    12    11    1
    21    12    36    1
    22    12    37    1
    23    12    38    1
    24    13     5    1
    25    14    13   ar
    26    14    39    1
    27    15    14   ar
    28    16    15   ar
    29    17    16   ar
    30    17    13   ar
    31    18    15    1
    32    19    18   ar
    33    19    40    1
    34    20    19   ar
    35    21    20    1
    36    22    21    1
    37    22    41    1
    38    22    42    1
    39    22    43    1
    40    23    20   ar
    41    24    23    1
    42    25    24    1
    43    25    44    1
    44    25    45    1
    45    25    46    1
    46    26    23   ar
    47    26    47    1
    48    27    26   ar
    49    27    18   ar
    50    27    48    1
