@<TRIPOS>MOLECULE
mol_390_akc_s00436_015_4708_4
>375.sdf
 67 72 0 0 0
SMALL
GASTEIGER

@<TRIPOS>ATOM
      1 C           5.6879    1.2133   -8.9002 C.3     1  UNL1        0.0791
      2 O           6.0105   -0.1729   -8.8466 O.3     1  UNL1       -0.4883
      3 C           5.6878   -0.8330   -7.6672 C.ar    1  UNL1        0.2107
      4 C           6.4299   -1.8684   -7.2395 C.ar    1  UNL1        0.1810
      5 O           6.1731   -2.6252   -6.1133 O.2     1  UNL1       -0.4502
      6 C           5.2326   -2.1916   -5.2050 C.ar    1  UNL1        0.1509
      7 C           5.2438   -2.7904   -3.9140 C.ar    1  UNL1        0.0296
      8 C           4.2775   -2.3095   -3.0101 C.ar    1  UNL1       -0.0469
      9 C           3.3078   -1.3723   -3.3680 C.ar    1  UNL1       -0.0187
     10 C           3.3413   -0.7940   -4.6283 C.ar    1  UNL1        0.1314
     11 O           2.4221    0.1699   -4.9211 O.3     1  UNL1       -0.5059
     12 C           4.3250   -1.1740   -5.5481 C.ar    1  UNL1        0.1095
     13 C           4.4706   -0.4991   -6.8635 C.ar    1  UNL1        0.2381
     14 O           3.6451    0.3088   -7.2702 O.2     1  UNL1       -0.2830
     15 C           6.2303   -3.8464   -3.4703 C.ar    1  UNL1        0.0415
     16 C           7.6106   -3.7699   -3.7821 C.ar    1  UNL1        0.1669
     17 O           8.2217   -2.7118   -4.4171 O.3     1  UNL1       -0.5029
     18 C           8.5154   -4.7778   -3.4237 C.ar    1  UNL1        0.1589
     19 O           9.8199   -4.6875   -3.8274 O.3     1  UNL1       -0.5033
     20 C           8.1247   -5.8660   -2.6743 C.ar    1  UNL1       -0.0158
     21 C           6.7934   -5.9600   -2.2885 C.ar    1  UNL1       -0.0467
     22 C           5.8432   -4.9866   -2.6838 C.ar    1  UNL1        0.0326
     23 C           4.4495   -5.2679   -2.2521 C.ar    1  UNL1        0.1815
     24 C           3.5960   -5.9405   -3.0445 C.ar    1  UNL1        0.2107
     25 O           4.0611   -6.4783   -4.2373 O.3     1  UNL1       -0.4883
     26 C           3.1209   -6.6737   -5.2821 C.3     1  UNL1        0.0791
     27 C           2.1911   -6.1112   -2.5515 C.ar    1  UNL1        0.2381
     28 O           1.3543   -6.7407   -3.1960 O.2     1  UNL1       -0.2830
     29 C           1.8456   -5.4768   -1.2561 C.ar    1  UNL1        0.1092
     30 C           0.5434   -5.4648   -0.7218 C.ar    1  UNL1        0.1348
     31 O          -0.4964   -6.0413   -1.3954 O.3     1  UNL1       -0.5058
     32 C           0.2749   -4.8457    0.5038 C.ar    1  UNL1        0.0223
     33 C           1.3129   -4.2320    1.1948 C.ar    1  UNL1        0.1239
     34 O           1.0998   -3.6039    2.3857 O.3     1  UNL1       -0.5065
     35 C           2.6058   -4.2338    0.6851 C.ar    1  UNL1        0.0231
     36 C           2.8686   -4.8568   -0.5394 C.ar    1  UNL1        0.1465
     37 O           4.1650   -4.8010   -0.9823 O.2     1  UNL1       -0.4506
     38 C           7.6108   -2.3415   -7.9835 C.ar    1  UNL1        0.0247
     39 C           7.4602   -3.3585   -8.9409 C.ar    1  UNL1       -0.0473
     40 C           8.5634   -3.8487   -9.6472 C.ar    1  UNL1       -0.0159
     41 C           9.8208   -3.3177   -9.3913 C.ar    1  UNL1        0.1583
     42 O          10.9379   -3.7596  -10.0431 O.3     1  UNL1       -0.5033
     43 C           9.9773   -2.3071   -8.4458 C.ar    1  UNL1        0.1589
     44 O          11.2219   -1.7976   -8.2015 O.3     1  UNL1       -0.5033
     45 C           8.8855   -1.8097   -7.7408 C.ar    1  UNL1       -0.0057
     46 H           4.6231    1.3649   -9.0952 H       1  UNL1        0.0660
     47 H           6.0071    1.7383   -7.9935 H       1  UNL1        0.0660
     48 H           6.2270    1.6478   -9.7479 H       1  UNL1        0.0660
     49 H           4.2669   -2.6472   -1.9790 H       1  UNL1        0.0626
     50 H           2.5594   -1.0854   -2.6340 H       1  UNL1        0.0654
     51 H           1.7757    0.2598   -4.2033 H       1  UNL1        0.2922
     52 H           7.5446   -2.0807   -4.7021 H       1  UNL1        0.2923
     53 H           9.8454   -3.8794   -4.3814 H       1  UNL1        0.2923
     54 H           8.8462   -6.6269   -2.3949 H       1  UNL1        0.0655
     55 H           6.4863   -6.8165   -1.6901 H       1  UNL1        0.0626
     56 H           2.4716   -7.5290   -5.0788 H       1  UNL1        0.0660
     57 H           2.5477   -5.7616   -5.4738 H       1  UNL1        0.0660
     58 H           3.6856   -6.9154   -6.1879 H       1  UNL1        0.0660
     59 H          -1.3077   -6.0273   -0.8644 H       1  UNL1        0.2922
     60 H          -0.7325   -4.8343    0.9057 H       1  UNL1        0.0691
     61 H           0.1681   -3.7074    2.6461 H       1  UNL1        0.2921
     62 H           3.4044   -3.7453    1.2378 H       1  UNL1        0.0691
     63 H           6.4758   -3.7769   -9.1370 H       1  UNL1        0.0626
     64 H           8.4187   -4.6360  -10.3794 H       1  UNL1        0.0655
     65 H          10.6714   -4.4682  -10.6538 H       1  UNL1        0.2923
     66 H          11.8101   -2.2980   -8.8006 H       1  UNL1        0.2923
     67 H           9.0409   -1.0224   -7.0090 H       1  UNL1        0.0662
@<TRIPOS>BOND
     1     1    46    1
     2     1    47    1
     3     1    48    1
     4     2     1    1
     5     3     2    1
     6     4     3   ar
     7     5     4   ar
     8     6     5   ar
     9     7     6   ar
    10     8     7   ar
    11     8    49    1
    12     9     8   ar
    13     9    50    1
    14    10     9   ar
    15    11    10    1
    16    11    51    1
    17    12    10   ar
    18    12     6   ar
    19    13    12   ar
    20    13     3   ar
    21    14    13    2
    22    15     7    1
    23    16    15   ar
    24    17    16    1
    25    17    52    1
    26    18    16   ar
    27    19    18    1
    28    19    53    1
    29    20    18   ar
    30    20    54    1
    31    21    20   ar
    32    21    55    1
    33    22    21   ar
    34    22    15   ar
    35    23    22    1
    36    24    23   ar
    37    25    24    1
    38    26    25    1
    39    26    56    1
    40    26    57    1
    41    26    58    1
    42    27    24   ar
    43    28    27    2
    44    29    27   ar
    45    30    29   ar
    46    31    30    1
    47    31    59    1
    48    32    30   ar
    49    32    60    1
    50    33    32   ar
    51    34    33    1
    52    34    61    1
    53    35    33   ar
    54    35    62    1
    55    36    35   ar
    56    36    29   ar
    57    37    36   ar
    58    37    23   ar
    59    38     4    1
    60    39    38   ar
    61    39    63    1
    62    40    39   ar
    63    40    64    1
    64    41    40   ar
    65    42    41    1
    66    42    65    1
    67    43    41   ar
    68    44    43    1
    69    44    66    1
    70    45    43   ar
    71    45    38   ar
    72    45    67    1
