@<TRIPOS>MOLECULE
mol_391_akc_jejmech201509002
>376.sdf
 46 49 0 0 0
SMALL
GASTEIGER

@<TRIPOS>ATOM
      1 F           0.6541   -4.3045   -2.3240 F       1  UNL1       -0.2055
      2 C          -0.4245   -3.5963   -1.9670 C.ar    1  UNL1        0.1234
      3 C          -0.5410   -2.2757   -2.3760 C.ar    1  UNL1       -0.0258
      4 C          -1.6688   -1.5386   -2.0017 C.ar    1  UNL1       -0.0498
      5 C          -2.7098   -2.1271   -1.2641 C.ar    1  UNL1        0.0031
      6 C          -2.5461   -3.4541   -0.8316 C.ar    1  UNL1       -0.0498
      7 C          -1.4045   -4.1866   -1.1822 C.ar    1  UNL1       -0.0258
      8 C          -3.9286   -1.4006   -0.9254 C.ar    1  UNL1        0.1033
      9 C          -4.6385   -0.4833   -1.6948 C.ar    1  UNL1        0.1126
     10 I          -4.3472    0.0924   -3.6513 I       1  UNL1       -0.0212
     11 N          -5.7102   -0.1100   -0.9207 N.ar    1  UNL1       -0.2900
     12 C          -6.7662    0.7615   -1.1218 C.ar    1  UNL1        0.0304
     13 C          -7.7424    0.7937   -0.2050 C.ar    1  UNL1        0.0463
     14 N          -7.7845   -0.0261    0.9110 N.ar    1  UNL1       -0.2354
     15 C          -6.7608   -0.8127    1.1558 C.ar    1  UNL1        0.1623
     16 N          -6.7974   -1.6374    2.2690 N.pl3   1  UNL1       -0.3211
     17 C          -8.0033   -1.7357    3.0781 C.3     1  UNL1        0.0506
     18 C          -9.0149   -2.6450    2.3414 C.3     1  UNL1       -0.0159
     19 N          -8.3474   -3.9620    1.9278 N.4     1  UNL1        0.2396
     20 C          -7.9560   -4.8290    3.1149 C.3     1  UNL1       -0.0078
     21 C          -7.3776   -6.1646    2.6419 C.3     1  UNL1        0.0878
     22 O          -8.3039   -6.8474    1.7945 O.3     1  UNL1       -0.3693
     23 C          -8.5712   -6.0930    0.6082 C.3     1  UNL1        0.0878
     24 C          -9.2148   -4.7428    0.9467 C.3     1  UNL1       -0.0078
     25 C          -5.6533   -0.8615    0.2180 C.ar    1  UNL1        0.1794
     26 N          -4.6033   -1.6512    0.2641 N.ar    1  UNL1       -0.2234
     27 H           0.2412   -1.8257   -2.9782 H       1  UNL1        0.0646
     28 H          -1.7065   -0.4915   -2.2958 H       1  UNL1        0.0625
     29 H          -3.3084   -3.9280   -0.2223 H       1  UNL1        0.0625
     30 H          -1.2771   -5.2129   -0.8522 H       1  UNL1        0.0646
     31 H          -6.7689    1.3906   -2.0026 H       1  UNL1        0.0829
     32 H          -8.5793    1.4830   -0.3191 H       1  UNL1        0.0845
     33 H          -5.9043   -1.6687    2.7609 H       1  UNL1        0.1478
     34 H          -7.7512   -2.1689    4.0513 H       1  UNL1        0.0514
     35 H          -8.4453   -0.7536    3.2814 H       1  UNL1        0.0514
     36 H          -9.8858   -2.8865    2.9590 H       1  UNL1        0.0830
     37 H          -9.3509   -2.1727    1.4126 H       1  UNL1        0.0830
     38 H          -7.4776   -3.6784    1.4420 H       1  UNL1        0.2036
     39 H          -8.8683   -4.9809    3.7010 H       1  UNL1        0.0837
     40 H          -7.2120   -4.2843    3.7009 H       1  UNL1        0.0837
     41 H          -7.1822   -6.8046    3.5082 H       1  UNL1        0.0613
     42 H          -6.4292   -6.0243    2.1104 H       1  UNL1        0.0613
     43 H          -7.6411   -5.9642    0.0428 H       1  UNL1        0.0613
     44 H          -9.2566   -6.6830   -0.0085 H       1  UNL1        0.0613
     45 H          -9.3371   -4.1291    0.0492 H       1  UNL1        0.0837
     46 H         -10.1812   -4.8901    1.4410 H       1  UNL1        0.0837
@<TRIPOS>UNITY_ATOM_ATTR
19 1
charge 1
@<TRIPOS>BOND
     1     2     1    1
     2     3     2   ar
     3     3    27    1
     4     4     3   ar
     5     4    28    1
     6     5     4   ar
     7     6     5   ar
     8     6    29    1
     9     7     6   ar
    10     7     2   ar
    11     7    30    1
    12     8     5    1
    13     9     8   ar
    14    10     9    1
    15    11     9   ar
    16    12    11   ar
    17    12    31    1
    18    13    12   ar
    19    13    32    1
    20    14    13   ar
    21    15    14   ar
    22    16    15    1
    23    16    33    1
    24    17    16    1
    25    17    34    1
    26    17    35    1
    27    18    17    1
    28    18    36    1
    29    18    37    1
    30    19    18    1
    31    19    38    1
    32    20    19    1
    33    20    39    1
    34    20    40    1
    35    21    20    1
    36    21    41    1
    37    21    42    1
    38    22    21    1
    39    23    22    1
    40    23    43    1
    41    23    44    1
    42    24    23    1
    43    24    19    1
    44    24    45    1
    45    24    46    1
    46    25    15   ar
    47    25    11   ar
    48    26    25   ar
    49    26     8   ar
