@<TRIPOS>MOLECULE
mol_392_akc_jejmech201509002
>377.sdf
 41 44 0 0 0
SMALL
GASTEIGER

@<TRIPOS>ATOM
      1 C           1.2988    0.8179   -0.7175 C.3     1  UNL1        0.0018
      2 N           2.3918    0.1009   -0.0752 N.pl3   1  UNL1       -0.3184
      3 C           2.5497    0.3486    1.3499 C.3     1  UNL1        0.0018
      4 C           3.0791   -0.9261   -0.7272 C.ar    1  UNL1        0.1642
      5 N           2.7413   -1.2073   -1.9738 N.ar    1  UNL1       -0.2353
      6 C           3.3612   -2.2336   -2.6437 C.ar    1  UNL1        0.0463
      7 C           4.3250   -3.0056   -2.1153 C.ar    1  UNL1        0.0300
      8 N           4.7573   -2.7347   -0.8288 N.ar    1  UNL1       -0.2945
      9 C           4.1610   -1.7245   -0.1160 C.ar    1  UNL1        0.1793
     10 N           4.6625   -1.6105    1.0951 N.ar    1  UNL1       -0.2239
     11 C           5.6521   -2.5677    1.1653 C.ar    1  UNL1        0.0978
     12 C           5.7348   -3.3127   -0.0188 C.ar    1  UNL1        0.0812
     13 C           6.5677   -4.4707   -0.4020 C.ar    1  UNL1        0.0038
     14 C           6.8378   -5.4933    0.5128 C.ar    1  UNL1       -0.0344
     15 C           7.6806   -6.5299    0.1402 C.ar    1  UNL1        0.0282
     16 N           8.2171   -6.6528   -1.0890 N.ar    1  UNL1       -0.2632
     17 C           7.9259   -5.6782   -1.9724 C.ar    1  UNL1        0.0282
     18 C           7.1457   -4.5717   -1.6710 C.ar    1  UNL1       -0.0344
     19 C           6.4266   -2.7496    2.3909 C.ar    1  UNL1        0.0026
     20 C           5.7920   -2.5838    3.6344 C.ar    1  UNL1       -0.0498
     21 C           6.4757   -2.8443    4.8254 C.ar    1  UNL1       -0.0258
     22 C           7.7952   -3.2720    4.7754 C.ar    1  UNL1        0.1234
     23 F           8.4397   -3.5676    5.9126 F       1  UNL1       -0.2055
     24 C           8.4583   -3.4007    3.5622 C.ar    1  UNL1       -0.0258
     25 C           7.7828   -3.1093    2.3726 C.ar    1  UNL1       -0.0498
     26 H           0.3423    0.5337   -0.2659 H       1  UNL1        0.0428
     27 H           1.4347    1.8973   -0.5892 H       1  UNL1        0.0428
     28 H           1.2275    0.6347   -1.7937 H       1  UNL1        0.0428
     29 H           2.3175   -0.5524    1.9272 H       1  UNL1        0.0428
     30 H           3.5669    0.6811    1.5761 H       1  UNL1        0.0428
     31 H           1.8710    1.1362    1.6971 H       1  UNL1        0.0428
     32 H           3.0159   -2.4079   -3.6586 H       1  UNL1        0.0845
     33 H           4.7642   -3.8209   -2.6658 H       1  UNL1        0.0829
     34 H           6.4322   -5.4836    1.5190 H       1  UNL1        0.0639
     35 H           7.9582   -7.3058    0.8485 H       1  UNL1        0.0830
     36 H           8.3549   -5.8075   -2.9620 H       1  UNL1        0.0830
     37 H           7.0140   -3.8074   -2.4286 H       1  UNL1        0.0639
     38 H           4.7509   -2.2643    3.6761 H       1  UNL1        0.0625
     39 H           5.9833   -2.7285    5.7834 H       1  UNL1        0.0646
     40 H           9.4916   -3.7333    3.5438 H       1  UNL1        0.0646
     41 H           8.3240   -3.1946    1.4339 H       1  UNL1        0.0625
@<TRIPOS>BOND
     1     1    26    1
     2     1    27    1
     3     1    28    1
     4     2     1    1
     5     3     2    1
     6     3    29    1
     7     3    30    1
     8     3    31    1
     9     4     2    1
    10     5     4   ar
    11     6     5   ar
    12     6    32    1
    13     7     6   ar
    14     7    33    1
    15     8     7   ar
    16     9     8   ar
    17     9     4   ar
    18    10     9   ar
    19    11    10   ar
    20    12    11   ar
    21    12     8   ar
    22    13    12    1
    23    14    13   ar
    24    14    34    1
    25    15    14   ar
    26    15    35    1
    27    16    15   ar
    28    17    16   ar
    29    17    36    1
    30    18    17   ar
    31    18    13   ar
    32    18    37    1
    33    19    11    1
    34    20    19   ar
    35    20    38    1
    36    21    20   ar
    37    21    39    1
    38    22    21   ar
    39    23    22    1
    40    24    22   ar
    41    24    40    1
    42    25    24   ar
    43    25    19   ar
    44    25    41    1
