@<TRIPOS>MOLECULE
mol_394_akc_jbiopha201508030
>379.sdf
 39 40 0 0 0
SMALL
GASTEIGER

@<TRIPOS>ATOM
      1 C           3.6104    1.2743   -2.0573 C.3     1  UNL1       -0.0596
      2 C           2.6541    0.1245   -1.7413 C.3     1  UNL1       -0.0124
      3 C           2.3657   -0.6841   -3.0067 C.3     1  UNL1       -0.0596
      4 C           3.1920   -0.7748   -0.6173 C.3     1  UNL1        0.0919
      5 O           4.4765   -1.3015   -0.9643 O.3     1  UNL1       -0.4916
      6 C           5.1280   -1.9663    0.0413 C.ar    1  UNL1        0.1240
      7 C           4.4948   -2.6756    1.0637 C.ar    1  UNL1       -0.0190
      8 C           5.2499   -3.3336    2.0404 C.ar    1  UNL1       -0.0439
      9 C           6.6489   -3.3062    1.9900 C.ar    1  UNL1        0.0638
     10 C           7.4713   -4.0072    3.0110 C.2     1  UNL1        0.1966
     11 O           8.5951   -3.5714    3.2619 O.2     1  UNL1       -0.2865
     12 C           6.9912   -5.2218    3.7140 C.ar    1  UNL1        0.0226
     13 C           7.3192   -5.3880    5.0658 C.ar    1  UNL1       -0.0475
     14 C           6.8890   -6.5240    5.7568 C.ar    1  UNL1       -0.0195
     15 C           6.1448   -7.4899    5.0857 C.ar    1  UNL1        0.1169
     16 O           5.7031   -8.6136    5.7176 O.3     1  UNL1       -0.5068
     17 C           5.8324   -7.3449    3.7380 C.ar    1  UNL1       -0.0195
     18 C           6.2649   -6.2139    3.0440 C.ar    1  UNL1       -0.0475
     19 C           7.2765   -2.5775    0.9707 C.ar    1  UNL1        0.1311
     20 O           8.6385   -2.4558    0.8799 O.3     1  UNL1       -0.5059
     21 C           6.5230   -1.9323   -0.0100 C.ar    1  UNL1        0.0222
     22 H           3.1752    1.9406   -2.8097 H       1  UNL1        0.0233
     23 H           3.8107    1.8695   -1.1603 H       1  UNL1        0.0233
     24 H           4.5676    0.9108   -2.4459 H       1  UNL1        0.0233
     25 H           1.7059    0.5550   -1.3956 H       1  UNL1        0.0328
     26 H           3.2777   -1.1218   -3.4242 H       1  UNL1        0.0233
     27 H           1.6641   -1.4987   -2.7944 H       1  UNL1        0.0233
     28 H           1.9131   -0.0488   -3.7757 H       1  UNL1        0.0233
     29 H           3.2710   -0.1849    0.3052 H       1  UNL1        0.0699
     30 H           2.4806   -1.5935   -0.4603 H       1  UNL1        0.0699
     31 H           3.4132   -2.7464    1.1198 H       1  UNL1        0.0654
     32 H           4.7230   -3.8553    2.8358 H       1  UNL1        0.0627
     33 H           7.9092   -4.6327    5.5820 H       1  UNL1        0.0626
     34 H           7.1456   -6.6369    6.8054 H       1  UNL1        0.0654
     35 H           6.0294   -8.6077    6.6330 H       1  UNL1        0.2921
     36 H           5.2635   -8.1171    3.2274 H       1  UNL1        0.0654
     37 H           6.0411   -6.1304    1.9838 H       1  UNL1        0.0626
     38 H           9.0243   -2.7839    1.7257 H       1  UNL1        0.2922
     39 H           7.0253   -1.3839   -0.8023 H       1  UNL1        0.0691
@<TRIPOS>BOND
     1     1    22    1
     2     1    23    1
     3     1    24    1
     4     2     1    1
     5     2    25    1
     6     3     2    1
     7     3    26    1
     8     3    27    1
     9     3    28    1
    10     4     2    1
    11     4    29    1
    12     4    30    1
    13     5     4    1
    14     6     5    1
    15     7     6   ar
    16     7    31    1
    17     8     7   ar
    18     8    32    1
    19     9     8   ar
    20    10     9    1
    21    11    10    2
    22    12    10    1
    23    13    12   ar
    24    13    33    1
    25    14    13   ar
    26    14    34    1
    27    15    14   ar
    28    16    15    1
    29    16    35    1
    30    17    15   ar
    31    17    36    1
    32    18    17   ar
    33    18    12   ar
    34    18    37    1
    35    19     9   ar
    36    20    19    1
    37    20    38    1
    38    21    19   ar
    39    21     6   ar
    40    21    39    1
