@<TRIPOS>MOLECULE
mol_395_akc_cbdd12540
>380.sdf
 31 33 0 0 0
SMALL
GASTEIGER

@<TRIPOS>ATOM
      1 CL          3.2408    0.6765   -0.0014 Cl      1  UNL1       -0.0835
      2 C           1.6234    0.0888   -0.0041 C.ar    1  UNL1        0.0430
      3 C           1.3860   -1.2791    0.0229 C.ar    1  UNL1       -0.0426
      4 C           0.0710   -1.7446    0.0258 C.ar    1  UNL1       -0.0494
      5 C          -1.0184   -0.8428    0.0003 C.ar    1  UNL1        0.0228
      6 C          -2.3770   -1.2466    0.0291 C.ar    1  UNL1        0.0549
      7 N          -2.7318   -2.6372    0.0291 N.pl3   1  UNL1       -0.2659
      8 N          -3.9938   -2.9940    0.4720 N.pl3   1  UNL1       -0.2666
      9 C          -4.4692   -4.3290    0.4766 C.ar    1  UNL1        0.0443
     10 C          -3.6439   -5.4410    0.2888 C.ar    1  UNL1       -0.0394
     11 C          -4.1724   -6.7333    0.3728 C.ar    1  UNL1       -0.0600
     12 C          -5.5280   -6.9250    0.6304 C.ar    1  UNL1       -0.0616
     13 C          -6.3642   -5.8243    0.8006 C.ar    1  UNL1       -0.0600
     14 C          -5.8343   -4.5359    0.7257 C.ar    1  UNL1       -0.0394
     15 C          -3.3749   -0.2695   -0.0164 C.ar    1  UNL1       -0.0206
     16 C          -3.0015    1.0588   -0.0459 C.ar    1  UNL1        0.0301
     17 N          -1.7221    1.4749   -0.0469 N.ar    1  UNL1       -0.2548
     18 C          -0.7529    0.5480   -0.0268 C.ar    1  UNL1        0.0741
     19 C           0.5614    0.9878   -0.0288 C.ar    1  UNL1       -0.0173
     20 H           2.2126   -1.9840    0.0493 H       1  UNL1        0.0632
     21 H          -0.1057   -2.8167    0.0674 H       1  UNL1        0.0625
     22 H          -2.5590   -2.9837   -0.9221 H       1  UNL1        0.1699
     23 H          -4.1832   -2.6164    1.4074 H       1  UNL1        0.1699
     24 H          -2.5797   -5.3136    0.1132 H       1  UNL1        0.0636
     25 H          -3.5193   -7.5943    0.2504 H       1  UNL1        0.0618
     26 H          -5.9350   -7.9308    0.7050 H       1  UNL1        0.0618
     27 H          -7.4243   -5.9657    0.9945 H       1  UNL1        0.0618
     28 H          -6.4957   -3.6826    0.8559 H       1  UNL1        0.0636
     29 H          -4.4264   -0.5315   -0.0407 H       1  UNL1        0.0652
     30 H          -3.7477    1.8469   -0.0734 H       1  UNL1        0.0830
     31 H           0.7535    2.0580   -0.0446 H       1  UNL1        0.0653
@<TRIPOS>BOND
     1     2     1    1
     2     3     2   ar
     3     3    20    1
     4     4     3   ar
     5     4    21    1
     6     5     4   ar
     7     6     5   ar
     8     7     6    1
     9     7    22    1
    10     8     7    1
    11     8    23    1
    12     9     8    1
    13    10     9   ar
    14    10    24    1
    15    11    10   ar
    16    11    25    1
    17    12    11   ar
    18    12    26    1
    19    13    12   ar
    20    13    27    1
    21    14    13   ar
    22    14     9   ar
    23    14    28    1
    24    15     6   ar
    25    15    29    1
    26    16    15   ar
    27    16    30    1
    28    17    16   ar
    29    18    17   ar
    30    18     5   ar
    31    19    18   ar
    32    19     2   ar
    33    19    31    1
