@<TRIPOS>MOLECULE
mol_396_akc_aac00997_15
>381.sdf
 29 30 0 0 0
SMALL
GASTEIGER

@<TRIPOS>ATOM
      1 C           1.0241    1.6074    3.2505 C.3     1  UNL1        0.0000
      2 SE          2.2077    2.6563    2.0903 Se      1  UNL1        0.0000
      3 C           3.3903    1.2359    1.3925 C.2     1  UNL1        0.0000
      4 N           2.9464    0.2718    0.4097 N.am    1  UNL1        0.0000
      5 C           1.6635    0.1271   -0.0377 C.2     1  UNL1        0.0000
      6 O           0.7733    0.8416    0.3874 O.2     1  UNL1        0.0000
      7 C           1.2818   -0.8995   -1.0419 C.ar    1  UNL1        0.0000
      8 C           2.0962   -1.7888   -1.7416 C.ar    1  UNL1        0.0000
      9 C           1.3812   -2.6219   -2.6197 C.ar    1  UNL1        0.0000
     10 C           0.0117   -2.3973   -2.6137 C.ar    1  UNL1        0.0000
     11 S          -0.3120   -1.1629   -1.5269 S.2     1  UNL1        0.0000
     12 N           4.6536    1.2385    1.6995 N.am    1  UNL1        0.0000
     13 C           5.2994    2.0653    2.6727 C.2     1  UNL1        0.0000
     14 O           4.6923    2.4529    3.6616 O.2     1  UNL1        0.0000
     15 C           6.7349    2.4064    2.5295 C.ar    1  UNL1        0.0000
     16 C           7.5088    3.0702    3.4811 C.ar    1  UNL1        0.0000
     17 C           8.8304    3.2883    3.0692 C.ar    1  UNL1        0.0000
     18 C           9.1023    2.8082    1.7955 C.ar    1  UNL1        0.0000
     19 S           7.7025    2.0951    1.1834 S.2     1  UNL1        0.0000
     20 H           0.0857    1.3385    2.7215 H       1  UNL1        0.0000
     21 H           1.5243    0.7030    3.6483 H       1  UNL1        0.0000
     22 H           0.7490    2.2407    4.1211 H       1  UNL1        0.0000
     23 H           3.6676   -0.3625    0.0345 H       1  UNL1        0.0000
     24 H           3.1712   -1.8482   -1.6386 H       1  UNL1        0.0000
     25 H           1.8480   -3.3711   -3.2455 H       1  UNL1        0.0000
     26 H          -0.7231   -2.9249   -3.2072 H       1  UNL1        0.0000
     27 H           7.1353    3.3843    4.4440 H       1  UNL1        0.0000
     28 H           9.5679    3.7883    3.6848 H       1  UNL1        0.0000
     29 H          10.0560    2.8840    1.2884 H       1  UNL1        0.0000
@<TRIPOS>BOND
     1     1    20    1
     2     1    21    1
     3     1    22    1
     4     2     1    1
     5     3     2    1
     6     4     3    1
     7     4    23    1
     8     5     4   am
     9     6     5    2
    10     7     5    1
    11     8     7   ar
    12     8    24    1
    13     9     8   ar
    14     9    25    1
    15    10     9   ar
    16    10    26    1
    17    11    10   ar
    18    11     7   ar
    19    12     3    2
    20    13    12    1
    21    14    13    2
    22    15    13    1
    23    16    15   ar
    24    16    27    1
    25    17    16   ar
    26    17    28    1
    27    18    17   ar
    28    18    29    1
    29    19    18   ar
    30    19    15   ar
