@<TRIPOS>MOLECULE
mol_397_akc_aac00997_15
>382.sdf
 33 34 0 0 0
SMALL
GASTEIGER

@<TRIPOS>ATOM
      1 C           1.1369   -3.4103    1.4922 C.3     1  UNL1        0.0000
      2 SE          2.2054   -2.2004    2.6102 Se      1  UNL1        0.0000
      3 C           3.4411   -1.3914    1.2909 C.2     1  UNL1        0.0000
      4 N           3.0209   -0.3742    0.3552 N.am    1  UNL1        0.0000
      5 C           1.7274    0.0040    0.1154 C.2     1  UNL1        0.0000
      6 O           0.8112   -0.5221    0.7205 O.2     1  UNL1        0.0000
      7 C           1.3619    1.0381   -0.8914 C.ar    1  UNL1        0.0000
      8 C           2.1842    1.8497   -1.6883 C.ar    1  UNL1        0.0000
      9 C           1.4504    2.7150   -2.5453 C.ar    1  UNL1        0.0000
     10 C           0.0713    2.5762   -2.4217 C.ar    1  UNL1        0.0000
     11 S          -0.2406    1.4089   -1.2660 S.2     1  UNL1        0.0000
     12 N           2.0494    3.6356   -3.4474 N.pl3   1  UNL1        0.0000
     13 O           3.2361    3.7270   -3.5280 O.2     1  UNL1        0.0000
     14 O           1.3654    4.3340   -4.1387 O.2     1  UNL1        0.0000
     15 N           4.7149   -1.6448    1.3531 N.am    1  UNL1        0.0000
     16 C           5.3646   -2.6349    2.1604 C.2     1  UNL1        0.0000
     17 O           4.7785   -3.6599    2.4755 O.2     1  UNL1        0.0000
     18 C           6.7875   -2.4725    2.5455 C.ar    1  UNL1        0.0000
     19 C           7.5917   -3.4451    3.1464 C.ar    1  UNL1        0.0000
     20 C           8.8983   -3.0029    3.4093 C.ar    1  UNL1        0.0000
     21 C           9.1277   -1.6811    3.0304 C.ar    1  UNL1        0.0000
     22 S           7.7063   -1.0762    2.3491 S.2     1  UNL1        0.0000
     23 N           9.9063   -3.8265    4.0022 N.pl3   1  UNL1        0.0000
     24 O           9.6698   -4.9617    4.2791 O.2     1  UNL1        0.0000
     25 O          11.0023   -3.3916    4.2008 O.2     1  UNL1        0.0000
     26 H           0.2375   -2.9025    1.0862 H       1  UNL1        0.0000
     27 H           1.7313   -3.8847    0.6876 H       1  UNL1        0.0000
     28 H           0.7737   -4.2317    2.1483 H       1  UNL1        0.0000
     29 H           3.7626    0.0827   -0.1950 H       1  UNL1        0.0000
     30 H           3.2654    1.8281   -1.6570 H       1  UNL1        0.0000
     31 H          -0.6775    3.1280   -2.9754 H       1  UNL1        0.0000
     32 H           7.2415   -4.4429    3.3789 H       1  UNL1        0.0000
     33 H          10.0541   -1.1353    3.1443 H       1  UNL1        0.0000
@<TRIPOS>BOND
     1     1    26    1
     2     1    27    1
     3     1    28    1
     4     2     1    1
     5     3     2    1
     6     4     3    1
     7     4    29    1
     8     5     4   am
     9     6     5    2
    10     7     5    1
    11     8     7   ar
    12     8    30    1
    13     9     8   ar
    14    10     9   ar
    15    10    31    1
    16    11    10   ar
    17    11     7   ar
    18    12     9    1
    19    13    12    2
    20    14    12    2
    21    15     3    2
    22    16    15    1
    23    17    16    2
    24    18    16    1
    25    19    18   ar
    26    19    32    1
    27    20    19   ar
    28    21    20   ar
    29    21    33    1
    30    22    21   ar
    31    22    18   ar
    32    23    20    1
    33    24    23    2
    34    25    23    2
