@<TRIPOS>MOLECULE
mol_398_akc_jactatropica201504028
>383.sdf
 34 36 0 0 0
SMALL
GASTEIGER

@<TRIPOS>ATOM
      1 C          -2.3896   -1.3835   -0.0569 C.3     1  UNL1        0.0310
      2 N          -1.4540   -0.2830   -0.0435 N.ar    1  UNL1       -0.2633
      3 N          -1.9180    0.9801   -0.0469 N.ar    1  UNL1       -0.1326
      4 C          -0.8112    1.7191   -0.0249 C.ar    1  UNL1        0.2420
      5 O          -1.0102    3.0526    0.0329 O.3     1  UNL1       -0.4702
      6 C           0.0941    3.7644    0.5817 C.3     1  UNL1        0.1163
      7 C          -0.3592    5.0965    1.1094 C.ar    1  UNL1       -0.0103
      8 C          -1.3872    5.1510    2.0593 C.ar    1  UNL1       -0.0554
      9 C          -1.7905    6.3734    2.5871 C.ar    1  UNL1       -0.0614
     10 C          -1.1643    7.5484    2.1751 C.ar    1  UNL1       -0.0617
     11 C          -0.1310    7.5028    1.2402 C.ar    1  UNL1       -0.0614
     12 C           0.2757    6.2801    0.7104 C.ar    1  UNL1       -0.0554
     13 C           0.3744    0.9427   -0.0514 C.ar    1  UNL1        0.0650
     14 C           1.7609    1.1887   -0.0745 C.ar    1  UNL1       -0.0172
     15 C           2.6444    0.1035   -0.0389 C.ar    1  UNL1        0.1270
     16 C           2.1712   -1.2114    0.0005 C.ar    1  UNL1       -0.0294
     17 C           0.7940   -1.4737   -0.0019 C.ar    1  UNL1       -0.0338
     18 C          -0.0798   -0.3754   -0.0300 C.ar    1  UNL1        0.0725
     19 N           4.0875    0.3754   -0.0305 N.pl3   1  UNL1        0.0565
     20 O           4.4528    1.5590   -0.0427 O.2     1  UNL1       -0.1261
     21 O           4.8548   -0.5979   -0.0083 O.2     1  UNL1       -0.1261
     22 H          -2.2526   -1.9374   -0.9889 H       1  UNL1        0.0473
     23 H          -2.1858   -2.0231    0.8054 H       1  UNL1        0.0473
     24 H          -3.4119   -1.0002    0.0015 H       1  UNL1        0.0473
     25 H           0.5458    3.2291    1.4283 H       1  UNL1        0.0748
     26 H           0.8434    3.9187   -0.2025 H       1  UNL1        0.0748
     27 H          -1.8765    4.2344    2.3849 H       1  UNL1        0.0621
     28 H          -2.5927    6.4066    3.3184 H       1  UNL1        0.0618
     29 H          -1.4818    8.5021    2.5858 H       1  UNL1        0.0618
     30 H           0.3583    8.4204    0.9254 H       1  UNL1        0.0618
     31 H           1.0896    6.2579   -0.0113 H       1  UNL1        0.0621
     32 H           2.1434    2.2027   -0.1108 H       1  UNL1        0.0648
     33 H           2.8632   -2.0515    0.0312 H       1  UNL1        0.0641
     34 H           0.4241   -2.4945    0.0246 H       1  UNL1        0.0639
@<TRIPOS>BOND
     1     1    22    1
     2     1    23    1
     3     1    24    1
     4     2     1    1
     5     3     2   ar
     6     4     3   ar
     7     5     4    1
     8     6     5    1
     9     6    25    1
    10     6    26    1
    11     7     6    1
    12     8     7   ar
    13     8    27    1
    14     9     8   ar
    15     9    28    1
    16    10     9   ar
    17    10    29    1
    18    11    10   ar
    19    11    30    1
    20    12    11   ar
    21    12     7   ar
    22    12    31    1
    23    13     4   ar
    24    14    13   ar
    25    14    32    1
    26    15    14   ar
    27    16    15   ar
    28    16    33    1
    29    17    16   ar
    30    17    34    1
    31    18    17   ar
    32    18     2   ar
    33    18    13   ar
    34    19    15    1
    35    20    19    2
    36    21    19    2
