@<TRIPOS>MOLECULE
mol_399_akc_jactatropica201504028
>384.sdf
 50 52 0 0 0
SMALL
GASTEIGER

@<TRIPOS>ATOM
      1 C           0.9677   -2.1605    5.6616 C.3     1  UNL1       -0.0448
      2 N           2.4437   -2.1112    5.8194 N.4     1  UNL1        0.2264
      3 C           2.9504   -0.8898    6.5302 C.3     1  UNL1       -0.0099
      4 C           4.4773   -0.9521    6.6223 C.3     1  UNL1        0.0875
      5 O           5.0291   -1.0943    5.3039 O.3     1  UNL1       -0.3727
      6 C           6.4705   -1.0315    5.3540 C.3     1  UNL1        0.0674
      7 C           7.0616   -1.0553    3.9498 C.3     1  UNL1        0.0657
      8 N           8.5116   -1.1165    3.9827 N.ar    1  UNL1       -0.2580
      9 N           9.2269    0.0315    4.0591 N.ar    1  UNL1       -0.1322
     10 C          10.4870   -0.4019    4.0139 C.ar    1  UNL1        0.2421
     11 O          11.5387    0.4374    3.9426 O.3     1  UNL1       -0.4702
     12 C          11.3496    1.7119    4.5456 C.3     1  UNL1        0.1163
     13 C          12.6772    2.4361    4.4498 C.ar    1  UNL1       -0.0103
     14 C          13.2380    2.7096    3.1910 C.ar    1  UNL1       -0.0554
     15 C          14.4830    3.3295    3.0818 C.ar    1  UNL1       -0.0614
     16 C          15.1822    3.6927    4.2297 C.ar    1  UNL1       -0.0617
     17 C          14.6350    3.4397    5.4861 C.ar    1  UNL1       -0.0614
     18 C          13.3880    2.8138    5.5973 C.ar    1  UNL1       -0.0554
     19 C          10.5975   -1.8057    3.9684 C.ar    1  UNL1        0.0651
     20 C          11.6627   -2.7239    3.9334 C.ar    1  UNL1       -0.0172
     21 C          11.3557   -4.0914    3.9159 C.ar    1  UNL1        0.1270
     22 C          10.0260   -4.5375    3.9169 C.ar    1  UNL1       -0.0294
     23 C           8.9618   -3.6253    3.9353 C.ar    1  UNL1       -0.0338
     24 C           9.2815   -2.2600    3.9656 C.ar    1  UNL1        0.0729
     25 N          12.4503   -5.0711    3.9097 N.pl3   1  UNL1        0.0565
     26 O          13.6117   -4.6420    3.9098 O.2     1  UNL1       -0.1261
     27 O          12.1411   -6.2718    3.9101 O.2     1  UNL1       -0.1261
     28 H           0.7226   -3.0880    5.1397 H       1  UNL1        0.0777
     29 H           0.5166   -2.1525    6.6572 H       1  UNL1        0.0777
     30 H           0.6526   -1.2935    5.0767 H       1  UNL1        0.0777
     31 H           2.7653   -2.9585    6.3046 H       1  UNL1        0.2011
     32 H           2.9042   -2.1319    4.8954 H       1  UNL1        0.2011
     33 H           2.6297   -0.0304    5.9329 H       1  UNL1        0.0836
     34 H           2.4895   -0.8626    7.5218 H       1  UNL1        0.0836
     35 H           4.8475   -0.0319    7.0872 H       1  UNL1        0.0613
     36 H           4.7845   -1.8110    7.2298 H       1  UNL1        0.0613
     37 H           6.7792   -0.1141    5.8696 H       1  UNL1        0.0578
     38 H           6.8303   -1.8907    5.9326 H       1  UNL1        0.0578
     39 H           6.6891   -1.9176    3.3852 H       1  UNL1        0.0532
     40 H           6.7657   -0.1653    3.3827 H       1  UNL1        0.0532
     41 H          10.5850    2.2982    4.0221 H       1  UNL1        0.0748
     42 H          11.0602    1.5924    5.5978 H       1  UNL1        0.0748
     43 H          12.7091    2.4167    2.2852 H       1  UNL1        0.0621
     44 H          14.9119    3.5187    2.1009 H       1  UNL1        0.0618
     45 H          16.1577    4.1669    4.1445 H       1  UNL1        0.0618
     46 H          15.1851    3.7212    6.3800 H       1  UNL1        0.0618
     47 H          12.9893    2.6130    6.5879 H       1  UNL1        0.0621
     48 H          12.6875   -2.3592    3.9335 H       1  UNL1        0.0648
     49 H           9.7994   -5.6035    3.8990 H       1  UNL1        0.0641
     50 H           7.9358   -3.9786    3.9242 H       1  UNL1        0.0639
@<TRIPOS>UNITY_ATOM_ATTR
2 1
charge 1
@<TRIPOS>BOND
     1     1    28    1
     2     1    29    1
     3     1    30    1
     4     2     1    1
     5     2    31    1
     6     2    32    1
     7     3     2    1
     8     3    33    1
     9     3    34    1
    10     4     3    1
    11     4    35    1
    12     4    36    1
    13     5     4    1
    14     6     5    1
    15     6    37    1
    16     6    38    1
    17     7     6    1
    18     7    39    1
    19     7    40    1
    20     8     7    1
    21     9     8   ar
    22    10     9   ar
    23    11    10    1
    24    12    11    1
    25    12    41    1
    26    12    42    1
    27    13    12    1
    28    14    13   ar
    29    14    43    1
    30    15    14   ar
    31    15    44    1
    32    16    15   ar
    33    16    45    1
    34    17    16   ar
    35    17    46    1
    36    18    17   ar
    37    18    13   ar
    38    18    47    1
    39    19    10   ar
    40    20    19   ar
    41    20    48    1
    42    21    20   ar
    43    22    21   ar
    44    22    49    1
    45    23    22   ar
    46    23    50    1
    47    24    23   ar
    48    24     8   ar
    49    24    19   ar
    50    25    21    1
    51    26    25    2
    52    27    25    2
