@<TRIPOS>MOLECULE
mol_3_akc_1573406414666180226163222
>3.sdf
 44 48 0 0 0
SMALL
GASTEIGER

@<TRIPOS>ATOM
      1 C           1.0060    0.0037   -0.0191 C.3     1  UNL1       -0.0396
      2 C           2.5033   -0.0839   -0.0486 C.ar    1  UNL1       -0.0484
      3 C           3.2858    1.0786   -0.0609 C.ar    1  UNL1       -0.0328
      4 C           4.6772    1.0465   -0.0730 C.ar    1  UNL1        0.0725
      5 N           5.3138    2.2281   -0.0985 N.ar    1  UNL1       -0.2459
      6 C           6.6642    2.2501   -0.0946 C.ar    1  UNL1        0.0839
      7 C           7.4171    1.0753   -0.0205 C.ar    1  UNL1        0.0598
      8 C           8.8692    1.2901    0.0814 C.2     1  UNL1        0.2356
      9 O           9.6090    0.6557    0.8201 O.2     1  UNL1       -0.2831
     10 C           9.4171    2.4638   -0.7079 C.2     1  UNL1        0.2336
     11 O          10.3937    2.3537   -1.4245 O.2     1  UNL1       -0.2832
     12 C           8.6569    3.7057   -0.5347 C.ar    1  UNL1        0.0347
     13 C           7.2976    3.5871   -0.1842 C.ar    1  UNL1        0.0120
     14 C           6.6023    4.7836    0.0503 C.ar    1  UNL1       -0.0519
     15 C           7.2419    6.0276   -0.0559 C.ar    1  UNL1       -0.0611
     16 C           8.5845    6.1038   -0.4252 C.ar    1  UNL1       -0.0610
     17 C           9.2975    4.9386   -0.6800 C.ar    1  UNL1       -0.0502
     18 C           6.7885   -0.1945    0.0063 C.ar    1  UNL1        0.0043
     19 C           7.5861   -1.4603    0.1316 C.ar    1  UNL1       -0.0164
     20 C           7.2350   -2.4595    1.0644 C.ar    1  UNL1       -0.0518
     21 C           8.0024   -3.6185    1.2389 C.ar    1  UNL1       -0.0309
     22 C           9.1983   -3.7625    0.5340 C.ar    1  UNL1        0.1262
     23 C           9.5821   -2.7966   -0.3970 C.ar    1  UNL1       -0.0309
     24 C           8.7569   -1.6850   -0.6226 C.ar    1  UNL1       -0.0518
     25 N          10.0654   -4.9171    0.7968 N.pl3   1  UNL1        0.0564
     26 O           9.6378   -5.7956    1.5602 O.2     1  UNL1       -0.1261
     27 O          11.1724   -4.9480    0.2409 O.2     1  UNL1       -0.1261
     28 C           5.3514   -0.1999   -0.0620 C.ar    1  UNL1        0.0088
     29 C           4.5415   -1.3653   -0.1229 C.ar    1  UNL1       -0.0517
     30 C           3.1471   -1.3122   -0.0928 C.ar    1  UNL1       -0.0581
     31 H           0.6737    0.5583    0.8642 H       1  UNL1        0.0278
     32 H           0.6393    0.5043   -0.9206 H       1  UNL1        0.0278
     33 H           0.5479   -0.9906    0.0223 H       1  UNL1        0.0278
     34 H           2.7913    2.0491   -0.0537 H       1  UNL1        0.0642
     35 H           5.5492    4.7582    0.3299 H       1  UNL1        0.0624
     36 H           6.6867    6.9390    0.1534 H       1  UNL1        0.0618
     37 H           9.0755    7.0718   -0.5052 H       1  UNL1        0.0618
     38 H          10.3483    4.9873   -0.9607 H       1  UNL1        0.0625
     39 H           6.3518   -2.3447    1.6918 H       1  UNL1        0.0624
     40 H           7.6694   -4.3729    1.9488 H       1  UNL1        0.0640
     41 H          10.5250   -2.8716   -0.9356 H       1  UNL1        0.0640
     42 H           9.0967   -0.9571   -1.3579 H       1  UNL1        0.0624
     43 H           4.9870   -2.3547   -0.1987 H       1  UNL1        0.0624
     44 H           2.5763   -2.2390   -0.1045 H       1  UNL1        0.0620
@<TRIPOS>BOND
     1     1    31    1
     2     1    32    1
     3     1    33    1
     4     2     1    1
     5     3     2   ar
     6     3    34    1
     7     4     3   ar
     8     5     4   ar
     9     6     5   ar
    10     7     6   ar
    11     8     7    1
    12     9     8    2
    13    10     8    1
    14    11    10    2
    15    12    10    1
    16    13    12   ar
    17    13     6    1
    18    14    13   ar
    19    14    35    1
    20    15    14   ar
    21    15    36    1
    22    16    15   ar
    23    16    37    1
    24    17    16   ar
    25    17    12   ar
    26    17    38    1
    27    18     7   ar
    28    19    18    1
    29    20    19   ar
    30    20    39    1
    31    21    20   ar
    32    21    40    1
    33    22    21   ar
    34    23    22   ar
    35    23    41    1
    36    24    23   ar
    37    24    19   ar
    38    24    42    1
    39    25    22    1
    40    26    25    2
    41    27    25    2
    42    28    18   ar
    43    28     4   ar
    44    29    28   ar
    45    29    43    1
    46    30    29   ar
    47    30     2   ar
    48    30    44    1
