@<TRIPOS>MOLECULE
mol_400_akc_c5md00119f
>385.sdf
 35 37 0 0 0
SMALL
GASTEIGER

@<TRIPOS>ATOM
      1 CL         -1.8358   -0.6538   -1.8644 Cl      1  UNL1       -0.0835
      2 C          -0.1221   -0.5029   -1.8009 C.ar    1  UNL1        0.0427
      3 C           0.4766    0.6721   -2.2431 C.ar    1  UNL1       -0.0433
      4 C           1.8608    0.7912   -2.1883 C.ar    1  UNL1       -0.0586
      5 C           2.6388   -0.2643   -1.6988 C.ar    1  UNL1       -0.0403
      6 C           2.0487   -1.4544   -1.2582 C.ar    1  UNL1        0.0379
      7 N           2.7893   -2.5592   -0.7653 N.am    1  UNL1       -0.2479
      8 C           4.1545   -2.6229   -0.6202 C.2     1  UNL1        0.4495
      9 O           4.9889   -1.7627   -0.8878 O.2     1  UNL1       -0.2218
     10 O           4.5791   -3.8351   -0.0780 O.3     1  UNL1       -0.2411
     11 N           5.9622   -3.7306    0.2669 N.3     1  UNL1       -0.0812
     12 C           6.7409   -4.8309    0.0922 C.2     1  UNL1        0.2801
     13 N           6.1678   -5.8964    0.3881 N.2     1  UNL1       -0.4057
     14 C           8.1945   -4.7749   -0.2669 C.ar    1  UNL1        0.0651
     15 C           9.0572   -5.7928    0.1994 C.ar    1  UNL1       -0.0160
     16 C          10.4218   -5.6061   -0.1148 C.ar    1  UNL1        0.1350
     17 N          11.4655   -6.3722    0.2086 N.ar    1  UNL1       -0.0489
     18 O          12.5787   -5.7353   -0.3252 O.2     1  UNL1       -0.2416
     19 N          12.2279   -4.5752   -0.9979 N.ar    1  UNL1       -0.0489
     20 C          10.9035   -4.4682   -0.8791 C.ar    1  UNL1        0.1342
     21 C          10.0336   -3.4766   -1.3659 C.ar    1  UNL1       -0.0300
     22 C           8.6717   -3.6684   -1.0341 C.ar    1  UNL1       -0.0446
     23 C           0.6517   -1.5620   -1.3086 C.ar    1  UNL1       -0.0220
     24 H          -0.1223    1.4941   -2.6292 H       1  UNL1        0.0632
     25 H           2.3422    1.7060   -2.5285 H       1  UNL1        0.0619
     26 H           3.7126   -0.1081   -1.6821 H       1  UNL1        0.0636
     27 H           2.2571   -3.3631   -0.4600 H       1  UNL1        0.1583
     28 H           6.3356   -2.8099   -0.0221 H       1  UNL1        0.3613
     29 H           6.3630   -6.6279   -0.2777 H       1  UNL1        0.2553
     30 H           8.7597   -6.6467    0.7882 H       1  UNL1        0.0649
     31 H          10.3889   -2.6304   -1.9429 H       1  UNL1        0.0641
     32 H           7.9760   -2.9166   -1.4096 H       1  UNL1        0.0627
     33 H           0.1436   -2.4608   -0.9709 H       1  UNL1        0.0651
     34 H           5.1872   -5.6825    0.4829 H       1  UNL1        0.2553
     35 H           6.5029   -6.2054    1.2902 H       1  UNL1        0.2553
@<TRIPOS>BOND
     1     2     1    1
     2     3     2   ar
     3     3    24    1
     4     4     3   ar
     5     4    25    1
     6     5     4   ar
     7     5    26    1
     8     6     5   ar
     9     7     6    1
    10     7    27    1
    11     8     7   am
    12     9     8    2
    13    10     8    1
    14    11    10    1
    15    11    28    1
    16    12    11    1
    17    13    12    2
    18    13    29    1
    19    13    34    1
    20    14    12    1
    21    15    14   ar
    22    15    30    1
    23    16    15   ar
    24    17    16   ar
    25    18    17   ar
    26    19    18   ar
    27    20    19   ar
    28    20    16   ar
    29    21    20   ar
    30    21    31    1
    31    22    21   ar
    32    22    14   ar
    33    22    32    1
    34    23     6   ar
    35    23     2   ar
    36    23    33    1
    37    13    35    1
