@<TRIPOS>MOLECULE
mol_402_akc_jejmech201505046
>387.sdf
 30 31 0 0 0
SMALL
GASTEIGER

@<TRIPOS>ATOM
      1 O           1.7258   -0.0991    0.4805 O.co2   1  UNL1       -0.5735
      2 N           2.6167   -0.1499   -0.3778 N.pl3   1  UNL1        0.1186
      3 O           3.1042   -1.1817   -0.8579 O.2     1  UNL1        0.0446
      4 C           3.1154    1.1040   -0.8473 C.ar    1  UNL1        0.4380
      5 C           2.7855    2.3951   -0.5115 C.ar    1  UNL1        0.0595
      6 C           3.6183    3.2107   -1.3125 C.ar    1  UNL1       -0.0078
      7 C           4.3942    2.3631   -2.0873 C.ar    1  UNL1        0.1545
      8 O           4.0861    1.0600   -1.8041 O.2     1  UNL1       -0.3992
      9 C           5.3803    2.6541   -3.0918 C.2     1  UNL1        0.0881
     10 N           5.6736    3.8923   -3.3058 N.2     1  UNL1       -0.1834
     11 N           6.5325    4.2024   -4.3196 N.am    1  UNL1       -0.1904
     12 C           6.6615    5.5568   -4.6357 C.2     1  UNL1        0.3233
     13 O           6.2107    6.4467   -3.9226 O.2     1  UNL1       -0.2507
     14 N           7.2996    5.7473   -5.8501 N.am    1  UNL1       -0.2681
     15 C           7.3608    6.9539   -6.5837 C.ar    1  UNL1        0.0349
     16 C           6.7503    8.1451   -6.1757 C.ar    1  UNL1       -0.0391
     17 C           6.7911    9.2860   -6.9841 C.ar    1  UNL1       -0.0416
     18 C           7.4438    9.2416   -8.2101 C.ar    1  UNL1        0.0411
     19 CL          7.4657   10.6335   -9.2193 Cl      1  UNL1       -0.0835
     20 C           8.0694    8.0695   -8.6267 C.ar    1  UNL1       -0.0416
     21 C           8.0311    6.9303   -7.8137 C.ar    1  UNL1       -0.0391
     22 H           2.0434    2.7090    0.2100 H       1  UNL1        0.0722
     23 H           3.6556    4.2936   -1.3477 H       1  UNL1        0.0658
     24 H           5.8312    1.8182   -3.6533 H       1  UNL1        0.0883
     25 H           6.7848    3.4897   -4.9899 H       1  UNL1        0.1788
     26 H           7.7733    4.9514   -6.2468 H       1  UNL1        0.1564
     27 H           6.2183    8.2258   -5.2328 H       1  UNL1        0.0636
     28 H           6.3004   10.1957   -6.6474 H       1  UNL1        0.0633
     29 H           8.5789    8.0326   -9.5858 H       1  UNL1        0.0633
     30 H           8.5186    6.0258   -8.1673 H       1  UNL1        0.0636
@<TRIPOS>UNITY_ATOM_ATTR
1 1
charge -1
2 1
charge 1
@<TRIPOS>BOND
     1     2     1    1
     2     3     2    2
     3     4     2    1
     4     5     4   ar
     5     5    22    1
     6     6     5   ar
     7     6    23    1
     8     7     6   ar
     9     8     7   ar
    10     8     4   ar
    11     9     7    1
    12     9    24    1
    13    10     9    2
    14    11    10    1
    15    11    25    1
    16    12    11   am
    17    13    12    2
    18    14    12   am
    19    14    26    1
    20    15    14    1
    21    16    15   ar
    22    16    27    1
    23    17    16   ar
    24    17    28    1
    25    18    17   ar
    26    19    18    1
    27    20    18   ar
    28    20    29    1
    29    21    20   ar
    30    21    15   ar
    31    21    30    1
