@<TRIPOS>MOLECULE
mol_403_akc_s0031182015000141
>388.sdf
 49 50 0 0 0
SMALL
GASTEIGER

@<TRIPOS>ATOM
      1 C          -3.6137   -4.0648    0.3080 C.3     1  UNL1       -0.0438
      2 C          -2.9552   -2.7407    0.0601 C.2     1  UNL1       -0.0765
      3 C          -1.6207   -2.6287   -0.0701 C.2     1  UNL1       -0.0847
      4 C          -0.9170   -1.3043   -0.1329 C.3     1  UNL1       -0.0297
      5 C          -1.7291   -0.1653    0.5277 C.3     1  UNL1       -0.0165
      6 C          -3.1399   -0.1957   -0.1011 C.3     1  UNL1       -0.0443
      7 C          -3.8680   -1.5334    0.0555 C.3     1  UNL1       -0.0317
      8 C          -1.6361   -0.1035    2.1249 C.3     1  UNL1        0.0312
      9 C          -0.1479    0.1571    2.4746 C.3     1  UNL1       -0.0437
     10 C          -2.4717    1.0916    2.6223 C.3     1  UNL1       -0.0437
     11 N          -2.0927   -1.3706    2.7692 N.am    1  UNL1       -0.3200
     12 C          -1.8907   -1.8695    4.0481 C.2     1  UNL1        0.1503
     13 S          -1.4578   -0.9858    5.4082 S.2     1  UNL1       -0.0172
     14 N          -2.0136   -3.2689    4.0630 N.am    1  UNL1       -0.2184
     15 N          -1.2232   -3.9532    4.9444 N.2     1  UNL1       -0.1885
     16 C          -1.1881   -5.2429    4.9069 C.2     1  UNL1        0.0528
     17 C          -0.2077   -5.9549    5.7653 C.ar    1  UNL1       -0.0050
     18 C           0.7492   -5.2075    6.4791 C.ar    1  UNL1       -0.0467
     19 C           1.7058   -5.8506    7.2615 C.ar    1  UNL1        0.0162
     20 C           1.7155   -7.2494    7.3377 C.ar    1  UNL1        0.2732
     21 C           0.7631   -7.9998    6.6259 C.ar    1  UNL1        0.0162
     22 C          -0.1965   -7.3500    5.8349 C.ar    1  UNL1       -0.0467
     23 N           2.7262   -7.9189    8.1610 N.pl3   1  UNL1        0.0796
     24 O           3.5427   -7.2118    8.7661 O.co2   1  UNL1       -0.5760
     25 O           2.7082   -9.1556    8.1996 O.2     1  UNL1        0.0414
     26 H          -4.0926   -4.0537    1.2939 H       1  UNL1        0.0274
     27 H          -4.3742   -4.2717   -0.4490 H       1  UNL1        0.0274
     28 H          -2.8916   -4.8880    0.3067 H       1  UNL1        0.0274
     29 H          -0.9846   -3.5106   -0.0767 H       1  UNL1        0.0572
     30 H           0.0768   -1.3940    0.3132 H       1  UNL1        0.0311
     31 H          -0.7458   -1.0642   -1.1915 H       1  UNL1        0.0311
     32 H          -1.2761    0.7746    0.1739 H       1  UNL1        0.0324
     33 H          -3.7687    0.6245    0.2583 H       1  UNL1        0.0272
     34 H          -3.0247   -0.0047   -1.1794 H       1  UNL1        0.0272
     35 H          -4.5958   -1.6352   -0.7592 H       1  UNL1        0.0310
     36 H          -4.4471   -1.5124    0.9863 H       1  UNL1        0.0310
     37 H           0.2756    0.9557    1.8567 H       1  UNL1        0.0250
     38 H          -0.0115    0.4782    3.5095 H       1  UNL1        0.0250
     39 H           0.4617   -0.7431    2.3389 H       1  UNL1        0.0250
     40 H          -3.5318    0.9780    2.3775 H       1  UNL1        0.0250
     41 H          -2.4199    1.2159    3.7065 H       1  UNL1        0.0250
     42 H          -2.1153    2.0271    2.1751 H       1  UNL1        0.0250
     43 H          -2.7967   -1.8786    2.2620 H       1  UNL1        0.1483
     44 H          -2.2834   -3.7483    3.2129 H       1  UNL1        0.1762
     45 H          -1.8456   -5.8428    4.2553 H       1  UNL1        0.0851
     46 H           0.7541   -4.1241    6.4219 H       1  UNL1        0.0626
     47 H           2.4385   -5.2461    7.8028 H       1  UNL1        0.0685
     48 H           0.7622   -9.0878    6.6769 H       1  UNL1        0.0685
     49 H          -0.9236   -7.9417    5.2830 H       1  UNL1        0.0626
@<TRIPOS>UNITY_ATOM_ATTR
23 1
charge 1
24 1
charge -1
@<TRIPOS>BOND
     1     1    26    1
     2     1    27    1
     3     1    28    1
     4     2     1    1
     5     3     2    2
     6     3    29    1
     7     4     3    1
     8     4    30    1
     9     4    31    1
    10     5     4    1
    11     6     5    1
    12     6    33    1
    13     6    34    1
    14     7     6    1
    15     7     2    1
    16     7    35    1
    17     7    36    1
    18     9     8    1
    19     9    37    1
    20     9    38    1
    21     9    39    1
    22    10     8    1
    23    10    40    1
    24    10    41    1
    25    10    42    1
    26    11     8    1
    27    11    43    1
    28    12    11    1
    29    13    12    2
    30    14    12    1
    31    14    44    1
    32    15    14    1
    33    16    15    2
    34    16    45    1
    35    17    16    1
    36    18    17   ar
    37    18    46    1
    38    19    18   ar
    39    19    47    1
    40    20    19   ar
    41    21    20   ar
    42    21    48    1
    43    22    21   ar
    44    22    17   ar
    45    22    49    1
    46    23    20    1
    47    24    23    1
    48    25    23    2
    49     5     8    1
    50     5    32    1
