@<TRIPOS>MOLECULE
mol_405_akc_jejpb201504018
>390.sdf
 40 40 0 0 0
SMALL
GASTEIGER

@<TRIPOS>ATOM
      1 C           1.0332   -0.4967    0.2903 C.3     1  UNL1       -0.0652
      2 C           2.4715   -0.0096    0.1719 C.3     1  UNL1       -0.0545
      3 C           2.8640    0.2224   -1.2924 C.3     1  UNL1       -0.0375
      4 C           4.3104    0.7329   -1.4027 C.3     1  UNL1        0.0124
      5 N           4.8897    0.9851   -2.7624 N.pl3   1  UNL1       -0.3242
      6 C           3.8835    1.3309   -3.8082 C.3     1  UNL1        0.0355
      7 C           3.6728    0.2247   -4.8565 C.3     1  UNL1        0.0599
      8 O           2.8603   -0.8374   -4.3659 O.3     1  UNL1       -0.3935
      9 C           6.2925    1.1477   -2.9482 C.ar    1  UNL1        0.0909
     10 C           7.2781    1.0078   -1.9116 C.ar    1  UNL1        0.1498
     11 C           8.6932    0.9832   -2.1104 C.ar    1  UNL1       -0.0179
     12 C           9.2488    1.1274   -3.3692 C.ar    1  UNL1        0.0592
     13 C           8.3619    1.3435   -4.4125 C.ar    1  UNL1       -0.0179
     14 C           6.9506    1.3835   -4.2005 C.ar    1  UNL1        0.1498
     15 N           6.2920    1.8217   -5.4181 N.pl3   1  UNL1        0.0583
     16 O           5.9433    3.0064   -5.4751 O.2     1  UNL1       -0.1261
     17 O           6.2519    1.0176   -6.3617 O.2     1  UNL1       -0.1261
     18 C          10.7365    1.1029   -3.6117 C.3     1  UNL1        0.4176
     19 F          11.4678    1.0457   -2.4669 F       1  UNL1       -0.1659
     20 F          11.1153    0.0346   -4.3605 F       1  UNL1       -0.1659
     21 F          11.1661    2.2066   -4.2801 F       1  UNL1       -0.1659
     22 N           6.9728    0.9998   -0.4922 N.pl3   1  UNL1        0.0583
     23 O           6.6654    2.0861    0.0234 O.2     1  UNL1       -0.1261
     24 O           7.1440   -0.0665    0.1151 O.2     1  UNL1       -0.1261
     25 H           0.7601   -0.6361    1.3411 H       1  UNL1        0.0230
     26 H           0.3366    0.2273   -0.1447 H       1  UNL1        0.0230
     27 H           0.9014   -1.4533   -0.2258 H       1  UNL1        0.0230
     28 H           2.5748    0.9245    0.7387 H       1  UNL1        0.0263
     29 H           3.1399   -0.7444    0.6362 H       1  UNL1        0.0263
     30 H           2.7559   -0.7142   -1.8478 H       1  UNL1        0.0280
     31 H           2.1502    0.9434   -1.6991 H       1  UNL1        0.0280
     32 H           4.3698    1.6658   -0.8322 H       1  UNL1        0.0464
     33 H           4.8927   -0.0508   -0.9169 H       1  UNL1        0.0464
     34 H           2.9110    1.5494   -3.3664 H       1  UNL1        0.0486
     35 H           4.1362    2.2884   -4.2621 H       1  UNL1        0.0486
     36 H           3.1630    0.6499   -5.7273 H       1  UNL1        0.0573
     37 H           4.6104   -0.2272   -5.1766 H       1  UNL1        0.0573
     38 H           2.8886   -1.5364   -5.0443 H       1  UNL1        0.2095
     39 H           9.3560    0.8659   -1.2482 H       1  UNL1        0.0646
     40 H           8.7640    1.5130   -5.4154 H       1  UNL1        0.0646
@<TRIPOS>BOND
     1     1    25    1
     2     1    26    1
     3     1    27    1
     4     2     1    1
     5     2    28    1
     6     2    29    1
     7     3     2    1
     8     3    30    1
     9     3    31    1
    10     4     3    1
    11     4    32    1
    12     4    33    1
    13     5     4    1
    14     6     5    1
    15     6    34    1
    16     6    35    1
    17     7     6    1
    18     7    36    1
    19     7    37    1
    20     8     7    1
    21     8    38    1
    22     9     5    1
    23    10     9   ar
    24    11    10   ar
    25    11    39    1
    26    12    11   ar
    27    13    12   ar
    28    13    40    1
    29    14    13   ar
    30    14     9   ar
    31    15    14    1
    32    16    15    2
    33    17    15    2
    34    18    12    1
    35    19    18    1
    36    20    18    1
    37    21    18    1
    38    22    10    1
    39    23    22    2
    40    24    22    2
