@<TRIPOS>MOLECULE
mol_406_akc_s10719_015_9582_x
>391.sdf
 110 118 0 0 0
SMALL
GASTEIGER

@<TRIPOS>ATOM
      1 C           2.9702   -4.0160    3.9619 C.3     1  UNL1        0.0395
      2 O           2.8176   -2.8499    3.1565 O.3     1  UNL1       -0.3519
      3 C           1.7693   -2.9761    2.1887 C.3     1  UNL1        0.1879
      4 O           2.0344   -4.0740    1.3094 O.3     1  UNL1       -0.3412
      5 C           2.9528   -3.5896    0.3019 C.3     1  UNL1        0.1076
      6 C           4.4243   -3.6470    0.7635 C.3     1  UNL1        0.0580
      7 N           4.8363   -4.9856    1.1569 N.pl3   1  UNL1       -0.2542
      8 N           6.1815   -5.2618    1.5506 N.3     1  UNL1       -0.1610
      9 N           6.2694   -6.6991    1.5383 N.pl3   1  UNL1       -0.2640
     10 C           5.0276   -7.1803    1.0905 C.2     1  UNL1        0.0723
     11 C           4.7533   -8.6204    0.9096 C.3     1  UNL1        0.1295
     12 O           5.7208   -9.1799    0.0164 O.3     1  UNL1       -0.4851
     13 C           5.9513  -10.5119    0.2175 C.ar    1  UNL1        0.1385
     14 C           4.9468  -11.3764    0.6801 C.ar    1  UNL1        0.0228
     15 C           5.2068  -12.7251    0.8861 C.ar    1  UNL1        0.1280
     16 O           4.1680  -13.4652    1.3699 O.3     1  UNL1       -0.4871
     17 C           4.2855  -14.8618    1.1124 C.3     1  UNL1        0.1146
     18 C           2.9252  -15.4770    1.2318 C.ar    1  UNL1       -0.0104
     19 C           2.0666  -15.4763    0.1243 C.ar    1  UNL1       -0.0554
     20 C           0.8138  -16.0716    0.2107 C.ar    1  UNL1       -0.0614
     21 C           0.4063  -16.6589    1.4077 C.ar    1  UNL1       -0.0617
     22 C           1.2449  -16.6363    2.5219 C.ar    1  UNL1       -0.0614
     23 C           2.4999  -16.0420    2.4385 C.ar    1  UNL1       -0.0554
     24 C           6.4643  -13.2315    0.6025 C.ar    1  UNL1        0.0228
     25 C           7.4467  -12.3994    0.0934 C.ar    1  UNL1        0.1389
     26 C           7.2106  -11.0356   -0.0883 C.ar    1  UNL1        0.1009
     27 C           8.3554  -10.2268   -0.5691 C.2     1  UNL1        0.1740
     28 O           8.4608   -9.0252   -0.3600 O.2     1  UNL1       -0.2917
     29 C           9.4209  -11.0187   -1.2788 C.3     1  UNL1        0.0520
     30 C           9.7299  -12.1927   -0.3601 C.3     1  UNL1        0.1323
     31 O           8.6050  -13.0492   -0.2113 O.3     1  UNL1       -0.4828
     32 C          10.8649  -13.0349   -0.8900 C.ar    1  UNL1       -0.0033
     33 C          10.6860  -14.1263   -1.7419 C.ar    1  UNL1       -0.0514
     34 C          11.7888  -14.8352   -2.2284 C.ar    1  UNL1       -0.0159
     35 C          13.0930  -14.4327   -1.9150 C.ar    1  UNL1        0.1624
     36 O          14.2132  -15.0493   -2.4057 O.3     1  UNL1       -0.4837
     37 C          14.1049  -16.4498   -2.6877 C.3     1  UNL1        0.1148
     38 C          15.4178  -16.9755   -3.2275 C.ar    1  UNL1       -0.0104
     39 C          15.8072  -18.3033   -2.9909 C.ar    1  UNL1       -0.0554
     40 C          16.9850  -18.8065   -3.5500 C.ar    1  UNL1       -0.0614
     41 C          17.7788  -17.9942   -4.3582 C.ar    1  UNL1       -0.0617
     42 C          17.3986  -16.6777   -4.6062 C.ar    1  UNL1       -0.0614
     43 C          16.2229  -16.1747   -4.0502 C.ar    1  UNL1       -0.0554
     44 C          13.2757  -13.2890   -1.1202 C.ar    1  UNL1        0.1628
     45 O          14.5491  -12.7816   -0.9506 O.3     1  UNL1       -0.4837
     46 C          14.5503  -11.3788   -0.6398 C.3     1  UNL1        0.1148
     47 C          15.8424  -10.6811   -0.9634 C.ar    1  UNL1       -0.0104
     48 C          15.8050   -9.3354   -1.3667 C.ar    1  UNL1       -0.0554
     49 C          16.9807   -8.6289   -1.5881 C.ar    1  UNL1       -0.0614
     50 C          18.2071   -9.2592   -1.3977 C.ar    1  UNL1       -0.0617
     51 C          18.2569  -10.5940   -0.9914 C.ar    1  UNL1       -0.0614
     52 C          17.0753  -11.3034   -0.7697 C.ar    1  UNL1       -0.0554
     53 C          12.1618  -12.6630   -0.5498 C.ar    1  UNL1       -0.0096
     54 C           4.2104   -6.1676    0.8714 C.2     1  UNL1        0.0310
     55 C           2.5092   -2.1667    0.0385 C.3     1  UNL1        0.1205
     56 O           1.5413   -2.1550   -1.0191 O.3     1  UNL1       -0.3406
     57 C           0.5145   -1.2780   -0.5748 C.3     1  UNL1        0.1657
     58 C          -0.8152   -1.7062   -1.1787 C.3     1  UNL1       -0.0108
     59 C           0.8715    0.1425   -1.0151 C.3     1  UNL1       -0.0108
     60 O           0.4534   -1.3486    0.8494 O.3     1  UNL1       -0.3383
     61 C           1.7668   -1.7323    1.2875 C.3     1  UNL1        0.1411
     62 H           2.1692   -4.0706    4.7026 H       1  UNL1        0.0525
     63 H           2.9879   -4.9346    3.3686 H       1  UNL1        0.0525
     64 H           3.9292   -3.9425    4.4845 H       1  UNL1        0.0525
     65 H           0.8125   -3.1326    2.6981 H       1  UNL1        0.0937
     66 H           2.8206   -4.2157   -0.5877 H       1  UNL1        0.0640
     67 H           5.0681   -3.2975   -0.0534 H       1  UNL1        0.0506
     68 H           4.6091   -2.9728    1.6039 H       1  UNL1        0.0506
     69 H           6.2934   -4.9603    2.5242 H       1  UNL1        0.1678
     70 H           7.0359   -7.0847    0.9663 H       1  UNL1        0.1676
     71 H           4.8023   -9.0883    1.9047 H       1  UNL1        0.0761
     72 H           3.7521   -8.7639    0.4919 H       1  UNL1        0.0761
     73 H           3.9399  -11.0204    0.8811 H       1  UNL1        0.0691
     74 H           4.6541  -15.0504    0.0945 H       1  UNL1        0.0748
     75 H           4.9782  -15.3231    1.8275 H       1  UNL1        0.0748
     76 H           2.3788  -15.0120   -0.8095 H       1  UNL1        0.0621
     77 H           0.1572  -16.0786   -0.6550 H       1  UNL1        0.0618
     78 H          -0.5704  -17.1297    1.4732 H       1  UNL1        0.0618
     79 H           0.9190  -17.0848    3.4575 H       1  UNL1        0.0618
     80 H           3.1468  -16.0218    3.3134 H       1  UNL1        0.0621
     81 H           6.7218  -14.2721    0.7711 H       1  UNL1        0.0691
     82 H           9.0314  -11.3353   -2.2536 H       1  UNL1        0.0385
     83 H          10.3001  -10.3866   -1.4444 H       1  UNL1        0.0385
     84 H          10.0010  -11.8370    0.6455 H       1  UNL1        0.0789
     85 H           9.6857  -14.4396   -2.0356 H       1  UNL1        0.0623
     86 H          11.5915  -15.6701   -2.8930 H       1  UNL1        0.0655
     87 H          13.8394  -16.9834   -1.7665 H       1  UNL1        0.0748
     88 H          13.3532  -16.6452   -3.4609 H       1  UNL1        0.0748
     89 H          15.1969  -18.9567   -2.3716 H       1  UNL1        0.0621
     90 H          17.2832  -19.8342   -3.3583 H       1  UNL1        0.0618
     91 H          18.6926  -18.3859   -4.7964 H       1  UNL1        0.0618
     92 H          18.0141  -16.0390   -5.2341 H       1  UNL1        0.0618
     93 H          15.9350  -15.1457   -4.2590 H       1  UNL1        0.0621
     94 H          13.7669  -10.8661   -1.2157 H       1  UNL1        0.0748
     95 H          14.3675  -11.2484    0.4348 H       1  UNL1        0.0748
     96 H          14.8491   -8.8270   -1.5047 H       1  UNL1        0.0621
     97 H          16.9401   -7.5884   -1.9004 H       1  UNL1        0.0618
     98 H          19.1299   -8.7086   -1.5627 H       1  UNL1        0.0618
     99 H          19.2131  -11.0822   -0.8391 H       1  UNL1        0.0618
    100 H          17.1200  -12.3393   -0.4413 H       1  UNL1        0.0621
    101 H          12.2808  -11.8357    0.1451 H       1  UNL1        0.0659
    102 H           3.1895   -6.2297    0.5133 H       1  UNL1        0.0812
    103 H           3.3301   -1.5011   -0.2461 H       1  UNL1        0.0651
    104 H          -0.7657   -1.7247   -2.2733 H       1  UNL1        0.0281
    105 H          -1.0845   -2.7163   -0.8504 H       1  UNL1        0.0281
    106 H          -1.6261   -1.0377   -0.8709 H       1  UNL1        0.0281
    107 H           1.8158    0.4703   -0.5656 H       1  UNL1        0.0281
    108 H           1.0040    0.1916   -2.1016 H       1  UNL1        0.0281
    109 H           0.1049    0.8597   -0.7089 H       1  UNL1        0.0281
    110 H           2.2358   -0.8742    1.7792 H       1  UNL1        0.0675
@<TRIPOS>BOND
     1     1    62    1
     2     1    63    1
     3     1    64    1
     4     2     1    1
     5     4     3    1
     6     5     4    1
     7     5    66    1
     8     6     5    1
     9     6    67    1
    10     6    68    1
    11     7     6    1
    12     8     7    1
    13     8    69    1
    14     9     8    1
    15     9    70    1
    16    10     9    1
    17    11    10    1
    18    11    71    1
    19    11    72    1
    20    12    11    1
    21    13    12    1
    22    14    13   ar
    23    14    73    1
    24    15    14   ar
    25    16    15    1
    26    17    16    1
    27    17    74    1
    28    17    75    1
    29    18    17    1
    30    19    18   ar
    31    19    76    1
    32    20    19   ar
    33    20    77    1
    34    21    20   ar
    35    21    78    1
    36    22    21   ar
    37    22    79    1
    38    23    22   ar
    39    23    18   ar
    40    23    80    1
    41    24    15   ar
    42    24    81    1
    43    25    24   ar
    44    26    25   ar
    45    26    13   ar
    46    27    26    1
    47    28    27    2
    48    29    27    1
    49    29    82    1
    50    29    83    1
    51    30    29    1
    52    31    30    1
    53    31    25    1
    54    33    32   ar
    55    33    85    1
    56    34    33   ar
    57    34    86    1
    58    35    34   ar
    59    36    35    1
    60    37    36    1
    61    37    87    1
    62    37    88    1
    63    38    37    1
    64    39    38   ar
    65    39    89    1
    66    40    39   ar
    67    40    90    1
    68    41    40   ar
    69    41    91    1
    70    42    41   ar
    71    42    92    1
    72    43    42   ar
    73    43    38   ar
    74    43    93    1
    75    44    35   ar
    76    45    44    1
    77    46    45    1
    78    46    94    1
    79    46    95    1
    80    47    46    1
    81    48    47   ar
    82    48    96    1
    83    49    48   ar
    84    49    97    1
    85    50    49   ar
    86    50    98    1
    87    51    50   ar
    88    51    99    1
    89    52    51   ar
    90    52    47   ar
    91    52   100    1
    92    53    44   ar
    93    53    32   ar
    94    53   101    1
    95    54    10    2
    96    54     7    1
    97    54   102    1
    98    55     5    1
    99    55   103    1
   100    56    55    1
   101    57    56    1
   102    58    57    1
   103    58   104    1
   104    58   105    1
   105    58   106    1
   106    59    57    1
   107    59   107    1
   108    59   108    1
   109    59   109    1
   110    60    57    1
   111    61    60    1
   112    61     3    1
   113    61    55    1
   114    61   110    1
   115     3    65    1
   116     3     2    1
   117    30    32    1
   118    30    84    1
