@<TRIPOS>MOLECULE
mol_407_akc_jbmc201503064
>392.sdf
 33 35 0 0 0
SMALL
GASTEIGER

@<TRIPOS>ATOM
      1 F           3.3357    1.0793   -0.5674 F       1  UNL1       -0.1659
      2 C           2.7084   -0.0720   -0.9397 C.3     1  UNL1        0.4174
      3 F           1.3751    0.2109   -0.9095 F       1  UNL1       -0.1659
      4 F           3.0220   -0.2660   -2.2485 F       1  UNL1       -0.1659
      5 C           3.0606   -1.2555   -0.0700 C.ar    1  UNL1        0.0548
      6 C           4.0666   -1.1574    0.9009 C.ar    1  UNL1       -0.0495
      7 C           4.2623   -2.1893    1.8195 C.ar    1  UNL1       -0.0535
      8 C           3.4501   -3.3333    1.7875 C.ar    1  UNL1       -0.0171
      9 C           2.5288   -3.4879    0.7437 C.ar    1  UNL1       -0.0535
     10 C           2.3345   -2.4533   -0.1772 C.ar    1  UNL1       -0.0495
     11 C           3.4170   -4.1862    2.9940 C.ar    1  UNL1       -0.0036
     12 C           2.3080   -3.9837    3.7405 C.ar    1  UNL1        0.0111
     13 C           2.2076   -4.4216    5.1379 C.ar    1  UNL1        0.2498
     14 O           1.1649   -4.2826    5.7609 O.2     1  UNL1       -0.2679
     15 N           3.3393   -4.9141    5.7054 N.ar    1  UNL1       -0.3202
     16 C           4.5122   -5.2096    4.9867 C.ar    1  UNL1        0.0803
     17 C           4.5296   -4.9446    3.6032 C.ar    1  UNL1        0.0085
     18 C           5.6257   -5.3777    2.8361 C.ar    1  UNL1       -0.0519
     19 C           6.7102   -6.0207    3.4418 C.ar    1  UNL1       -0.0589
     20 C           6.7388   -6.1978    4.8232 C.ar    1  UNL1       -0.0294
     21 C           5.6415   -5.7835    5.5929 C.ar    1  UNL1        0.1500
     22 N           5.7371   -5.9154    7.0475 N.pl3   1  UNL1        0.0585
     23 O           4.6891   -6.1028    7.6829 O.2     1  UNL1       -0.1261
     24 O           6.8633   -5.8153    7.5561 O.2     1  UNL1       -0.1261
     25 H           4.6543   -0.2454    0.9962 H       1  UNL1        0.0623
     26 H           4.9851   -2.0487    2.6209 H       1  UNL1        0.0624
     27 H           1.8940   -4.3706    0.6941 H       1  UNL1        0.0624
     28 H           1.5609   -2.5550   -0.9378 H       1  UNL1        0.0623
     29 H           1.4672   -3.3811    3.4003 H       1  UNL1        0.0678
     30 H           3.2619   -5.1765    6.6873 H       1  UNL1        0.1690
     31 H           5.6373   -5.2283    1.7590 H       1  UNL1        0.0624
     32 H           7.5462   -6.3618    2.8327 H       1  UNL1        0.0618
     33 H           7.6106   -6.6575    5.2860 H       1  UNL1        0.0641
@<TRIPOS>BOND
     1     2     1    1
     2     3     2    1
     3     4     2    1
     4     5     2    1
     5     6     5   ar
     6     6    25    1
     7     7     6   ar
     8     7    26    1
     9     8     7   ar
    10     9     8   ar
    11     9    27    1
    12    10     9   ar
    13    10     5   ar
    14    10    28    1
    15    11     8    1
    16    12    11   ar
    17    12    29    1
    18    13    12   ar
    19    14    13    2
    20    15    13   ar
    21    15    30    1
    22    16    15   ar
    23    17    16   ar
    24    17    11   ar
    25    18    17   ar
    26    18    31    1
    27    19    18   ar
    28    19    32    1
    29    20    19   ar
    30    20    33    1
    31    21    20   ar
    32    21    16   ar
    33    22    21    1
    34    23    22    2
    35    24    22    2
