@<TRIPOS>MOLECULE
mol_409_akc_np500809a
>394.sdf
 49 50 0 0 0
SMALL
GASTEIGER

@<TRIPOS>ATOM
      1 C           6.2039    1.1517    1.7701 C.3     1  UNL1        0.0790
      2 O           5.2082    2.0126    2.3154 O.3     1  UNL1       -0.4914
      3 C           4.8496    3.0636    1.5103 C.ar    1  UNL1        0.1624
      4 C           4.6227    4.2638    2.1946 C.ar    1  UNL1       -0.0128
      5 C           4.2360    5.4246    1.5082 C.ar    1  UNL1       -0.0400
      6 C           3.9508    6.7060    2.2533 C.3     1  UNL1       -0.0096
      7 C           5.1404    7.6193    2.2847 C.2     1  UNL1       -0.0868
      8 C           5.1721    8.8389    1.7297 C.2     1  UNL1       -0.1023
      9 C           4.1423    5.3881    0.1140 C.ar    1  UNL1       -0.0546
     10 C           4.3601    4.1933   -0.5736 C.ar    1  UNL1       -0.0154
     11 C           4.6321    3.0090    0.1281 C.ar    1  UNL1        0.1700
     12 O           4.6793    1.7875   -0.5132 O.3     1  UNL1       -0.4485
     13 C           3.7962    1.5467   -1.5492 C.ar    1  UNL1        0.1739
     14 C           2.4624    1.9877   -1.4847 C.ar    1  UNL1       -0.0120
     15 C           1.6087    1.8687   -2.5878 C.ar    1  UNL1       -0.0365
     16 C           0.2071    2.4319   -2.5391 C.3     1  UNL1       -0.0095
     17 C           0.1163    3.8157   -3.1229 C.2     1  UNL1       -0.0868
     18 C          -0.6887    4.1578   -4.1419 C.2     1  UNL1       -0.1023
     19 C           2.0938    1.2568   -3.7505 C.ar    1  UNL1       -0.0126
     20 C           3.4016    0.7545   -3.8045 C.ar    1  UNL1        0.1655
     21 O           3.9061    0.1043   -4.9059 O.3     1  UNL1       -0.4913
     22 C           3.4258    0.5683   -6.1622 C.3     1  UNL1        0.0790
     23 C           4.2497    0.8607   -2.6852 C.ar    1  UNL1        0.2042
     24 O           5.5210    0.3594   -2.8410 O.3     1  UNL1       -0.4885
     25 C           6.0521   -0.3264   -1.7131 C.3     1  UNL1        0.0791
     26 H           5.7292    0.3295    1.2282 H       1  UNL1        0.0660
     27 H           6.9237    1.6814    1.1353 H       1  UNL1        0.0660
     28 H           6.7623    0.7118    2.6025 H       1  UNL1        0.0660
     29 H           4.7484    4.2862    3.2751 H       1  UNL1        0.0658
     30 H           3.0846    7.1993    1.7925 H       1  UNL1        0.0355
     31 H           3.6451    6.4786    3.2823 H       1  UNL1        0.0355
     32 H           6.0281    7.2504    2.7992 H       1  UNL1        0.0570
     33 H           4.3168    9.2510    1.2061 H       1  UNL1        0.0532
     34 H           6.0681    9.4481    1.7882 H       1  UNL1        0.0532
     35 H           3.8804    6.2830   -0.4446 H       1  UNL1        0.0622
     36 H           4.2673    4.1888   -1.6562 H       1  UNL1        0.0655
     37 H           2.0953    2.4677   -0.5794 H       1  UNL1        0.0658
     38 H          -0.4743    1.7414   -3.0510 H       1  UNL1        0.0355
     39 H          -0.1355    2.4729   -1.4979 H       1  UNL1        0.0355
     40 H           0.7351    4.5834   -2.6643 H       1  UNL1        0.0570
     41 H          -1.3338    3.4341   -4.6279 H       1  UNL1        0.0532
     42 H          -0.7200    5.1803   -4.5038 H       1  UNL1        0.0532
     43 H           1.4279    1.1639   -4.6032 H       1  UNL1        0.0658
     44 H           2.4259    0.1727   -6.3657 H       1  UNL1        0.0660
     45 H           3.4343    1.6626   -6.2204 H       1  UNL1        0.0660
     46 H           4.0970    0.1878   -6.9379 H       1  UNL1        0.0660
     47 H           6.6076    0.3711   -1.0809 H       1  UNL1        0.0660
     48 H           5.2865   -0.8592   -1.1373 H       1  UNL1        0.0660
     49 H           6.7703   -1.0685   -2.0757 H       1  UNL1        0.0660
@<TRIPOS>BOND
     1     1    26    1
     2     1    27    1
     3     1    28    1
     4     2     1    1
     5     3     2    1
     6     4     3   ar
     7     4    29    1
     8     5     4   ar
     9     6     5    1
    10     6    30    1
    11     6    31    1
    12     7     6    1
    13     7    32    1
    14     8     7    2
    15     8    33    1
    16     8    34    1
    17     9     5   ar
    18     9    35    1
    19    10     9   ar
    20    10    36    1
    21    11    10   ar
    22    11     3   ar
    23    12    11    1
    24    13    12    1
    25    14    13   ar
    26    14    37    1
    27    15    14   ar
    28    16    15    1
    29    16    38    1
    30    16    39    1
    31    17    16    1
    32    17    40    1
    33    18    17    2
    34    18    41    1
    35    18    42    1
    36    19    15   ar
    37    19    43    1
    38    20    19   ar
    39    21    20    1
    40    22    21    1
    41    22    44    1
    42    22    45    1
    43    22    46    1
    44    23    20   ar
    45    23    13   ar
    46    24    23    1
    47    25    24    1
    48    25    47    1
    49    25    48    1
    50    25    49    1
