@<TRIPOS>MOLECULE
mol_410_akc_aac04742_14
>395.sdf
 35 38 0 0 0
SMALL
GASTEIGER

@<TRIPOS>ATOM
      1 C           7.7033   -0.6011   12.8495 C.3     1  UNL1       -0.0252
      2 C           9.0396    0.1781   12.8961 C.3     1  UNL1        0.1051
      3 C           9.8128   -0.1392   14.1942 C.3     1  UNL1       -0.0252
      4 C           8.8228    1.6960   12.7830 C.3     1  UNL1       -0.0096
      5 C           8.1907    2.0520   11.4418 C.3     1  UNL1       -0.0214
      6 C           8.8529    1.2942   10.3348 C.2     1  UNL1        0.0138
      7 C           9.7114    0.2759   10.5471 C.2     1  UNL1        0.1394
      8 O           9.8935   -0.2711   11.8177 O.2     1  UNL1       -0.4871
      9 C          10.5713   -0.2656    9.4571 C.3     1  UNL1        0.1744
     10 C          11.6659   -1.2576    9.8092 C.3     1  UNL1        0.0898
     11 O          11.9799    0.0848    9.4471 O.3     1  UNL1       -0.3551
     12 C           9.9307   -0.1720    8.0803 C.ar    1  UNL1        0.0002
     13 C           8.9791    0.8354    7.8268 C.ar    1  UNL1        0.0014
     14 C           8.4237    1.0219    6.5512 C.ar    1  UNL1       -0.0549
     15 C           8.8069    0.1966    5.4948 C.ar    1  UNL1       -0.0614
     16 C           9.7331   -0.8150    5.7207 C.ar    1  UNL1       -0.0614
     17 C          10.2842   -0.9963    6.9941 C.ar    1  UNL1       -0.0550
     18 C           8.5318    1.7120    8.9401 C.3     1  UNL1        0.1939
     19 O           7.8414    2.7009    8.7235 O.3     1  UNL1       -0.2137
     20 H           6.8444    0.0654   12.9693 H       1  UNL1        0.0268
     21 H           7.5831   -1.1502   11.9109 H       1  UNL1        0.0268
     22 H           7.6230   -1.3382   13.6553 H       1  UNL1        0.0268
     23 H          10.8163   -0.5268   13.9801 H       1  UNL1        0.0268
     24 H           9.9300    0.7469   14.8264 H       1  UNL1        0.0268
     25 H           9.3101   -0.8908   14.8119 H       1  UNL1        0.0268
     26 H           8.2045    2.0748   13.6052 H       1  UNL1        0.0307
     27 H           9.7960    2.2044   12.8491 H       1  UNL1        0.0307
     28 H           8.3001    3.1323   11.2847 H       1  UNL1        0.0313
     29 H           7.1174    1.8334   11.4494 H       1  UNL1        0.0313
     30 H          11.9482   -2.0384    9.1182 H       1  UNL1        0.0597
     31 H          11.8294   -1.5321   10.8446 H       1  UNL1        0.0597
     32 H           7.6935    1.8115    6.3807 H       1  UNL1        0.0621
     33 H           8.3861    0.3470    4.5062 H       1  UNL1        0.0618
     34 H          10.0432   -1.4578    4.9001 H       1  UNL1        0.0618
     35 H          11.0252   -1.7814    7.1198 H       1  UNL1        0.0621
@<TRIPOS>BOND
     1     1    20    1
     2     1    21    1
     3     1    22    1
     4     3    23    1
     5     3    24    1
     6     3    25    1
     7     4     2    1
     8     5     4    1
     9     6     5    1
    10     7     6    2
    11     8     7    1
    12     8     2    1
    13     9     7    1
    14    10     9    1
    15    11    10    1
    16    11     9    1
    17    12     9    1
    18    13    12   ar
    19    14    13   ar
    20    15    14   ar
    21    16    15   ar
    22    17    16   ar
    23    17    12   ar
    24    18    13    1
    25    18     6    1
    26     2     1    1
    27     3     2    1
    28     4    26    1
    29     4    27    1
    30     5    28    1
    31     5    29    1
    32    10    30    1
    33    10    31    1
    34    14    32    1
    35    15    33    1
    36    16    34    1
    37    17    35    1
    38    19    18    2
