@<TRIPOS>MOLECULE
mol_412_akc_c4md00441h
>397.sdf
 68 72 0 0 0
SMALL
GASTEIGER

@<TRIPOS>ATOM
      1 C           5.0427    1.3562    0.4263 C.3     1  UNL1       -0.0363
      2 C           4.0973    1.2518   -0.7766 C.3     1  UNL1        0.0616
      3 C           2.6341    1.2943   -0.3219 C.3     1  UNL1       -0.0363
      4 C           4.3569    2.4510   -1.7022 C.3     1  UNL1       -0.0363
      5 O           4.3749    0.0902   -1.5755 O.3     1  UNL1       -0.3696
      6 C           4.1579   -1.1879   -0.9778 C.3     1  UNL1        0.0734
      7 C           4.5428   -2.2816   -1.9532 C.ar    1  UNL1       -0.0219
      8 C           5.7643   -2.2216   -2.6184 C.ar    1  UNL1       -0.0558
      9 C           6.1691   -3.2705   -3.4498 C.ar    1  UNL1       -0.0537
     10 C           5.4040   -4.4495   -3.6252 C.ar    1  UNL1       -0.0178
     11 C           4.1592   -4.4786   -2.9863 C.ar    1  UNL1       -0.0537
     12 C           3.7363   -3.4136   -2.1618 C.ar    1  UNL1       -0.0558
     13 C           5.9806   -5.5949   -4.3868 C.ar    1  UNL1       -0.0171
     14 C           7.3648   -5.8030   -4.3028 C.ar    1  UNL1       -0.0520
     15 C           8.0179   -6.7455   -5.0854 C.ar    1  UNL1       -0.0350
     16 C           7.3315   -7.5651   -5.9484 C.ar    1  UNL1        0.0760
     17 N           8.1001   -8.3561   -6.6942 N.ar    1  UNL1       -0.2353
     18 C           7.4779   -9.1487   -7.5544 C.ar    1  UNL1        0.1187
     19 N           6.1590   -9.2493   -7.6898 N.ar    1  UNL1       -0.2200
     20 C           5.3871   -8.4394   -6.9248 C.ar    1  UNL1        0.1339
     21 N           4.0595   -8.5766   -7.3179 N.pl3   1  UNL1       -0.2988
     22 C           2.7888   -8.5273   -6.7273 C.ar    1  UNL1        0.0340
     23 C           1.8302   -7.7701   -7.4053 C.ar    1  UNL1       -0.0370
     24 C           0.4678   -7.9104   -7.1337 C.ar    1  UNL1       -0.0167
     25 C           0.0034   -8.8391   -6.1965 C.ar    1  UNL1        0.1393
     26 O          -1.3620   -8.8241   -6.1078 O.3     1  UNL1       -0.4859
     27 C          -2.0668   -9.9972   -5.7106 C.3     1  UNL1        0.1148
     28 C          -3.5205   -9.8743   -6.1309 C.ar    1  UNL1       -0.0077
     29 C          -4.1133  -10.8082   -6.9923 C.ar    1  UNL1       -0.0552
     30 C          -5.4675  -10.7143   -7.3317 C.ar    1  UNL1       -0.0587
     31 C          -6.2501   -9.6849   -6.8129 C.ar    1  UNL1       -0.0264
     32 C          -5.6714   -8.7482   -5.9670 C.ar    1  UNL1        0.1238
     33 F          -6.4157   -7.7605   -5.4638 F       1  UNL1       -0.2055
     34 C          -4.3192   -8.8332   -5.6210 C.ar    1  UNL1       -0.0201
     35 C           0.9582   -9.5958   -5.4974 C.ar    1  UNL1        0.0843
     36 CL          0.5581  -10.7570   -4.2795 Cl      1  UNL1       -0.0797
     37 C           2.3399   -9.4443   -5.7720 C.ar    1  UNL1       -0.0186
     38 C           5.9250   -7.5025   -6.0106 C.ar    1  UNL1        0.0410
     39 C           5.2608   -6.4887   -5.2191 C.ar    1  UNL1       -0.0415
     40 H           4.9210    2.3131    0.9488 H       1  UNL1        0.0257
     41 H           4.8611    0.5604    1.1552 H       1  UNL1        0.0257
     42 H           6.0889    1.2675    0.1113 H       1  UNL1        0.0257
     43 H           2.3863    2.2560    0.1412 H       1  UNL1        0.0257
     44 H           1.9584    1.1313   -1.1688 H       1  UNL1        0.0257
     45 H           2.4189    0.5127    0.4142 H       1  UNL1        0.0257
     46 H           5.3936    2.4524   -2.0590 H       1  UNL1        0.0257
     47 H           3.7220    2.3998   -2.5940 H       1  UNL1        0.0257
     48 H           4.1663    3.4046   -1.1970 H       1  UNL1        0.0257
     49 H           4.7779   -1.3005   -0.0816 H       1  UNL1        0.0610
     50 H           3.1056   -1.2968   -0.7007 H       1  UNL1        0.0610
     51 H           6.4196   -1.3618   -2.4845 H       1  UNL1        0.0621
     52 H           7.1304   -3.1567   -3.9501 H       1  UNL1        0.0624
     53 H           3.5119   -5.3490   -3.0811 H       1  UNL1        0.0624
     54 H           2.7717   -3.4884   -1.6626 H       1  UNL1        0.0621
     55 H           7.9811   -5.2035   -3.6336 H       1  UNL1        0.0624
     56 H           9.1031   -6.8159   -5.0308 H       1  UNL1        0.0639
     57 H           8.0956   -9.7541   -8.2073 H       1  UNL1        0.1048
     58 H           4.0851   -9.3445   -7.9925 H       1  UNL1        0.1536
     59 H           2.1466   -7.0997   -8.2020 H       1  UNL1        0.0637
     60 H          -0.2443   -7.3141   -7.7032 H       1  UNL1        0.0655
     61 H          -1.6302  -10.8943   -6.1664 H       1  UNL1        0.0748
     62 H          -2.0543  -10.0839   -4.6183 H       1  UNL1        0.0748
     63 H          -3.5228  -11.6243   -7.4028 H       1  UNL1        0.0621
     64 H          -5.9161  -11.4519   -7.9982 H       1  UNL1        0.0619
     65 H          -7.3022   -9.6031   -7.0632 H       1  UNL1        0.0646
     66 H          -3.9009   -8.0904   -4.9552 H       1  UNL1        0.0650
     67 H           3.0570  -10.0958   -5.2767 H       1  UNL1        0.0652
     68 H           4.1805   -6.3867   -5.3081 H       1  UNL1        0.0631
@<TRIPOS>BOND
     1     1    40    1
     2     1    41    1
     3     1    42    1
     4     2     1    1
     5     3     2    1
     6     3    43    1
     7     3    44    1
     8     3    45    1
     9     4     2    1
    10     4    46    1
    11     4    47    1
    12     4    48    1
    13     5     2    1
    14     6     5    1
    15     6    49    1
    16     6    50    1
    17     7     6    1
    18     8     7   ar
    19     8    51    1
    20     9     8   ar
    21     9    52    1
    22    10     9   ar
    23    11    10   ar
    24    11    53    1
    25    12    11   ar
    26    12     7   ar
    27    12    54    1
    28    13    10    1
    29    14    13   ar
    30    14    55    1
    31    15    14   ar
    32    15    56    1
    33    16    15   ar
    34    17    16   ar
    35    18    17   ar
    36    18    57    1
    37    19    18   ar
    38    20    19   ar
    39    21    20    1
    40    21    58    1
    41    22    21    1
    42    23    22   ar
    43    23    59    1
    44    24    23   ar
    45    24    60    1
    46    25    24   ar
    47    26    25    1
    48    27    26    1
    49    27    61    1
    50    27    62    1
    51    28    27    1
    52    29    28   ar
    53    29    63    1
    54    30    29   ar
    55    30    64    1
    56    31    30   ar
    57    31    65    1
    58    32    31   ar
    59    33    32    1
    60    34    32   ar
    61    34    28   ar
    62    34    66    1
    63    35    25   ar
    64    36    35    1
    65    37    35   ar
    66    37    22   ar
    67    37    67    1
    68    38    20   ar
    69    38    16   ar
    70    39    38   ar
    71    39    13   ar
    72    39    68    1
