@<TRIPOS>MOLECULE
mol_413_akc_jacdku422
>398.sdf
 33 35 0 0 0
SMALL
GASTEIGER

@<TRIPOS>ATOM
      1 C           3.1112   -0.0026    1.4097 C.3     1  UNL1       -0.0198
      2 C           2.6044   -0.1247   -0.0294 C.3     1  UNL1        0.1623
      3 C           1.0691   -0.0101   -0.1029 C.3     1  UNL1        0.1306
      4 O           0.6377    1.2016    0.5207 O.3     1  UNL1       -0.4880
      5 C          -0.7107    1.4059    0.6191 C.ar    1  UNL1        0.1207
      6 C          -1.7058    0.5594    0.1284 C.ar    1  UNL1       -0.0199
      7 C          -3.0542    0.8784    0.3147 C.ar    1  UNL1       -0.0583
      8 C          -3.4133    2.0451    0.9870 C.ar    1  UNL1       -0.0615
      9 C          -2.4244    2.8992    1.4688 C.ar    1  UNL1       -0.0583
     10 C          -1.0783    2.5795    1.2827 C.ar    1  UNL1       -0.0199
     11 C           3.0807   -1.4605   -0.6766 C.3     1  UNL1        0.0705
     12 N           3.8406   -0.9640   -1.7899 N.ar    1  UNL1       -0.2948
     13 C           4.5460   -1.4481   -2.8232 C.ar    1  UNL1        0.0586
     14 C           4.9983   -0.2887   -3.4517 C.ar    1  UNL1        0.2357
     15 N           4.5614    0.8645   -2.7950 N.ar    1  UNL1       -0.1709
     16 C           3.8705    0.3834   -1.8020 C.ar    1  UNL1        0.3011
     17 O           3.2036    0.9625   -0.8185 O.3     1  UNL1       -0.4520
     18 N           5.8233   -0.2120   -4.6373 N.pl3   1  UNL1        0.0767
     19 O           6.1642   -1.2939   -5.1438 O.2     1  UNL1       -0.1246
     20 O           6.1291    0.9090   -5.0629 O.2     1  UNL1       -0.1246
     21 H           2.7995    0.9428    1.8659 H       1  UNL1        0.0270
     22 H           2.7398   -0.8257    2.0294 H       1  UNL1        0.0270
     23 H           4.2064   -0.0107    1.4402 H       1  UNL1        0.0270
     24 H           0.7514   -0.0020   -1.1530 H       1  UNL1        0.0737
     25 H           0.6272   -0.8692    0.4179 H       1  UNL1        0.0737
     26 H          -1.4716   -0.3543   -0.4056 H       1  UNL1        0.0654
     27 H          -3.8255    0.2148   -0.0677 H       1  UNL1        0.0619
     28 H          -4.4623    2.2900    1.1312 H       1  UNL1        0.0618
     29 H          -2.6984    3.8135    1.9883 H       1  UNL1        0.0619
     30 H          -0.3095    3.2511    1.6578 H       1  UNL1        0.0654
     31 H           3.7476   -2.0451   -0.0367 H       1  UNL1        0.0534
     32 H           2.2662   -2.0840   -1.0560 H       1  UNL1        0.0534
     33 H           4.6858   -2.4975   -3.0432 H       1  UNL1        0.0850
@<TRIPOS>BOND
     1     1    21    1
     2     1    22    1
     3     1    23    1
     4     3    24    1
     5     3    25    1
     6     4     3    1
     7     5     4    1
     8     6     5   ar
     9     6    26    1
    10     7     6   ar
    11     7    27    1
    12     8     7   ar
    13     8    28    1
    14     9     8   ar
    15     9    29    1
    16    10     9   ar
    17    10     5   ar
    18    10    30    1
    19    11     2    1
    20    11    31    1
    21    11    32    1
    22    12    11    1
    23    13    12   ar
    24    13    33    1
    25    14    13   ar
    26    15    14   ar
    27    16    15   ar
    28    16    12   ar
    29    17    16    1
    30    17     2    1
    31    18    14    1
    32    19    18    2
    33    20    18    2
    34     2     3    1
    35     2     1    1
