@<TRIPOS>MOLECULE
mol_414_akc_aac04003_14
>399.sdf
 48 47 0 0 0
SMALL
GASTEIGER

@<TRIPOS>ATOM
      1 C          16.5591    1.0237  -11.4735 C.3     1  UNL1       -0.0653
      2 C          16.2393    2.4412  -11.0302 C.3     1  UNL1       -0.0559
      3 C          14.7318    2.6836  -10.9773 C.3     1  UNL1       -0.0533
      4 C          14.4145    4.1171  -10.5497 C.3     1  UNL1       -0.0531
      5 C          12.9042    4.3514  -10.4899 C.3     1  UNL1       -0.0531
      6 C          12.5815    5.7923  -10.0921 C.3     1  UNL1       -0.0531
      7 C          11.0780    6.0607   -9.9696 C.3     1  UNL1       -0.0531
      8 C          10.3448    5.2471   -8.8942 C.3     1  UNL1       -0.0529
      9 C          10.9617    5.2992   -7.4913 C.3     1  UNL1       -0.0479
     10 C          11.0358    6.7186   -6.9144 C.3     1  UNL1       -0.0076
     11 CA         11.6704    6.7957   -5.5111 C.3     1  UNL1        0.0010
     12 C          11.6248    8.2469   -4.9846 C.3     1  UNL1        0.0868
     13 O          12.6118    9.0092   -5.6831 O.3     1  UNL1       -0.3895
     14 N          13.1270    6.3953   -5.6277 N.4     1  UNL1        0.2306
     15 C          13.8685    6.2020   -4.3481 C.3     1  UNL1       -0.0362
     16 C          15.2271    5.6065   -4.6599 C.3     1  UNL1       -0.0245
     17 H          17.6436    0.8729  -11.5090 H       1  UNL1        0.0230
     18 H          16.1367    0.2891  -10.7789 H       1  UNL1        0.0230
     19 H          16.1562    0.8237  -12.4713 H       1  UNL1        0.0230
     20 H          16.6794    2.6184  -10.0420 H       1  UNL1        0.0263
     21 H          16.7056    3.1491  -11.7248 H       1  UNL1        0.0263
     22 H          14.2925    2.4899  -11.9635 H       1  UNL1        0.0265
     23 H          14.2709    1.9786  -10.2744 H       1  UNL1        0.0265
     24 H          14.8538    4.3119   -9.5634 H       1  UNL1        0.0265
     25 H          14.8717    4.8228  -11.2534 H       1  UNL1        0.0265
     26 H          12.4565    4.1360  -11.4676 H       1  UNL1        0.0265
     27 H          12.4671    3.6501   -9.7714 H       1  UNL1        0.0265
     28 H          13.0884    6.0456   -9.1539 H       1  UNL1        0.0265
     29 H          12.9912    6.4710  -10.8510 H       1  UNL1        0.0265
     30 H          10.9304    7.1297   -9.7750 H       1  UNL1        0.0265
     31 H          10.5999    5.8648  -10.9376 H       1  UNL1        0.0265
     32 H           9.3062    5.5949   -8.8429 H       1  UNL1        0.0265
     33 H          10.2944    4.1979   -9.2098 H       1  UNL1        0.0265
     34 H          10.3554    4.6758   -6.8223 H       1  UNL1        0.0267
     35 H          11.9494    4.8321   -7.5277 H       1  UNL1        0.0267
     36 H          11.5899    7.3739   -7.5962 H       1  UNL1        0.0320
     37 H          10.0144    7.1176   -6.8609 H       1  UNL1        0.0320
     38 HA         11.1761    6.1002   -4.8248 H       1  UNL1        0.0873
     39 H1         10.6392    8.6985   -5.1340 H       1  UNL1        0.0614
     40 H2         11.8661    8.2824   -3.9171 H       1  UNL1        0.0614
     41 H          12.4604    9.9517   -5.4625 H       1  UNL1        0.2097
     42 H1         13.2327    5.5574   -6.2086 H       1  UNL1        0.2017
     43 H2         13.5753    7.1742   -6.1438 H       1  UNL1        0.2017
     44 H          13.9705    7.1792   -3.8696 H       1  UNL1        0.0811
     45 H          13.2798    5.5308   -3.7159 H       1  UNL1        0.0811
     46 H          15.1265    4.5889   -5.0522 H       1  UNL1        0.0281
     47 H          15.7652    6.2054   -5.4021 H       1  UNL1        0.0281
     48 H          15.8367    5.5591   -3.7526 H       1  UNL1        0.0281
@<TRIPOS>UNITY_ATOM_ATTR
14 1
charge 1
@<TRIPOS>BOND
     1     1    17    1
     2     1    18    1
     3     1    19    1
     4     2     1    1
     5     2    20    1
     6     2    21    1
     7     3     2    1
     8     3    22    1
     9     3    23    1
    10     4     3    1
    11     4    24    1
    12     4    25    1
    13     5     4    1
    14     5    26    1
    15     5    27    1
    16     6     5    1
    17     6    28    1
    18     6    29    1
    19     7     6    1
    20     7    30    1
    21     7    31    1
    22     8     7    1
    23     8    32    1
    24     8    33    1
    25     9     8    1
    26     9    34    1
    27     9    35    1
    28    10     9    1
    29    10    36    1
    30    10    37    1
    31    12    11    1
    32    12    39    1
    33    12    40    1
    34    13    12    1
    35    13    41    1
    36    14    11    1
    37    14    42    1
    38    14    43    1
    39    15    14    1
    40    15    44    1
    41    15    45    1
    42    16    15    1
    43    16    46    1
    44    16    47    1
    45    16    48    1
    46    11    38    1
    47    11    10    1
