@<TRIPOS>MOLECULE
mol_415_akc_jbmcl201409078
>400.sdf
 109 115 0 0 0
SMALL
GASTEIGER

@<TRIPOS>ATOM
      1 C           1.7802   -0.2096   -1.1099 C.3     1  UNL1        0.0790
      2 O           2.1914    1.1328   -0.8723 O.3     1  UNL1       -0.4914
      3 C           2.9001    1.3195    0.2848 C.ar    1  UNL1        0.1621
      4 C           2.4166    1.0843    1.5805 C.ar    1  UNL1        0.1624
      5 O           1.2421    0.5151    1.9740 O.3     1  UNL1       -0.4837
      6 C           0.0854    0.7797    1.1986 C.3     1  UNL1        0.1148
      7 C          -1.0778    1.2697    2.0211 C.ar    1  UNL1       -0.0104
      8 C          -0.9863    1.5689    3.3859 C.ar    1  UNL1       -0.0554
      9 C          -2.0959    2.0827    4.0618 C.ar    1  UNL1       -0.0614
     10 C          -3.2943    2.2992    3.3829 C.ar    1  UNL1       -0.0617
     11 C          -3.4040    1.9961    2.0277 C.ar    1  UNL1       -0.0614
     12 C          -2.2953    1.4737    1.3552 C.ar    1  UNL1       -0.0554
     13 C           3.2128    1.4432    2.6644 C.ar    1  UNL1       -0.0157
     14 C           4.4542    2.0321    2.4645 C.ar    1  UNL1       -0.0509
     15 C           5.0160    2.1219    1.1969 C.ar    1  UNL1       -0.0209
     16 C           6.4435    2.4548    1.0500 C.2     1  UNL1       -0.0461
     17 C           7.4477    1.8643    1.7425 C.2     1  UNL1        0.0174
     18 C           7.3271    0.7668    2.7705 C.3     1  UNL1        0.0441
     19 N           8.3174    0.9811    3.8131 N.am    1  UNL1       -0.2873
     20 C           9.6701    0.7739    3.3456 C.3     1  UNL1        0.0441
     21 C           9.9697    1.7979    2.2924 C.2     1  UNL1        0.0174
     22 C          11.2000    2.3036    2.0619 C.2     1  UNL1       -0.0461
     23 C          12.4041    1.8186    2.7366 C.ar    1  UNL1       -0.0209
     24 C          12.8658    2.3701    3.9371 C.ar    1  UNL1       -0.0091
     25 C          14.0128    1.8620    4.5743 C.ar    1  UNL1        0.1621
     26 O          14.2982    2.4905    5.7602 O.3     1  UNL1       -0.4914
     27 C          15.6669    2.5798    6.1342 C.3     1  UNL1        0.0790
     28 C          14.6955    0.7744    4.0058 C.ar    1  UNL1        0.1624
     29 O          15.7757    0.2339    4.6600 O.3     1  UNL1       -0.4837
     30 C          16.7659   -0.3522    3.8101 C.3     1  UNL1        0.1148
     31 C          17.9578   -0.8560    4.5886 C.ar    1  UNL1       -0.0104
     32 C          17.8269   -1.3759    5.8828 C.ar    1  UNL1       -0.0554
     33 C          18.9253   -1.9480    6.5264 C.ar    1  UNL1       -0.0614
     34 C          20.1591   -2.0150    5.8810 C.ar    1  UNL1       -0.0617
     35 C          20.2986   -1.5071    4.5909 C.ar    1  UNL1       -0.0614
     36 C          19.2035   -0.9333    3.9476 C.ar    1  UNL1       -0.0554
     37 C          14.1993    0.2064    2.8234 C.ar    1  UNL1       -0.0157
     38 C          13.0750    0.7308    2.1894 C.ar    1  UNL1       -0.0509
     39 C           8.8529    2.2885    1.4089 C.2     1  UNL1        0.1883
     40 O           9.0886    2.9866    0.4232 O.2     1  UNL1       -0.2872
     41 C           8.1435    1.6537    5.0360 C.2     1  UNL1        0.2689
     42 O           9.1171    1.9924    5.7107 O.2     1  UNL1       -0.2682
     43 C           6.8037    2.0122    5.5175 C.ar    1  UNL1        0.1684
     44 N           5.7231    1.2357    5.3675 N.ar    1  UNL1       -0.0730
     45 O           4.6702    1.9283    5.9221 O.2     1  UNL1       -0.3545
     46 C           5.0959    3.1011    6.4995 C.ar    1  UNL1        0.1606
     47 C           4.2498    4.0051    7.1983 C.2     1  UNL1       -0.0200
     48 C           2.9149    3.8392    7.2268 C.2     1  UNL1       -0.0729
     49 C           1.9787    4.7048    8.0549 C.3     1  UNL1        0.0034
     50 C           1.2458    3.8148    9.0628 C.2     1  UNL1       -0.0692
     51 C           2.0819    3.2109   10.1608 C.3     1  UNL1       -0.0432
     52 C          -0.0780    3.5762    8.9981 C.2     1  UNL1       -0.0844
     53 C          -0.9838    4.1228    7.9374 C.3     1  UNL1       -0.0340
     54 C          -0.2289    4.7445    6.7619 C.3     1  UNL1       -0.0436
     55 C           0.9903    5.5879    7.2061 C.3     1  UNL1       -0.0247
     56 C           0.5169    6.7880    8.0664 C.3     1  UNL1       -0.0590
     57 C           1.6646    6.1779    5.9498 C.3     1  UNL1       -0.0590
     58 C           6.4621    3.1575    6.2879 C.ar    1  UNL1        0.0170
     59 C           4.1922    1.8530    0.0999 C.ar    1  UNL1       -0.0091
     60 H           2.4001   -0.6369   -1.9023 H       1  UNL1        0.0660
     61 H           1.8279   -0.8603   -0.2317 H       1  UNL1        0.0660
     62 H           0.7466   -0.1781   -1.4706 H       1  UNL1        0.0660
     63 H           0.2528    1.5394    0.4294 H       1  UNL1        0.0748
     64 H          -0.2169   -0.1671    0.7383 H       1  UNL1        0.0748
     65 H          -0.0559    1.4185    3.9282 H       1  UNL1        0.0621
     66 H          -2.0191    2.3220    5.1171 H       1  UNL1        0.0618
     67 H          -4.1492    2.7127    3.9089 H       1  UNL1        0.0618
     68 H          -4.3285    2.1574    1.4956 H       1  UNL1        0.0618
     69 H          -2.3800    1.2445    0.2949 H       1  UNL1        0.0621
     70 H           2.8689    1.2666    3.6811 H       1  UNL1        0.0655
     71 H           5.0128    2.3739    3.3251 H       1  UNL1        0.0625
     72 H           6.6636    3.1984    0.2846 H       1  UNL1        0.0628
     73 H           6.3415    0.6429    3.1945 H       1  UNL1        0.0515
     74 H           7.5507   -0.1940    2.2883 H       1  UNL1        0.0515
     75 H          10.3725    0.8062    4.1806 H       1  UNL1        0.0515
     76 H           9.7322   -0.2353    2.9169 H       1  UNL1        0.0515
     77 H          11.3755    3.0429    1.2837 H       1  UNL1        0.0628
     78 H          12.3300    3.1977    4.3958 H       1  UNL1        0.0661
     79 H          16.0481    1.6258    6.5069 H       1  UNL1        0.0660
     80 H          16.2819    2.9722    5.3177 H       1  UNL1        0.0660
     81 H          15.7320    3.2857    6.9684 H       1  UNL1        0.0660
     82 H          16.3659   -1.2320    3.2934 H       1  UNL1        0.0748
     83 H          17.0960    0.3981    3.0804 H       1  UNL1        0.0748
     84 H          16.8642   -1.3535    6.3901 H       1  UNL1        0.0621
     85 H          18.8140   -2.3554    7.5283 H       1  UNL1        0.0618
     86 H          21.0095   -2.4725    6.3781 H       1  UNL1        0.0618
     87 H          21.2558   -1.5706    4.0805 H       1  UNL1        0.0618
     88 H          19.3217   -0.5644    2.9309 H       1  UNL1        0.0621
     89 H          14.6432   -0.6738    2.3750 H       1  UNL1        0.0655
     90 H          12.7191    0.2656    1.2737 H       1  UNL1        0.0625
     91 H           4.7129    4.8234    7.7442 H       1  UNL1        0.0652
     92 H           2.4482    3.0261    6.6733 H       1  UNL1        0.0579
     93 H           2.5970    5.4018    8.6401 H       1  UNL1        0.0393
     94 H           2.7413    2.4345    9.7596 H       1  UNL1        0.0275
     95 H           2.6962    3.9784   10.6420 H       1  UNL1        0.0275
     96 H           1.4640    2.7510   10.9396 H       1  UNL1        0.0275
     97 H          -0.5538    2.9517    9.7513 H       1  UNL1        0.0572
     98 H          -1.6304    3.3209    7.5639 H       1  UNL1        0.0308
     99 H          -1.6455    4.8677    8.3954 H       1  UNL1        0.0308
    100 H           0.1078    3.9384    6.0960 H       1  UNL1        0.0274
    101 H          -0.9269    5.3532    6.1731 H       1  UNL1        0.0274
    102 H           1.3702    7.3994    8.3828 H       1  UNL1        0.0235
    103 H          -0.1609    7.4366    7.5000 H       1  UNL1        0.0235
    104 H          -0.0084    6.4772    8.9745 H       1  UNL1        0.0235
    105 H           0.9917    6.8745    5.4353 H       1  UNL1        0.0235
    106 H           2.5752    6.7282    6.2097 H       1  UNL1        0.0235
    107 H           1.9284    5.4000    5.2251 H       1  UNL1        0.0235
    108 H           7.1395    3.9303    6.6295 H       1  UNL1        0.0679
    109 H           4.5526    2.0254   -0.9114 H       1  UNL1        0.0661
@<TRIPOS>BOND
     1     1    60    1
     2     1    61    1
     3     1    62    1
     4     2     1    1
     5     3     2    1
     6     4     3   ar
     7     5     4    1
     8     6     5    1
     9     6    63    1
    10     6    64    1
    11     7     6    1
    12     8     7   ar
    13     8    65    1
    14     9     8   ar
    15     9    66    1
    16    10     9   ar
    17    10    67    1
    18    11    10   ar
    19    11    68    1
    20    12    11   ar
    21    12     7   ar
    22    12    69    1
    23    13     4   ar
    24    13    70    1
    25    14    13   ar
    26    14    71    1
    27    15    14   ar
    28    16    15    1
    29    16    72    1
    30    17    16    2
    31    18    17    1
    32    18    73    1
    33    18    74    1
    34    19    18    1
    35    20    19    1
    36    20    75    1
    37    20    76    1
    38    21    20    1
    39    22    21    2
    40    22    77    1
    41    23    22    1
    42    24    23   ar
    43    24    78    1
    44    25    24   ar
    45    26    25    1
    46    27    26    1
    47    27    79    1
    48    27    80    1
    49    27    81    1
    50    28    25   ar
    51    29    28    1
    52    30    29    1
    53    30    82    1
    54    30    83    1
    55    31    30    1
    56    32    31   ar
    57    32    84    1
    58    33    32   ar
    59    33    85    1
    60    34    33   ar
    61    34    86    1
    62    35    34   ar
    63    35    87    1
    64    36    35   ar
    65    36    31   ar
    66    36    88    1
    67    37    28   ar
    68    37    89    1
    69    38    37   ar
    70    38    23   ar
    71    38    90    1
    72    39    21    1
    73    39    17    1
    74    40    39    2
    75    41    19   am
    76    42    41    2
    77    43    41    1
    78    44    43   ar
    79    45    44   ar
    80    46    45   ar
    81    47    46    1
    82    47    91    1
    83    48    47    2
    84    48    92    1
    85    49    48    1
    86    49    93    1
    87    50    49    1
    88    51    50    1
    89    51    94    1
    90    51    95    1
    91    51    96    1
    92    52    50    2
    93    52    97    1
    94    53    52    1
    95    53    98    1
    96    53    99    1
    97    54    53    1
    98    54   100    1
    99    54   101    1
   100    55    54    1
   101    55    49    1
   102    56    55    1
   103    56   102    1
   104    56   103    1
   105    56   104    1
   106    57    55    1
   107    57   105    1
   108    57   106    1
   109    57   107    1
   110    58    46   ar
   111    58    43   ar
   112    58   108    1
   113    59    15   ar
   114    59     3   ar
   115    59   109    1
