@<TRIPOS>MOLECULE
mol_416_akc_jbmcl201411073
>401.sdf
 40 39 0 0 0
SMALL
GASTEIGER

@<TRIPOS>ATOM
      1 C           1.1816   -4.8511    4.4272 C.3     1  UNL1        0.0371
      2 O           2.6004   -4.7319    4.3412 O.3     1  UNL1       -0.3738
      3 C           3.0551   -3.5897    5.0646 C.3     1  UNL1        0.1233
      4 C           4.5728   -3.5279    5.0158 C.2     1  UNL1        0.2388
      5 O           5.2912   -3.5021    6.0182 O.2     1  UNL1       -0.2733
      6 N           5.1038   -3.4767    3.7365 N.am    1  UNL1       -0.3132
      7 C           6.5305   -3.4887    3.5999 C.3     1  UNL1        0.0165
      8 C           7.0305   -3.5443    2.1646 C.3     1  UNL1        0.0030
      9 C           8.5559   -3.4999    2.1059 C.3     1  UNL1       -0.0322
     10 N           9.1506   -4.6989    2.7967 N.4     1  UNL1        0.2270
     11 C          10.6426   -4.7143    2.8095 C.3     1  UNL1       -0.0335
     12 C          11.1295   -5.9520    3.5685 C.3     1  UNL1       -0.0078
     13 C          12.6637   -6.0119    3.6111 C.3     1  UNL1       -0.0078
     14 C          13.1762   -7.2446    4.3542 C.3     1  UNL1       -0.0352
     15 N          14.6581   -7.2420    4.3546 N.4     1  UNL1        0.2185
     16 H           0.8561   -4.8913    5.4718 H       1  UNL1        0.0524
     17 H           0.7073   -4.0078    3.9175 H       1  UNL1        0.0524
     18 H           0.8815   -5.7772    3.9320 H       1  UNL1        0.0524
     19 H           2.6589   -2.6771    4.6063 H       1  UNL1        0.0656
     20 H           2.7400   -3.6448    6.1123 H       1  UNL1        0.0656
     21 H           4.4713   -3.7141    2.9737 H       1  UNL1        0.1487
     22 H           6.9221   -2.5970    4.1035 H       1  UNL1        0.0464
     23 H           6.8866   -4.3606    4.1592 H       1  UNL1        0.0464
     24 H           6.6591   -4.4488    1.6684 H       1  UNL1        0.0332
     25 H           6.6290   -2.6916    1.6038 H       1  UNL1        0.0332
     26 H           8.9062   -3.5248    1.0689 H       1  UNL1        0.0814
     27 H           8.9505   -2.6083    2.6046 H       1  UNL1        0.0814
     28 H           8.8212   -4.7297    3.7721 H       1  UNL1        0.2013
     29 H           8.7826   -5.5496    2.3459 H       1  UNL1        0.2013
     30 H          10.9796   -4.7228    1.7682 H       1  UNL1        0.0814
     31 H          10.9733   -3.7951    3.3039 H       1  UNL1        0.0814
     32 H          10.7363   -5.9378    4.5926 H       1  UNL1        0.0319
     33 H          10.7395   -6.8576    3.0885 H       1  UNL1        0.0319
     34 H          13.0518   -6.0116    2.5855 H       1  UNL1        0.0319
     35 H          13.0447   -5.1047    4.0982 H       1  UNL1        0.0319
     36 H          12.8563   -7.2503    5.4003 H       1  UNL1        0.0813
     37 H          12.8588   -8.1714    3.8673 H       1  UNL1        0.0813
     38 H          15.0595   -7.2735    3.4068 H       1  UNL1        0.1994
     39 H          15.0566   -6.4214    4.8326 H       1  UNL1        0.1994
     40 H          15.0278   -8.0687    4.8501 H       1  UNL1        0.1994
@<TRIPOS>UNITY_ATOM_ATTR
10 1
charge 1
15 1
charge 1
@<TRIPOS>BOND
     1     1    16    1
     2     1    17    1
     3     1    18    1
     4     2     1    1
     5     3     2    1
     6     3    19    1
     7     3    20    1
     8     4     3    1
     9     5     4    2
    10     6     4   am
    11     6    21    1
    12     7     6    1
    13     7    22    1
    14     7    23    1
    15     8     7    1
    16     8    24    1
    17     8    25    1
    18     9     8    1
    19     9    26    1
    20     9    27    1
    21    10     9    1
    22    10    28    1
    23    10    29    1
    24    11    10    1
    25    11    30    1
    26    11    31    1
    27    12    11    1
    28    12    32    1
    29    12    33    1
    30    13    12    1
    31    13    34    1
    32    13    35    1
    33    14    13    1
    34    14    36    1
    35    14    37    1
    36    15    14    1
    37    15    38    1
    38    15    39    1
    39    15    40    1
