@<TRIPOS>MOLECULE
mol_417_akc_jejmech201410040
>402.sdf
 60 62 0 0 0
SMALL
GASTEIGER

@<TRIPOS>ATOM
      1 C           0.9177    7.0728   -2.6647 C.3     1  UNL1       -0.0527
      2 C           1.8048    8.0138   -3.5294 C.3     1  UNL1       -0.0473
      3 C           0.9944    9.2624   -3.9644 C.3     1  UNL1        0.0069
      4 C           1.7046   10.3200   -4.8348 C.3     1  UNL1        0.1505
      5 N           2.8405   10.9721   -4.1355 N.ar    1  UNL1       -0.2037
      6 C           4.0210   11.0990   -4.7811 C.ar    1  UNL1        0.1730
      7 C           5.1855   11.2512   -4.0544 C.ar    1  UNL1        0.0229
      8 C           5.1107   11.2131   -2.6684 C.ar    1  UNL1        0.0384
      9 N           6.1833   10.6456   -1.9538 N.pl3   1  UNL1       -0.3435
     10 C           6.1685    9.1602   -2.0209 C.3     1  UNL1        0.0091
     11 C           6.7382    8.6383   -3.3547 C.3     1  UNL1       -0.0374
     12 C           6.9945    7.1294   -3.3876 C.3     1  UNL1       -0.0502
     13 C           5.7467    6.2747   -3.6431 C.3     1  UNL1       -0.0374
     14 C           5.3070    6.1989   -5.1236 C.3     1  UNL1        0.0091
     15 N           5.2562    4.8121   -5.6450 N.pl3   1  UNL1       -0.3435
     16 C           4.2561    4.0010   -5.0659 C.ar    1  UNL1        0.0384
     17 C           4.5691    3.1341   -4.0341 C.ar    1  UNL1        0.0229
     18 C           3.5802    2.8067   -3.1159 C.ar    1  UNL1        0.1730
     19 N           2.3519    3.3658   -3.2465 N.ar    1  UNL1       -0.2037
     20 C           1.6820    3.8851   -2.0229 C.3     1  UNL1        0.1505
     21 C           2.4357    5.1917   -1.6530 C.3     1  UNL1        0.0069
     22 C           1.5770    6.4374   -1.4264 C.3     1  UNL1       -0.0473
     23 C           1.9551    3.8808   -4.4316 C.ar    1  UNL1        0.1730
     24 C           2.9150    4.2616   -5.3504 C.ar    1  UNL1        0.0229
     25 C           3.8820   11.4206   -2.0568 C.ar    1  UNL1        0.0229
     26 C           2.7395   11.3439   -2.8374 C.ar    1  UNL1        0.1730
     27 H           0.4771    6.3010   -3.3035 H       1  UNL1        0.0265
     28 H           0.0721    7.6586   -2.2824 H       1  UNL1        0.0265
     29 H           2.7038    8.3127   -2.9824 H       1  UNL1        0.0267
     30 H           2.1353    7.4696   -4.4215 H       1  UNL1        0.0267
     31 H           0.5975    9.7436   -3.0632 H       1  UNL1        0.0326
     32 H           0.1188    8.9165   -4.5280 H       1  UNL1        0.0326
     33 H           1.0238   11.1235   -5.1284 H       1  UNL1        0.1030
     34 H           2.0975    9.8379   -5.7383 H       1  UNL1        0.1030
     35 H           4.0418   10.9664   -5.8589 H       1  UNL1        0.1377
     36 H           6.1541   11.2223   -4.5500 H       1  UNL1        0.0695
     37 H           6.1835   10.9519   -0.9762 H       1  UNL1        0.1461
     38 H           5.1502    8.7774   -1.8639 H       1  UNL1        0.0461
     39 H           6.7731    8.7820   -1.1904 H       1  UNL1        0.0461
     40 H           7.6902    9.1528   -3.5422 H       1  UNL1        0.0280
     41 H           6.0790    8.8813   -4.1899 H       1  UNL1        0.0280
     42 H           7.4475    6.8250   -2.4360 H       1  UNL1        0.0266
     43 H           7.7337    6.9104   -4.1679 H       1  UNL1        0.0266
     44 H           4.9179    6.6651   -3.0443 H       1  UNL1        0.0280
     45 H           5.9693    5.2772   -3.2528 H       1  UNL1        0.0280
     46 H           5.9885    6.7660   -5.7648 H       1  UNL1        0.0461
     47 H           4.3254    6.6725   -5.2344 H       1  UNL1        0.0461
     48 H           6.1704    4.3765   -5.6248 H       1  UNL1        0.1461
     49 H           5.5983    2.8456   -3.8335 H       1  UNL1        0.0695
     50 H           3.8054    2.2874   -2.1883 H       1  UNL1        0.1377
     51 H           1.7808    3.1214   -1.2415 H       1  UNL1        0.1030
     52 H           0.6221    4.0387   -2.2426 H       1  UNL1        0.1030
     53 H           3.1853    5.4450   -2.4058 H       1  UNL1        0.0326
     54 H           2.9976    4.9937   -0.7336 H       1  UNL1        0.0326
     55 H           2.1983    7.1971   -0.9358 H       1  UNL1        0.0267
     56 H           0.7916    6.1757   -0.7079 H       1  UNL1        0.0267
     57 H           0.9109    4.1578   -4.5374 H       1  UNL1        0.1377
     58 H           2.6371    4.8550   -6.2196 H       1  UNL1        0.0695
     59 H           3.7956   11.5234   -0.9788 H       1  UNL1        0.0695
     60 H           1.7489   11.4459   -2.4080 H       1  UNL1        0.1377
@<TRIPOS>UNITY_ATOM_ATTR
5 1
charge 1
19 1
charge 1
@<TRIPOS>BOND
     1     1    27    1
     2     1    28    1
     3     2     1    1
     4     2    29    1
     5     2    30    1
     6     3     2    1
     7     3    31    1
     8     3    32    1
     9     4     3    1
    10     4    33    1
    11     4    34    1
    12     5     4    1
    13     6     5   ar
    14     6    35    1
    15     7     6   ar
    16     7    36    1
    17     8     7   ar
    18     9     8    1
    19     9    37    1
    20    10     9    1
    21    10    38    1
    22    10    39    1
    23    11    10    1
    24    11    40    1
    25    11    41    1
    26    12    11    1
    27    12    42    1
    28    12    43    1
    29    13    12    1
    30    13    44    1
    31    13    45    1
    32    14    13    1
    33    14    46    1
    34    14    47    1
    35    15    14    1
    36    15    48    1
    37    16    15    1
    38    17    16   ar
    39    17    49    1
    40    18    17   ar
    41    18    50    1
    42    19    18   ar
    43    20    19    1
    44    20    51    1
    45    20    52    1
    46    21    20    1
    47    21    53    1
    48    21    54    1
    49    22    21    1
    50    22     1    1
    51    22    55    1
    52    22    56    1
    53    23    19   ar
    54    23    57    1
    55    24    23   ar
    56    24    16   ar
    57    24    58    1
    58    25     8   ar
    59    25    59    1
    60    26    25   ar
    61    26     5   ar
    62    26    60    1
