@<TRIPOS>MOLECULE
mol_419_akc_jejmech201409076
>404.sdf
 38 40 0 0 0
SMALL
GASTEIGER

@<TRIPOS>ATOM
      1 C           1.1766   -0.2403    0.3211 C.3     1  UNL1        0.0788
      2 O           2.5129    0.0719   -0.0657 O.3     1  UNL1       -0.4949
      3 C           3.1137    1.0681    0.6547 C.ar    1  UNL1        0.1271
      4 C           2.7979    1.3935    1.9750 C.ar    1  UNL1        0.0225
      5 C           3.4795    2.4242    2.6263 C.ar    1  UNL1        0.1347
      6 O           3.1374    2.7187    3.9158 O.3     1  UNL1       -0.5058
      7 C           4.4909    3.1361    1.9698 C.ar    1  UNL1        0.1055
      8 C           5.2518    4.2339    2.6093 C.ar    1  UNL1        0.1966
      9 O           5.0862    4.6176    3.7580 O.2     1  UNL1       -0.2869
     10 C           6.2765    4.8928    1.7820 C.ar    1  UNL1        0.0288
     11 C           6.4694    4.4728    0.5247 C.ar    1  UNL1        0.1395
     12 O           5.7788    3.4439   -0.0805 O.2     1  UNL1       -0.4544
     13 C           4.8086    2.7985    0.6499 C.ar    1  UNL1        0.1462
     14 C           4.1310    1.7627    0.0001 C.ar    1  UNL1        0.0233
     15 C           7.4791    5.1127   -0.3264 C.ar    1  UNL1        0.0245
     16 C           7.1316    6.2216   -1.1169 C.ar    1  UNL1       -0.0054
     17 C           8.0910    6.8402   -1.9226 C.ar    1  UNL1        0.1656
     18 O           7.8801    7.9239   -2.7388 O.3     1  UNL1       -0.4913
     19 C           6.5608    8.4571   -2.7665 C.3     1  UNL1        0.0790
     20 C           9.3985    6.3401   -1.9272 C.ar    1  UNL1        0.2008
     21 O          10.3457    6.9446   -2.7149 O.3     1  UNL1       -0.5009
     22 C           9.7486    5.2411   -1.1453 C.ar    1  UNL1        0.1627
     23 O          11.0331    4.7777   -1.1744 O.3     1  UNL1       -0.5032
     24 C           8.7921    4.6251   -0.3414 C.ar    1  UNL1       -0.0056
     25 H           1.1417   -0.6998    1.3140 H       1  UNL1        0.0660
     26 H           0.5432    0.6528    0.2796 H       1  UNL1        0.0660
     27 H           0.7793   -0.9714   -0.3886 H       1  UNL1        0.0660
     28 H           2.0360    0.8421    2.5131 H       1  UNL1        0.0691
     29 H           2.4374    2.1237    4.2303 H       1  UNL1        0.2922
     30 H           6.8328    5.6983    2.2414 H       1  UNL1        0.0693
     31 H           4.3899    1.5034   -1.0251 H       1  UNL1        0.0691
     32 H           6.1064    6.5783   -1.0838 H       1  UNL1        0.0662
     33 H           5.8426    7.7156   -3.1317 H       1  UNL1        0.0660
     34 H           6.2710    8.8395   -1.7824 H       1  UNL1        0.0660
     35 H           6.5545    9.2984   -3.4663 H       1  UNL1        0.0660
     36 H           9.8842    7.6812   -3.1560 H       1  UNL1        0.2924
     37 H          11.1095    3.9990   -0.6026 H       1  UNL1        0.2923
     38 H           9.0577    3.7709    0.2750 H       1  UNL1        0.0662
@<TRIPOS>BOND
     1     1    25    1
     2     1    26    1
     3     1    27    1
     4     2     1    1
     5     3     2    1
     6     4     3   ar
     7     4    28    1
     8     5     4   ar
     9     6     5    1
    10     6    29    1
    11     7     5   ar
    12     8     7   ar
    13     9     8    2
    14    10     8   ar
    15    10    30    1
    16    11    10   ar
    17    12    11   ar
    18    13    12   ar
    19    13     7   ar
    20    14    13   ar
    21    14     3   ar
    22    14    31    1
    23    15    11    1
    24    16    15   ar
    25    16    32    1
    26    17    16   ar
    27    18    17    1
    28    19    18    1
    29    19    33    1
    30    19    34    1
    31    19    35    1
    32    20    17   ar
    33    21    20    1
    34    21    36    1
    35    22    20   ar
    36    23    22    1
    37    23    37    1
    38    24    22   ar
    39    24    15   ar
    40    24    38    1
