@<TRIPOS>MOLECULE
mol_420_akc_jjep201409010
>405.sdf
 37 39 0 0 0
SMALL
GASTEIGER

@<TRIPOS>ATOM
      1 H           0.6679    0.0518   -1.5749 H       1  UNL1        0.0332
      2 C           0.3875   -0.3602   -0.5937 C.3     1  UNL1       -0.0066
      3 C           1.5649   -1.2075   -0.1042 C.3     1  UNL1       -0.0447
      4 C           2.6587   -0.1577    0.0752 C.3     1  UNL1       -0.0236
      5 C           1.9342    1.0519    0.6988 C.3     1  UNL1        0.0667
      6 C           2.5047    2.3721    0.1888 C.3     1  UNL1       -0.0358
      7 O           2.1473    1.0154    2.1185 O.3     1  UNL1       -0.3886
      8 C           0.4211    0.7907    0.4394 C.3     1  UNL1       -0.0039
      9 H           0.0088    0.4430    1.3944 H       1  UNL1        0.0335
     10 C          -0.4069    1.9384   -0.0436 C.3     1  UNL1       -0.0322
     11 C          -1.2922    2.7204    0.8865 C.3     1  UNL1       -0.0465
     12 C          -1.9117    1.7812   -0.1207 C.3     1  UNL1       -0.0375
     13 C          -2.6878    0.5863    0.3590 C.3     1  UNL1       -0.0473
     14 C          -1.9944   -0.7852    0.3684 C.3     1  UNL1       -0.0237
     15 C          -0.9873   -1.0702   -0.7671 C.3     1  UNL1        0.0665
     16 C          -0.8352   -2.5872   -0.9584 C.3     1  UNL1       -0.0358
     17 O          -1.5526   -0.5881   -2.0016 O.3     1  UNL1       -0.3886
     18 H           1.8722   -1.9689   -0.8259 H       1  UNL1        0.0270
     19 H           1.3401   -1.6952    0.8523 H       1  UNL1        0.0270
     20 H           3.4777   -0.5424    0.6935 H       1  UNL1        0.0293
     21 H           3.0667    0.0990   -0.9100 H       1  UNL1        0.0293
     22 H           3.5702    2.4502    0.4320 H       1  UNL1        0.0257
     23 H           2.0170    3.2242    0.6763 H       1  UNL1        0.0257
     24 H           2.3961    2.4736   -0.8952 H       1  UNL1        0.0257
     25 H           3.1073    1.0406    2.2765 H       1  UNL1        0.2102
     26 H           0.0413    2.4551   -0.8858 H       1  UNL1        0.0307
     27 H          -1.4015    3.7847    0.7103 H       1  UNL1        0.0271
     28 H          -1.3051    2.4484    1.9363 H       1  UNL1        0.0271
     29 H          -2.3909    2.2261   -0.9889 H       1  UNL1        0.0304
     30 H          -3.5738    0.5024   -0.2847 H       1  UNL1        0.0269
     31 H          -3.0870    0.7824    1.3625 H       1  UNL1        0.0269
     32 H          -2.8062   -1.5258    0.3187 H       1  UNL1        0.0293
     33 H          -1.5254   -0.9695    1.3433 H       1  UNL1        0.0293
     34 H          -0.4476   -3.0784   -0.0611 H       1  UNL1        0.0257
     35 H          -0.1731   -2.8081   -1.8032 H       1  UNL1        0.0257
     36 H          -1.7986   -3.0488   -1.2065 H       1  UNL1        0.0257
     37 H          -2.4428   -0.9731   -2.0955 H       1  UNL1        0.2102
@<TRIPOS>BOND
     1     3     2    1
     2     4     3    1
     3     5     4    1
     4     6    22    1
     5     6    23    1
     6     6    24    1
     7     7    25    1
     8     8     5    1
     9     8     2    1
    10    10     8    1
    11    11    10    1
    12    12    11    1
    13    12    10    1
    14    13    12    1
    15    14    13    1
    16    15    14    1
    17    15     2    1
    18    16    34    1
    19    16    35    1
    20    16    36    1
    21    17    37    1
    22     2     1    1
    23     3    18    1
    24     3    19    1
    25     4    20    1
    26     4    21    1
    27     5     6    1
    28     7     5    1
    29     8     9    1
    30    10    26    1
    31    11    27    1
    32    11    28    1
    33    12    29    1
    34    13    30    1
    35    13    31    1
    36    14    32    1
    37    14    33    1
    38    15    17    1
    39    15    16    1
