@<TRIPOS>MOLECULE
mol_421_akc_journalpone0109672
>406.sdf
 35 39 0 0 0
SMALL
GASTEIGER

@<TRIPOS>ATOM
      1 H           2.5705   -7.8351    0.7494 H       1  UNL1        0.0423
      2 C           1.7740   -7.0852    0.8479 C.3     1  UNL1        0.0631
      3 C           2.2286   -5.9840    1.7754 C.3     1  UNL1        0.1004
      4 O           1.2623   -4.9576    1.9391 O.2     1  UNL1       -0.4868
      5 C           0.5903   -4.5664    0.8024 C.2     1  UNL1        0.1779
      6 C           0.5804   -5.2554   -0.3603 C.2     1  UNL1        0.0859
      7 C          -0.2428   -4.7511   -1.4873 C.2     1  UNL1        0.1970
      8 O          -0.6314   -5.4603   -2.4079 O.2     1  UNL1       -0.2867
      9 C          -0.4987   -3.2957   -1.5070 C.ar    1  UNL1        0.0331
     10 C          -0.3730   -2.5632   -0.3313 C.ar    1  UNL1        0.0362
     11 C          -0.4046   -1.1685   -0.3587 C.ar    1  UNL1       -0.0501
     12 C          -0.5699   -0.5163   -1.5779 C.ar    1  UNL1       -0.0610
     13 C          -0.7664   -1.2566   -2.7497 C.ar    1  UNL1       -0.0610
     14 C          -0.7511   -2.6527   -2.7125 C.ar    1  UNL1       -0.0502
     15 C          -0.1135   -3.2586    0.9351 C.2     1  UNL1        0.2285
     16 O          -0.3610   -2.7366    2.0064 O.2     1  UNL1       -0.2834
     17 C           1.3857   -6.5374   -0.5293 C.3     1  UNL1        0.1422
     18 H           2.2730   -6.3092   -1.1229 H       1  UNL1        0.0794
     19 O           0.6883   -7.6356   -1.1793 O.3     1  UNL1       -0.4830
     20 C           0.0312   -8.2448   -0.1351 C.ar    1  UNL1        0.1251
     21 C          -1.0699   -9.0527   -0.2843 C.ar    1  UNL1       -0.0196
     22 C          -1.8518   -9.2598    0.8488 C.ar    1  UNL1       -0.0583
     23 C          -1.5081   -8.6523    2.0716 C.ar    1  UNL1       -0.0613
     24 C          -0.3099   -7.9415    2.2159 C.ar    1  UNL1       -0.0546
     25 C           0.4889   -7.8007    1.1011 C.ar    1  UNL1        0.0045
     26 H           3.1465   -5.5229    1.3886 H       1  UNL1        0.0704
     27 H           2.4624   -6.3827    2.7664 H       1  UNL1        0.0704
     28 H          -0.2532   -0.5966    0.5539 H       1  UNL1        0.0625
     29 H          -0.5320    0.5705   -1.6202 H       1  UNL1        0.0618
     30 H          -0.9026   -0.7422   -3.6979 H       1  UNL1        0.0618
     31 H          -0.8812   -3.2239   -3.6291 H       1  UNL1        0.0625
     32 H          -1.3505   -9.4445   -1.2543 H       1  UNL1        0.0654
     33 H          -2.7671   -9.8395    0.7691 H       1  UNL1        0.0619
     34 H          -2.1979   -8.7209    2.9105 H       1  UNL1        0.0618
     35 H          -0.0698   -7.4522    3.1544 H       1  UNL1        0.0622
@<TRIPOS>BOND
     1     2     1    1
     2     3     2    1
     3     3    26    1
     4     3    27    1
     5     4     3    1
     6     5     4    1
     7     6     5    2
     8     7     6    1
     9     8     7    2
    10     9     7    1
    11    10     9   ar
    12    11    10   ar
    13    11    28    1
    14    12    11   ar
    15    12    29    1
    16    13    12   ar
    17    13    30    1
    18    14    13   ar
    19    14     9   ar
    20    14    31    1
    21    15    10    1
    22    15     5    1
    23    16    15    2
    24    17     6    1
    25    17     2    1
    26    17    18    1
    27    19    17    1
    28    20    19    1
    29    21    20   ar
    30    21    32    1
    31    22    21   ar
    32    22    33    1
    33    23    22   ar
    34    23    34    1
    35    24    23   ar
    36    24    35    1
    37    25    24   ar
    38    25     2    1
    39    25    20   ar
