@<TRIPOS>MOLECULE
mol_422_akc_jbmcl201408060
>407.sdf
 44 46 0 0 0
SMALL
GASTEIGER

@<TRIPOS>ATOM
      1 C           1.0153   -0.4461    0.1074 C.3     1  UNL1        0.0004
      2 N           2.2954    0.2299   -0.0752 N.pl3   1  UNL1       -0.3360
      3 C           3.0662   -0.2017   -1.2443 C.3     1  UNL1        0.0004
      4 C           3.0807    0.4943    1.0558 C.ar    1  UNL1        0.0292
      5 C           2.9093   -0.1500    2.2865 C.ar    1  UNL1       -0.0401
      6 C           3.6976    0.1742    3.4047 C.ar    1  UNL1       -0.0523
      7 C           4.6944    1.1589    3.3425 C.ar    1  UNL1       -0.0178
      8 C           4.8720    1.7944    2.1045 C.ar    1  UNL1       -0.0523
      9 C           4.0817    1.4715    0.9922 C.ar    1  UNL1       -0.0401
     10 C           5.5243    1.5165    4.5165 C.ar    1  UNL1       -0.0179
     11 C           5.9457    0.5514    5.4447 C.ar    1  UNL1       -0.0537
     12 C           6.7566    0.8889    6.5371 C.ar    1  UNL1       -0.0563
     13 C           7.1845    2.2059    6.7363 C.ar    1  UNL1       -0.0277
     14 C           8.0742    2.5699    7.9064 C.3     1  UNL1        0.0489
     15 N           9.5236    2.4798    7.6126 N.ar    1  UNL1       -0.3342
     16 C          10.0947    3.5804    6.9728 C.ar    1  UNL1        0.0061
     17 C          11.4005    3.6538    6.7014 C.ar    1  UNL1       -0.0420
     18 C          12.2797    2.5808    7.0730 C.ar    1  UNL1       -0.0162
     19 C          11.8029    1.4848    7.6722 C.ar    1  UNL1        0.1476
     20 O          12.6687    0.4640    8.0255 O.3     1  UNL1       -0.5041
     21 C          10.3174    1.3686    7.9845 C.ar    1  UNL1        0.1291
     22 S           9.7434   -0.0321    8.7518 S.2     1  UNL1       -0.0288
     23 C           6.7580    3.1810    5.8287 C.ar    1  UNL1       -0.0563
     24 C           5.9376    2.8409    4.7449 C.ar    1  UNL1       -0.0537
     25 H           0.3889   -0.2924   -0.7788 H       1  UNL1        0.0428
     26 H           1.1465   -1.5242    0.2487 H       1  UNL1        0.0428
     27 H           0.4572   -0.0322    0.9551 H       1  UNL1        0.0428
     28 H           3.6815    0.6119   -1.6425 H       1  UNL1        0.0428
     29 H           3.7126   -1.0536   -1.0012 H       1  UNL1        0.0428
     30 H           2.3977   -0.5137   -2.0552 H       1  UNL1        0.0428
     31 H           2.1651   -0.9325    2.4045 H       1  UNL1        0.0636
     32 H           3.5024   -0.3549    4.3345 H       1  UNL1        0.0624
     33 H           5.6363    2.5583    1.9795 H       1  UNL1        0.0624
     34 H           4.2396    2.0260    0.0710 H       1  UNL1        0.0636
     35 H           5.6628   -0.4920    5.3229 H       1  UNL1        0.0624
     36 H           7.0473    0.1024    7.2294 H       1  UNL1        0.0621
     37 H           7.8536    3.5966    8.2292 H       1  UNL1        0.0541
     38 H           7.8140    1.9507    8.7710 H       1  UNL1        0.0541
     39 H           9.4352    4.3981    6.7025 H       1  UNL1        0.0809
     40 H          11.8256    4.5222    6.2046 H       1  UNL1        0.0633
     41 H          13.3364    2.6768    6.8576 H       1  UNL1        0.0655
     42 H          12.1121   -0.2255    8.4396 H       1  UNL1        0.2923
     43 H           7.0515    4.2202    5.9546 H       1  UNL1        0.0621
     44 H           5.6164    3.6379    4.0771 H       1  UNL1        0.0624
@<TRIPOS>BOND
     1     1    25    1
     2     1    26    1
     3     1    27    1
     4     2     1    1
     5     3     2    1
     6     3    28    1
     7     3    29    1
     8     3    30    1
     9     4     2    1
    10     5     4   ar
    11     5    31    1
    12     6     5   ar
    13     6    32    1
    14     7     6   ar
    15     8     7   ar
    16     8    33    1
    17     9     8   ar
    18     9     4   ar
    19     9    34    1
    20    10     7    1
    21    11    10   ar
    22    11    35    1
    23    12    11   ar
    24    12    36    1
    25    13    12   ar
    26    14    13    1
    27    14    37    1
    28    14    38    1
    29    15    14    1
    30    16    15   ar
    31    16    39    1
    32    17    16   ar
    33    17    40    1
    34    18    17   ar
    35    18    41    1
    36    19    18   ar
    37    20    19    1
    38    20    42    1
    39    21    19   ar
    40    21    15   ar
    41    22    21    2
    42    23    13   ar
    43    23    43    1
    44    24    23   ar
    45    24    10   ar
    46    24    44    1
