@<TRIPOS>MOLECULE
mol_423_akc_aac02874_14
>408.sdf
 30 32 0 0 0
SMALL
GASTEIGER

@<TRIPOS>ATOM
      1 C           1.4395   -0.9918   -0.6573 C.3     1  UNL1        0.0788
      2 O           2.3813   -0.1337   -0.0268 O.3     1  UNL1       -0.4951
      3 C           3.1058   -0.6637    1.0040 C.ar    1  UNL1        0.1202
      4 C           3.1130   -1.9997    1.4044 C.ar    1  UNL1       -0.0179
      5 C           3.8979   -2.4069    2.4915 C.ar    1  UNL1       -0.0327
      6 C           4.6588   -1.4709    3.2069 C.ar    1  UNL1        0.0676
      7 C           4.6822   -0.1403    2.7772 C.ar    1  UNL1       -0.0327
      8 C           3.9092    0.2549    1.6820 C.ar    1  UNL1       -0.0179
      9 N           5.3999   -1.8949    4.3484 N.ar    1  UNL1       -0.2182
     10 N           5.7421   -3.2115    4.4893 N.ar    1  UNL1       -0.1724
     11 C           6.5241   -3.2425    5.5681 C.ar    1  UNL1        0.0624
     12 C           6.6133   -1.9984    6.2070 C.ar    1  UNL1        0.0796
     13 C           7.2977   -1.6463    7.4702 C.ar    1  UNL1        0.1842
     14 N           7.2674   -0.4684    8.0625 N.ar    1  UNL1       -0.1082
     15 N           8.0087   -0.5973    9.2124 N.ar    1  UNL1       -0.0229
     16 N           8.4894   -1.8267    9.3313 N.ar    1  UNL1       -0.0464
     17 N           8.0498   -2.4775    8.2464 N.ar    1  UNL1       -0.2387
     18 C           5.8544   -1.1398    5.4390 C.ar    1  UNL1        0.1306
     19 N           5.5310    0.1618    5.6824 N.pl3   1  UNL1       -0.3425
     20 H           1.9428   -1.8127   -1.1770 H       1  UNL1        0.0660
     21 H           0.7034   -1.3693    0.0606 H       1  UNL1        0.0660
     22 H           0.9016   -0.4028   -1.4066 H       1  UNL1        0.0660
     23 H           2.5189   -2.7523    0.8959 H       1  UNL1        0.0655
     24 H           3.8778   -3.4532    2.7901 H       1  UNL1        0.0640
     25 H           5.3253    0.6020    3.2424 H       1  UNL1        0.0640
     26 H           3.9360    1.2912    1.3519 H       1  UNL1        0.0655
     27 H           6.9607   -4.1910    5.8515 H       1  UNL1        0.0856
     28 H           8.2940   -3.4500    8.1151 H       1  UNL1        0.1923
     29 H           5.7958    0.5492    6.5927 H       1  UNL1        0.1437
     30 H           4.6286    0.5238    5.3758 H       1  UNL1        0.1437
@<TRIPOS>BOND
     1     1    20    1
     2     1    21    1
     3     1    22    1
     4     2     1    1
     5     3     2    1
     6     4     3   ar
     7     4    23    1
     8     5     4   ar
     9     5    24    1
    10     6     5   ar
    11     7     6   ar
    12     7    25    1
    13     8     7   ar
    14     8     3   ar
    15     8    26    1
    16     9     6    1
    17    10     9   ar
    18    11    10   ar
    19    11    27    1
    20    12    11   ar
    21    13    12    1
    22    14    13   ar
    23    15    14   ar
    24    16    15   ar
    25    17    16   ar
    26    17    13   ar
    27    17    28    1
    28    18    12   ar
    29    18     9   ar
    30    19    18    1
    31    19    29    1
    32    19    30    1
