@<TRIPOS>MOLECULE
mol_424_akc_jejmech201407038
>409.sdf
 46 49 0 0 0
SMALL
GASTEIGER

@<TRIPOS>ATOM
      1 C           0.5219    0.4872   -1.0823 C.3     1  UNL1       -0.0560
      2 C           1.8684    0.9150   -1.7090 C.3     1  UNL1       -0.0127
      3 C           1.5458    1.9534   -2.8071 C.3     1  UNL1       -0.0560
      4 C           2.6939    1.5970   -0.5979 C.3     1  UNL1       -0.0560
      5 C           2.6682   -0.2475   -2.3250 C.ar    1  UNL1       -0.0420
      6 C           2.2175   -1.5728   -2.3262 C.ar    1  UNL1       -0.0577
      7 C           2.9486   -2.5906   -2.9576 C.ar    1  UNL1       -0.0555
      8 C           4.1545   -2.3149   -3.6158 C.ar    1  UNL1       -0.0154
      9 C           4.9130   -3.4050   -4.3470 C.3     1  UNL1        0.0911
     10 N           4.4935   -3.5518   -5.7202 N.pl3   1  UNL1       -0.1848
     11 C           3.2745   -4.0890   -6.0989 C.cat   1  UNL1        0.3794
     12 N           2.2941   -4.6224   -5.4240 N.2     1  UNL1       -0.1134
     13 C           1.2093   -4.6393   -6.4735 C.3     1  UNL1        0.1334
     14 C           1.6372   -3.5867   -7.5272 C.3     1  UNL1        0.0998
     15 N           3.0541   -3.8209   -7.4440 N.pl3   1  UNL1       -0.1856
     16 C           4.0774   -3.0025   -7.8917 C.ar    1  UNL1        0.1309
     17 C           4.9759   -2.8084   -6.8100 C.ar    1  UNL1        0.1311
     18 C           6.0958   -2.0217   -6.9712 C.ar    1  UNL1       -0.0218
     19 C           6.3626   -1.5161   -8.2532 C.ar    1  UNL1       -0.0585
     20 C           5.5118   -1.7945   -9.3404 C.ar    1  UNL1       -0.0585
     21 C           4.3365   -2.5270   -9.1590 C.ar    1  UNL1       -0.0218
     22 C           4.6234   -1.0070   -3.6044 C.ar    1  UNL1       -0.0555
     23 C           3.8962    0.0108   -2.9664 C.ar    1  UNL1       -0.0577
     24 H          -0.0171    1.3531   -0.6791 H       1  UNL1        0.0238
     25 H          -0.1361    0.0146   -1.8209 H       1  UNL1        0.0238
     26 H           0.6668   -0.2166   -0.2544 H       1  UNL1        0.0238
     27 H           0.9632    2.7892   -2.4025 H       1  UNL1        0.0238
     28 H           2.4502    2.3819   -3.2524 H       1  UNL1        0.0238
     29 H           0.9625    1.5012   -3.6181 H       1  UNL1        0.0238
     30 H           2.9203    0.8963    0.2141 H       1  UNL1        0.0238
     31 H           3.6466    1.9903   -0.9686 H       1  UNL1        0.0238
     32 H           2.1460    2.4426   -0.1646 H       1  UNL1        0.0238
     33 H           1.2805   -1.8563   -1.8433 H       1  UNL1        0.0621
     34 H           2.5464   -3.6008   -2.9530 H       1  UNL1        0.0621
     35 H           5.9936   -3.2187   -4.2813 H       1  UNL1        0.0689
     36 H           4.7582   -4.3590   -3.8218 H       1  UNL1        0.0689
     37 H           0.2453   -4.3967   -6.0188 H       1  UNL1        0.0723
     38 H           1.1606   -5.6422   -6.9156 H       1  UNL1        0.0723
     39 H           1.1956   -3.7460   -8.5152 H       1  UNL1        0.0671
     40 H           1.3873   -2.5838   -7.1620 H       1  UNL1        0.0671
     41 H           6.7735   -1.8141   -6.1521 H       1  UNL1        0.0651
     42 H           7.2593   -0.9230   -8.4204 H       1  UNL1        0.0619
     43 H           5.7836   -1.4518  -10.3364 H       1  UNL1        0.0619
     44 H           3.6963   -2.7727   -9.9962 H       1  UNL1        0.0651
     45 H           5.5539   -0.7472   -4.0971 H       1  UNL1        0.0621
     46 H           4.3007    1.0190   -2.9961 H       1  UNL1        0.0621
@<TRIPOS>BOND
     1     1    24    1
     2     1    25    1
     3     1    26    1
     4     2     1    1
     5     3     2    1
     6     3    27    1
     7     3    28    1
     8     3    29    1
     9     4     2    1
    10     4    30    1
    11     4    31    1
    12     4    32    1
    13     5     2    1
    14     6     5   ar
    15     6    33    1
    16     7     6   ar
    17     7    34    1
    18     8     7   ar
    19     9     8    1
    20     9    35    1
    21     9    36    1
    22    10     9    1
    23    11    10    1
    24    12    11    2
    25    13    12    1
    26    13    37    1
    27    13    38    1
    28    14    13    1
    29    14    39    1
    30    14    40    1
    31    15    14    1
    32    15    11    1
    33    16    15    1
    34    17    16   ar
    35    17    10    1
    36    18    17   ar
    37    18    41    1
    38    19    18   ar
    39    19    42    1
    40    20    19   ar
    41    20    43    1
    42    21    20   ar
    43    21    16   ar
    44    21    44    1
    45    22     8   ar
    46    22    45    1
    47    23    22   ar
    48    23     5   ar
    49    23    46    1
