@<TRIPOS>MOLECULE
mol_425_akc_journalpone0105127
>410.sdf
 43 46 0 0 0
SMALL
GASTEIGER

@<TRIPOS>ATOM
      1 O          -5.5319   -3.6387    0.8413 O.2     1  UNL1       -0.5029
      2 C          -4.7509   -3.0064    1.7977 C.2     1  UNL1        0.1725
      3 C          -3.5214   -2.5102    1.5414 C.2     1  UNL1        0.0625
      4 C          -2.7396   -2.5726    0.2211 C.3     1  UNL1        0.0669
      5 S          -3.8746   -2.3402   -1.2295 S.3     1  UNL1       -0.1121
      6 C          -2.8332   -2.4716   -2.6685 C.ar    1  UNL1        0.0090
      7 C          -3.4126   -3.0250   -3.8248 C.ar    1  UNL1       -0.0456
      8 C          -2.6883   -3.1146   -5.0135 C.ar    1  UNL1       -0.0254
      9 C          -1.3855   -2.6418   -5.0528 C.ar    1  UNL1        0.1235
     10 F          -0.6888   -2.7146   -6.1940 F       1  UNL1       -0.2055
     11 C          -0.7973   -2.0802   -3.9253 C.ar    1  UNL1       -0.0254
     12 C          -1.5233   -1.9886   -2.7329 C.ar    1  UNL1       -0.0456
     13 C          -1.8890   -3.8412    0.1925 C.ar    1  UNL1       -0.0295
     14 C          -0.5707   -3.7818    0.6863 C.ar    1  UNL1       -0.0572
     15 C           0.1906   -4.9391    0.8544 C.ar    1  UNL1       -0.0615
     16 C          -0.3450   -6.1767    0.5148 C.ar    1  UNL1       -0.0617
     17 C          -1.6344   -6.2543   -0.0077 C.ar    1  UNL1       -0.0615
     18 C          -2.4041   -5.0979   -0.1627 C.ar    1  UNL1       -0.0572
     19 C          -2.7542   -1.8605    2.6511 C.2     1  UNL1        0.1949
     20 O          -1.6596   -1.3428    2.4524 O.2     1  UNL1       -0.2868
     21 C          -3.3236   -1.8386    4.0088 C.ar    1  UNL1        0.0330
     22 C          -4.5866   -2.3600    4.2546 C.ar    1  UNL1        0.0362
     23 C          -5.1235   -2.3265    5.5478 C.ar    1  UNL1       -0.0501
     24 C          -4.3924   -1.7679    6.5957 C.ar    1  UNL1       -0.0610
     25 C          -3.1239   -1.2446    6.3541 C.ar    1  UNL1       -0.0610
     26 C          -2.5884   -1.2791    5.0648 C.ar    1  UNL1       -0.0502
     27 C          -5.3679   -2.9459    3.1592 C.2     1  UNL1        0.2282
     28 O          -6.4991   -3.3684    3.3741 O.2     1  UNL1       -0.2834
     29 H          -5.2016   -3.4142   -0.0470 H       1  UNL1        0.2923
     30 H          -2.0797   -1.7007    0.1514 H       1  UNL1        0.0516
     31 H          -4.4393   -3.3851   -3.8101 H       1  UNL1        0.0629
     32 H          -3.1364   -3.5381   -5.9069 H       1  UNL1        0.0646
     33 H           0.2195   -1.7044   -3.9832 H       1  UNL1        0.0646
     34 H          -1.0491   -1.5193   -1.8773 H       1  UNL1        0.0629
     35 H          -0.1368   -2.8290    0.9888 H       1  UNL1        0.0621
     36 H           1.1921   -4.8739    1.2726 H       1  UNL1        0.0618
     37 H           0.2376   -7.0816    0.6666 H       1  UNL1        0.0618
     38 H          -2.0517   -7.2224   -0.2727 H       1  UNL1        0.0618
     39 H          -3.4187   -5.2048   -0.5383 H       1  UNL1        0.0621
     40 H          -6.1164   -2.7330    5.7420 H       1  UNL1        0.0625
     41 H          -4.8136   -1.7411    7.5983 H       1  UNL1        0.0618
     42 H          -2.5526   -0.8062    7.1695 H       1  UNL1        0.0618
     43 H          -1.5959   -0.8681    4.8885 H       1  UNL1        0.0625
@<TRIPOS>BOND
     1     1    29    1
     2     2     1    1
     3     3     2    2
     4     5     4    1
     5     6     5    1
     6     7     6   ar
     7     7    31    1
     8     8     7   ar
     9     8    32    1
    10     9     8   ar
    11    10     9    1
    12    11     9   ar
    13    11    33    1
    14    12    11   ar
    15    12     6   ar
    16    12    34    1
    17    13     4    1
    18    14    13   ar
    19    14    35    1
    20    15    14   ar
    21    15    36    1
    22    16    15   ar
    23    16    37    1
    24    17    16   ar
    25    17    38    1
    26    18    17   ar
    27    18    13   ar
    28    18    39    1
    29    19     3    1
    30    20    19    2
    31    21    19    1
    32    22    21   ar
    33    23    22   ar
    34    23    40    1
    35    24    23   ar
    36    24    41    1
    37    25    24   ar
    38    25    42    1
    39    26    25   ar
    40    26    21   ar
    41    26    43    1
    42    27    22    1
    43    27     2    1
    44    28    27    2
    45     4    30    1
    46     4     3    1
