@<TRIPOS>MOLECULE
mol_427_akc_journalpntd0003093
>412.sdf
 51 54 0 0 0
SMALL
GASTEIGER

@<TRIPOS>ATOM
      1 O           0.9232   -0.2017   -0.0902 O.3     1  UNL1       -0.5065
      2 C           2.2842   -0.1057   -0.0995 C.ar    1  UNL1        0.1238
      3 C           3.0085   -1.2871   -0.2084 C.ar    1  UNL1        0.0218
      4 C           4.3978   -1.2253   -0.2610 C.ar    1  UNL1        0.1271
      5 O           5.1356   -2.3717   -0.3570 O.3     1  UNL1       -0.5063
      6 C           5.0675   -0.0006   -0.2126 C.ar    1  UNL1        0.0395
      7 C           6.5683    0.0488   -0.3585 C.3     1  UNL1        0.0204
      8 C           7.0454    1.4839   -0.5685 C.3     1  UNL1        0.1483
      9 O           6.7294    1.9312   -1.9148 O.3     1  UNL1       -0.4534
     10 C           7.5358    1.5355   -2.9187 C.2     1  UNL1        0.3398
     11 O           8.4565    0.7362   -2.8230 O.2     1  UNL1       -0.2449
     12 C           7.2339    2.2868   -4.1673 C.ar    1  UNL1        0.0661
     13 C           7.9568    1.9523   -5.3291 C.ar    1  UNL1       -0.0023
     14 C           7.7942    2.7168   -6.4819 C.ar    1  UNL1        0.1628
     15 O           8.4879    2.4540   -7.6297 O.3     1  UNL1       -0.5032
     16 C           6.9297    3.8045   -6.4849 C.ar    1  UNL1        0.2006
     17 O           6.7919    4.5848   -7.6003 O.3     1  UNL1       -0.5009
     18 C           6.2062    4.1256   -5.3451 C.ar    1  UNL1        0.1628
     19 O           5.3872    5.2168   -5.3404 O.3     1  UNL1       -0.5032
     20 C           6.3371    3.3668   -4.1871 C.ar    1  UNL1       -0.0023
     21 C           6.2892    2.3604    0.4587 C.3     1  UNL1        0.1624
     22 O           4.8890    2.4214    0.1303 O.3     1  UNL1       -0.4800
     23 C           4.3224    1.1759   -0.0216 C.ar    1  UNL1        0.1318
     24 C           2.9264    1.1264    0.0045 C.ar    1  UNL1        0.0221
     25 C           6.8606    3.7650    0.6341 C.ar    1  UNL1        0.0034
     26 C           7.3175    4.5335   -0.4516 C.ar    1  UNL1       -0.0095
     27 C           7.9743    5.7410   -0.2369 C.ar    1  UNL1        0.1623
     28 O           8.5424    6.4404   -1.2650 O.3     1  UNL1       -0.5032
     29 C           8.1127    6.2446    1.0457 C.ar    1  UNL1        0.2006
     30 O           8.7562    7.4321    1.2588 O.3     1  UNL1       -0.5009
     31 C           7.6169    5.5303    2.1255 C.ar    1  UNL1        0.1623
     32 O           7.7661    6.0188    3.3913 O.3     1  UNL1       -0.5032
     33 C           6.9980    4.2981    1.9335 C.ar    1  UNL1       -0.0095
     34 H           0.5503    0.6962   -0.0865 H       1  UNL1        0.2921
     35 H           2.4782   -2.2317   -0.2659 H       1  UNL1        0.0691
     36 H           4.5396   -3.1353   -0.2841 H       1  UNL1        0.2921
     37 H           6.8737   -0.5818   -1.1995 H       1  UNL1        0.0353
     38 H           7.0160   -0.3551    0.5586 H       1  UNL1        0.0353
     39 H           8.1301    1.5541   -0.4109 H       1  UNL1        0.0778
     40 H           8.6460    1.1135   -5.3098 H       1  UNL1        0.0663
     41 H           9.0713    1.6900   -7.4722 H       1  UNL1        0.2923
     42 H           7.3808    4.1696   -8.2641 H       1  UNL1        0.2924
     43 H           5.4826    5.6082   -6.2331 H       1  UNL1        0.2923
     44 H           5.7514    3.6431   -3.3150 H       1  UNL1        0.0663
     45 H           6.3778    1.8797    1.4452 H       1  UNL1        0.0822
     46 H           2.3644    2.0486    0.1133 H       1  UNL1        0.0691
     47 H           7.1770    4.1889   -1.4663 H       1  UNL1        0.0659
     48 H           8.6166    5.8385   -2.0274 H       1  UNL1        0.2923
     49 H           8.9962    7.7348    0.3589 H       1  UNL1        0.2924
     50 H           8.2310    6.8720    3.2699 H       1  UNL1        0.2923
     51 H           6.6454    3.7500    2.8036 H       1  UNL1        0.0659
@<TRIPOS>BOND
     1     1    34    1
     2     2     1    1
     3     3     2   ar
     4     3    35    1
     5     4     3   ar
     6     5     4    1
     7     5    36    1
     8     6     4   ar
     9     7     6    1
    10     7    37    1
    11     7    38    1
    12     8     7    1
    13    10     9    1
    14    11    10    2
    15    12    10    1
    16    13    12   ar
    17    13    40    1
    18    14    13   ar
    19    15    14    1
    20    15    41    1
    21    16    14   ar
    22    17    16    1
    23    17    42    1
    24    18    16   ar
    25    19    18    1
    26    19    43    1
    27    20    18   ar
    28    20    12   ar
    29    20    44    1
    30    21     8    1
    31    21    45    1
    32    22    21    1
    33    23    22    1
    34    23     6   ar
    35    24    23   ar
    36    24     2   ar
    37    24    46    1
    38    25    21    1
    39    26    25   ar
    40    26    47    1
    41    27    26   ar
    42    28    27    1
    43    28    48    1
    44    29    27   ar
    45    30    29    1
    46    30    49    1
    47    31    29   ar
    48    32    31    1
    49    32    50    1
    50    33    31   ar
    51    33    25   ar
    52    33    51    1
    53     8     9    1
    54     8    39    1
