@<TRIPOS>MOLECULE
mol_428_akc_jbmcl201406030
>413.sdf
 45 49 0 0 0
SMALL
GASTEIGER

@<TRIPOS>ATOM
      1 C          -1.1625    1.3405    0.2619 C.3     1  UNL1       -0.0055
      2 N           0.3321    1.6325    0.3728 N.4     1  UNL1        0.2430
      3 C           0.9285    2.4222   -0.8111 C.3     1  UNL1       -0.0271
      4 C           0.3604    3.8507   -0.9090 C.3     1  UNL1        0.0152
      5 C           0.2589    4.4661    0.4434 C.ar    1  UNL1       -0.0089
      6 C           0.4215    3.7313    1.6034 C.ar    1  UNL1        0.0658
      7 C           0.7007    2.2842    1.6870 C.3     1  UNL1        0.0099
      8 N           0.2731    4.5783    2.6671 N.ar    1  UNL1       -0.3536
      9 C          -0.0596    5.8385    2.2095 C.ar    1  UNL1        0.0471
     10 C          -0.3549    6.9981    2.9285 C.ar    1  UNL1       -0.0378
     11 C          -0.6824    8.1451    2.1979 C.ar    1  UNL1       -0.0598
     12 C          -0.7059    8.1287    0.8031 C.ar    1  UNL1       -0.0611
     13 C          -0.3970    6.9609    0.0989 C.ar    1  UNL1       -0.0523
     14 C          -0.0741    5.7919    0.8158 C.ar    1  UNL1        0.0035
     15 C          -1.4783    0.6924   -1.0591 C.ar    1  UNL1       -0.0023
     16 C          -0.9016   -0.5503   -1.3664 C.ar    1  UNL1       -0.0458
     17 C          -0.7844   -0.9641   -2.6962 C.ar    1  UNL1       -0.0174
     18 C          -0.0561   -2.1160   -3.0251 C.ar    1  UNL1       -0.0540
     19 C           0.1746   -2.4457   -4.3609 C.ar    1  UNL1       -0.0612
     20 C          -0.3442   -1.6453   -5.3742 C.ar    1  UNL1       -0.0612
     21 C          -1.1137   -0.5242   -5.0601 C.ar    1  UNL1       -0.0540
     22 C          -1.3394   -0.1666   -3.7240 C.ar    1  UNL1       -0.0179
     23 C          -2.0635    0.9854   -3.3878 C.ar    1  UNL1       -0.0536
     24 C          -2.1298    1.4180   -2.0635 C.ar    1  UNL1       -0.0530
     25 H          -1.7099    2.2794    0.3976 H       1  UNL1        0.0867
     26 H          -1.4195    0.6656    1.0864 H       1  UNL1        0.0867
     27 H           0.7959    0.7207    0.3566 H       1  UNL1        0.2041
     28 H           2.0090    2.4464   -0.6311 H       1  UNL1        0.0818
     29 H           0.7706    1.8545   -1.7315 H       1  UNL1        0.0818
     30 H           1.0064    4.4513   -1.5587 H       1  UNL1        0.0366
     31 H          -0.6325    3.8336   -1.3687 H       1  UNL1        0.0366
     32 H           0.1451    1.7807    2.4819 H       1  UNL1        0.0882
     33 H           1.7726    2.1035    1.8304 H       1  UNL1        0.0882
     34 H           0.3592    4.3452    3.6492 H       1  UNL1        0.1658
     35 H          -0.3381    7.0224    4.0122 H       1  UNL1        0.0638
     36 H          -0.9245    9.0652    2.7265 H       1  UNL1        0.0618
     37 H          -0.9672    9.0326    0.2607 H       1  UNL1        0.0618
     38 H          -0.4226    6.9648   -0.9866 H       1  UNL1        0.0624
     39 H          -0.4439   -1.1496   -0.5812 H       1  UNL1        0.0628
     40 H           0.3656   -2.7516   -2.2509 H       1  UNL1        0.0624
     41 H           0.7677   -3.3205   -4.6085 H       1  UNL1        0.0618
     42 H          -0.1471   -1.8935   -6.4151 H       1  UNL1        0.0618
     43 H          -1.5090    0.0846   -5.8707 H       1  UNL1        0.0624
     44 H          -2.5283    1.5883   -4.1666 H       1  UNL1        0.0624
     45 H          -2.6263    2.3629   -1.8480 H       1  UNL1        0.0622
@<TRIPOS>UNITY_ATOM_ATTR
2 1
charge 1
@<TRIPOS>BOND
     1     1    25    1
     2     1    26    1
     3     3     2    1
     4     3    28    1
     5     3    29    1
     6     4     3    1
     7     4    30    1
     8     4    31    1
     9     5     4    1
    10     6     5   ar
    11     7     6    1
    12     7     2    1
    13     7    32    1
    14     7    33    1
    15     8     6   ar
    16     8    34    1
    17     9     8   ar
    18    10     9   ar
    19    10    35    1
    20    11    10   ar
    21    11    36    1
    22    12    11   ar
    23    12    37    1
    24    13    12   ar
    25    13    38    1
    26    14    13   ar
    27    14     5   ar
    28    14     9   ar
    29    15     1    1
    30    16    15   ar
    31    16    39    1
    32    17    16   ar
    33    18    17   ar
    34    18    40    1
    35    19    18   ar
    36    19    41    1
    37    20    19   ar
    38    20    42    1
    39    21    20   ar
    40    21    43    1
    41    22    21   ar
    42    22    17   ar
    43    23    22   ar
    44    23    44    1
    45    24    23   ar
    46    24    15   ar
    47    24    45    1
    48     2    27    1
    49     2     1    1
