@<TRIPOS>MOLECULE
mol_429_akc_molecules191220374
>414.sdf
 40 41 0 0 0
SMALL
GASTEIGER

@<TRIPOS>ATOM
      1 C           1.0492   -0.0892    0.1115 C.3     1  UNL1        0.0790
      2 O           2.4740   -0.0993    0.0838 O.3     1  UNL1       -0.4914
      3 C           3.1027    1.1201    0.0542 C.ar    1  UNL1        0.1642
      4 C           2.4725    2.3637    0.0570 C.ar    1  UNL1       -0.0075
      5 C           3.2274    3.5520    0.0323 C.ar    1  UNL1        0.0004
      6 C           2.5262    4.8583    0.0422 C.2     1  UNL1        0.0530
      7 N           1.2348    4.8718    0.0792 N.2     1  UNL1       -0.1875
      8 N           0.6016    6.0726    0.0846 N.am    1  UNL1       -0.2034
      9 C          -0.7785    6.1623    0.1235 C.2     1  UNL1        0.2561
     10 O          -1.3573    7.2424    0.1270 O.2     1  UNL1       -0.2691
     11 C          -1.4996    4.8563    0.1761 C.2     1  UNL1        0.0024
     12 C          -2.8360    4.7843    0.2578 C.2     1  UNL1       -0.0496
     13 C          -3.5819    3.5182    0.3672 C.ar    1  UNL1       -0.0249
     14 C          -3.0514    2.3783    0.9925 C.ar    1  UNL1       -0.0546
     15 C          -3.8171    1.2173    1.1360 C.ar    1  UNL1       -0.0612
     16 C          -5.1270    1.1840    0.6654 C.ar    1  UNL1       -0.0617
     17 C          -5.6694    2.3087    0.0483 C.ar    1  UNL1       -0.0612
     18 C          -4.9022    3.4685   -0.0983 C.ar    1  UNL1       -0.0546
     19 C           4.6197    3.5041   -0.0008 C.ar    1  UNL1       -0.0190
     20 C           5.2393    2.2458   -0.0088 C.ar    1  UNL1        0.1716
     21 C           4.5006    1.0640    0.0261 C.ar    1  UNL1        0.1893
     22 O           5.1094   -0.1607    0.0593 O.3     1  UNL1       -0.5018
     23 N           6.6859    2.1959   -0.0469 N.pl3   1  UNL1        0.0602
     24 O           7.2847    2.7798    0.8678 O.2     1  UNL1       -0.1260
     25 O           7.2158    1.6553   -1.0264 O.2     1  UNL1       -0.1260
     26 H           0.6784    0.3841    1.0269 H       1  UNL1        0.0660
     27 H           0.6388    0.3966   -0.7801 H       1  UNL1        0.0660
     28 H           0.7073   -1.1286    0.1110 H       1  UNL1        0.0660
     29 H           1.3885    2.4350    0.0816 H       1  UNL1        0.0662
     30 H           3.1336    5.7803    0.0175 H       1  UNL1        0.0851
     31 H           1.1206    6.9440    0.0640 H       1  UNL1        0.1775
     32 H          -0.8947    3.9619    0.1544 H       1  UNL1        0.0670
     33 H          -3.4293    5.6966    0.2516 H       1  UNL1        0.0625
     34 H          -2.0441    2.3836    1.4001 H       1  UNL1        0.0623
     35 H          -3.3962    0.3462    1.6312 H       1  UNL1        0.0618
     36 H          -5.7284    0.2870    0.7895 H       1  UNL1        0.0618
     37 H          -6.6951    2.2892   -0.3109 H       1  UNL1        0.0618
     38 H          -5.3496    4.3366   -0.5774 H       1  UNL1        0.0623
     39 H           5.2148    4.4135   -0.0197 H       1  UNL1        0.0648
     40 H           4.3898   -0.8241    0.0580 H       1  UNL1        0.2924
@<TRIPOS>BOND
     1     1    26    1
     2     1    27    1
     3     1    28    1
     4     2     1    1
     5     3     2    1
     6     4     3   ar
     7     4    29    1
     8     5     4   ar
     9     6     5    1
    10     6    30    1
    11     7     6    2
    12     8     7    1
    13     8    31    1
    14     9     8   am
    15    10     9    2
    16    11     9    1
    17    11    32    1
    18    12    11    2
    19    12    33    1
    20    13    12    1
    21    14    13   ar
    22    14    34    1
    23    15    14   ar
    24    15    35    1
    25    16    15   ar
    26    16    36    1
    27    17    16   ar
    28    17    37    1
    29    18    17   ar
    30    18    13   ar
    31    18    38    1
    32    19     5   ar
    33    19    39    1
    34    20    19   ar
    35    21    20   ar
    36    21     3   ar
    37    22    21    1
    38    22    40    1
    39    23    20    1
    40    24    23    2
    41    25    23    2
