@<TRIPOS>MOLECULE
mol_430_akc_jijpddr201410005
>415.sdf
 71 73 0 0 0
SMALL
GASTEIGER

@<TRIPOS>ATOM
      1 C           7.4440   -8.0529    4.7573 C.3     1  UNL1       -0.0253
      2 C           7.4954   -6.5391    5.0067 C.3     1  UNL1        0.1068
      3 C           6.3793   -6.0676    5.9430 C.3     1  UNL1       -0.0253
      4 C           8.8543   -6.2007    5.6360 C.3     1  UNL1       -0.0253
      5 O           7.4713   -5.7908    3.7608 O.3     1  UNL1       -0.4447
      6 C           6.4689   -5.9904    2.8818 C.2     1  UNL1        0.4011
      7 O           5.5119   -6.7290    3.0139 O.2     1  UNL1       -0.2265
      8 N           6.7466   -5.2685    1.7553 N.am    1  UNL1       -0.2753
      9 C           6.0162   -5.4785    0.5107 C.3     1  UNL1        0.0611
     10 C           4.4811   -5.2062    0.6327 C.3     1  UNL1       -0.0065
     11 C           4.1250   -3.7377    0.6847 C.ar    1  UNL1       -0.0455
     12 C           3.3887   -3.1462   -0.3510 C.ar    1  UNL1       -0.0585
     13 C           3.1080   -1.7794   -0.3285 C.ar    1  UNL1       -0.0615
     14 C           3.5496   -0.9963    0.7385 C.ar    1  UNL1       -0.0617
     15 C           4.2496   -1.5800    1.7885 C.ar    1  UNL1       -0.0615
     16 C           4.5281   -2.9494    1.7699 C.ar    1  UNL1       -0.0585
     17 C           6.6208   -4.7110   -0.7069 C.3     1  UNL1        0.1134
     18 O           6.0254   -5.2193   -1.9100 O.3     1  UNL1       -0.3847
     19 C           8.1543   -4.8713   -0.8496 C.3     1  UNL1       -0.0031
     20 N           8.7266   -4.0595   -2.0498 N.4     1  UNL1        0.2446
     21 C           8.2097   -4.4479   -3.4399 C.3     1  UNL1        0.0096
     22 C           8.7126   -5.8508   -3.8163 C.3     1  UNL1        0.0098
     23 N          10.2492   -5.8474   -3.8920 N.4     1  UNL1        0.2460
     24 C          10.8149   -5.2218   -5.1723 C.3     1  UNL1       -0.0055
     25 C          10.1678   -5.7951   -6.4027 C.ar    1  UNL1       -0.0029
     26 C           9.2528   -5.0356   -7.1511 C.ar    1  UNL1       -0.0535
     27 C           8.5271   -5.6275   -8.1859 C.ar    1  UNL1       -0.0613
     28 C           8.7155   -6.9734   -8.4907 C.ar    1  UNL1       -0.0617
     29 C           9.6477   -7.7260   -7.7809 C.ar    1  UNL1       -0.0613
     30 C          10.3774   -7.1411   -6.7465 C.ar    1  UNL1       -0.0535
     31 C          10.8957   -5.3349   -2.6060 C.3     1  UNL1        0.0098
     32 C          10.2595   -4.0157   -2.0718 C.3     1  UNL1        0.0096
     33 H           7.6474   -8.6164    5.6732 H       1  UNL1        0.0268
     34 H           6.4657   -8.3805    4.3936 H       1  UNL1        0.0268
     35 H           8.1759   -8.3438    3.9950 H       1  UNL1        0.0268
     36 H           6.4241   -6.5854    6.9069 H       1  UNL1        0.0268
     37 H           6.4564   -4.9895    6.1262 H       1  UNL1        0.0268
     38 H           5.3867   -6.2378    5.5152 H       1  UNL1        0.0268
     39 H           9.6729   -6.4808    4.9624 H       1  UNL1        0.0268
     40 H           8.9501   -5.1220    5.8048 H       1  UNL1        0.0268
     41 H           8.9990   -6.7164    6.5908 H       1  UNL1        0.0268
     42 H           7.6138   -4.7599    1.8450 H       1  UNL1        0.1524
     43 H           6.1099   -6.5542    0.3021 H       1  UNL1        0.0530
     44 H           3.9784   -5.6682   -0.2264 H       1  UNL1        0.0332
     45 H           4.0380   -5.6956    1.5052 H       1  UNL1        0.0332
     46 H           2.9989   -3.7414   -1.1728 H       1  UNL1        0.0620
     47 H           2.5215   -1.3255   -1.1212 H       1  UNL1        0.0618
     48 H           3.3164    0.0653    0.7658 H       1  UNL1        0.0618
     49 H           4.5558   -0.9769    2.6401 H       1  UNL1        0.0618
     50 H           5.0344   -3.3891    2.6222 H       1  UNL1        0.0620
     51 H           6.4100   -3.6379   -0.6451 H       1  UNL1        0.0666
     52 H           5.0768   -4.9719   -1.9003 H       1  UNL1        0.2101
     53 H           8.6710   -4.4768    0.0295 H       1  UNL1        0.0841
     54 H           8.4417   -5.9144   -1.0028 H       1  UNL1        0.0841
     55 H           8.3993   -3.0920   -1.8917 H       1  UNL1        0.2039
     56 H           7.1306   -4.3348   -3.4870 H       1  UNL1        0.0868
     57 H           8.6096   -3.6925   -4.1257 H       1  UNL1        0.0868
     58 H           8.4523   -6.6017   -3.0643 H       1  UNL1        0.0868
     59 H           8.3032   -6.1943   -4.7668 H       1  UNL1        0.0868
     60 H          10.5177   -6.8400   -3.9797 H       1  UNL1        0.2041
     61 H          10.6656   -4.1394   -5.0990 H       1  UNL1        0.0867
     62 H          11.8920   -5.4223   -5.1782 H       1  UNL1        0.0867
     63 H           9.0779   -3.9818   -6.9425 H       1  UNL1        0.0622
     64 H           7.8118   -5.0439   -8.7644 H       1  UNL1        0.0618
     65 H           8.1467   -7.4343   -9.2974 H       1  UNL1        0.0618
     66 H           9.8032   -8.7722   -8.0416 H       1  UNL1        0.0618
     67 H          11.0992   -7.7595   -6.2160 H       1  UNL1        0.0622
     68 H          11.9661   -5.2071   -2.7979 H       1  UNL1        0.0868
     69 H          10.7699   -6.1360   -1.8702 H       1  UNL1        0.0868
     70 H          10.5263   -3.1741   -2.7206 H       1  UNL1        0.0868
     71 H          10.5997   -3.7899   -1.0562 H       1  UNL1        0.0868
@<TRIPOS>UNITY_ATOM_ATTR
20 1
charge 1
23 1
charge 1
@<TRIPOS>BOND
     1     1    33    1
     2     1    34    1
     3     1    35    1
     4     2     1    1
     5     3     2    1
     6     3    36    1
     7     3    37    1
     8     3    38    1
     9     4     2    1
    10     4    39    1
    11     4    40    1
    12     4    41    1
    13     5     2    1
    14     6     5    1
    15     7     6    2
    16     8     6   am
    17     8    42    1
    18     9     8    1
    19     9    43    1
    20    10     9    1
    21    10    44    1
    22    10    45    1
    23    11    10    1
    24    12    11   ar
    25    12    46    1
    26    13    12   ar
    27    13    47    1
    28    14    13   ar
    29    14    48    1
    30    15    14   ar
    31    15    49    1
    32    16    15   ar
    33    16    11   ar
    34    16    50    1
    35    18    17    1
    36    18    52    1
    37    19    17    1
    38    19    53    1
    39    19    54    1
    40    20    19    1
    41    20    55    1
    42    21    20    1
    43    21    56    1
    44    21    57    1
    45    22    21    1
    46    22    58    1
    47    22    59    1
    48    23    22    1
    49    24    61    1
    50    24    62    1
    51    25    24    1
    52    26    25   ar
    53    26    63    1
    54    27    26   ar
    55    27    64    1
    56    28    27   ar
    57    28    65    1
    58    29    28   ar
    59    29    66    1
    60    30    29   ar
    61    30    25   ar
    62    30    67    1
    63    31    23    1
    64    31    68    1
    65    31    69    1
    66    32    31    1
    67    32    20    1
    68    32    70    1
    69    32    71    1
    70    17    51    1
    71    17     9    1
    72    23    24    1
    73    23    60    1
