@<TRIPOS>MOLECULE
mol_431_akc_journalpone0107994
>416.sdf
 49 51 0 0 0
SMALL
GASTEIGER

@<TRIPOS>ATOM
      1 N          24.7192   -6.5546   -2.9118 N.4     1  UNL1        0.2185
      2 C          23.3918   -6.7019   -3.5544 C.3     1  UNL1       -0.0349
      3 C          22.3294   -7.1367   -2.5455 C.3     1  UNL1       -0.0044
      4 C          22.1541   -6.2238   -1.3344 C.3     1  UNL1        0.0288
      5 C          21.8482   -4.8101   -1.7610 C.2     1  UNL1        0.2135
      6 O          22.7676   -4.0701   -2.1066 O.2     1  UNL1       -0.2758
      7 N          20.5143   -4.5101   -1.8101 N.am    1  UNL1       -0.3112
      8 C          20.0588   -3.1492   -2.0125 C.3     1  UNL1        0.0368
      9 C          18.5596   -3.0662   -2.1111 C.ar    1  UNL1       -0.0302
     10 C          17.7861   -3.0722   -0.9504 C.ar    1  UNL1       -0.0553
     11 C          16.4027   -2.8921   -1.0270 C.ar    1  UNL1       -0.0402
     12 C          15.7517   -2.6724   -2.2552 C.ar    1  UNL1        0.0314
     13 N          14.3439   -2.4098   -2.3529 N.pl3   1  UNL1       -0.3114
     14 C          13.7075   -1.8553   -1.2363 C.2     1  UNL1        0.0829
     15 C          13.9399   -0.6248   -0.7661 C.2     1  UNL1        0.0106
     16 C          13.7366   -0.3475    0.6713 C.2     1  UNL1        0.1886
     17 O          13.6798    0.7836    1.1239 O.2     1  UNL1       -0.2872
     18 C          13.8270   -1.5444    1.5306 C.ar    1  UNL1        0.0326
     19 C          13.3218   -2.7498    1.0476 C.ar    1  UNL1        0.0343
     20 C          13.4918   -3.9375    1.7610 C.ar    1  UNL1       -0.0502
     21 C          14.2839   -3.9233    2.9080 C.ar    1  UNL1       -0.0610
     22 C          14.8632   -2.7286    3.3516 C.ar    1  UNL1       -0.0610
     23 C          14.6073   -1.5262    2.6864 C.ar    1  UNL1       -0.0502
     24 C          12.9399   -2.8177   -0.3736 C.2     1  UNL1        0.2078
     25 O          12.2632   -3.7199   -0.8433 O.2     1  UNL1       -0.2853
     26 C          16.5127   -2.7780   -3.4183 C.ar    1  UNL1       -0.0402
     27 C          17.9046   -2.9636   -3.3476 C.ar    1  UNL1       -0.0553
     28 H          25.4381   -6.3509   -3.6166 H       1  UNL1        0.1994
     29 H          24.7223   -5.7524   -2.2629 H       1  UNL1        0.1994
     30 H          25.0125   -7.3969   -2.4042 H       1  UNL1        0.1994
     31 H          23.1597   -5.7471   -4.0330 H       1  UNL1        0.0813
     32 H          23.5067   -7.4608   -4.3347 H       1  UNL1        0.0813
     33 H          21.3710   -7.2081   -3.0733 H       1  UNL1        0.0321
     34 H          22.5659   -8.1451   -2.1843 H       1  UNL1        0.0321
     35 H          21.3611   -6.6017   -0.6847 H       1  UNL1        0.0360
     36 H          23.0680   -6.1993   -0.7193 H       1  UNL1        0.0360
     37 H          19.8364   -5.1551   -1.4215 H       1  UNL1        0.1490
     38 H          20.4063   -2.5552   -1.1580 H       1  UNL1        0.0512
     39 H          20.5430   -2.7307   -2.9034 H       1  UNL1        0.0512
     40 H          18.2476   -3.1795    0.0300 H       1  UNL1        0.0621
     41 H          15.8589   -2.9026   -0.0898 H       1  UNL1        0.0636
     42 H          13.8809   -3.2967   -2.5863 H       1  UNL1        0.1523
     43 H          14.4886    0.1275   -1.3245 H       1  UNL1        0.0676
     44 H          13.1006   -4.8760    1.3725 H       1  UNL1        0.0625
     45 H          14.4932   -4.8553    3.4293 H       1  UNL1        0.0618
     46 H          15.5380   -2.7404    4.2052 H       1  UNL1        0.0618
     47 H          15.0840   -0.6045    3.0139 H       1  UNL1        0.0625
     48 H          16.0360   -2.6614   -4.3884 H       1  UNL1        0.0636
     49 H          18.4754   -2.9879   -4.2725 H       1  UNL1        0.0621
@<TRIPOS>UNITY_ATOM_ATTR
1 1
charge 1
@<TRIPOS>BOND
     1     1    28    1
     2     1    29    1
     3     1    30    1
     4     2     1    1
     5     2    31    1
     6     2    32    1
     7     3     2    1
     8     3    33    1
     9     3    34    1
    10     4     3    1
    11     4    35    1
    12     4    36    1
    13     5     4    1
    14     6     5    2
    15     7     5   am
    16     7    37    1
    17     8     7    1
    18     8    38    1
    19     8    39    1
    20     9     8    1
    21    10     9   ar
    22    10    40    1
    23    11    10   ar
    24    11    41    1
    25    12    11   ar
    26    13    12    1
    27    13    42    1
    28    14    13    1
    29    15    14    2
    30    15    43    1
    31    16    15    1
    32    17    16    2
    33    18    16    1
    34    19    18   ar
    35    20    19   ar
    36    20    44    1
    37    21    20   ar
    38    21    45    1
    39    22    21   ar
    40    22    46    1
    41    23    22   ar
    42    23    18   ar
    43    23    47    1
    44    24    19    1
    45    24    14    1
    46    25    24    2
    47    26    12   ar
    48    26    48    1
    49    27    26   ar
    50    27     9   ar
    51    27    49    1
