@<TRIPOS>MOLECULE
mol_433_akc_journalpone0091259
>418.sdf
 16 16 0 0 0
SMALL
GASTEIGER

@<TRIPOS>ATOM
      1 O           1.4601   -0.9433   -0.4130 O.3     1  UNL1       -0.3873
      2 C           2.4361   -0.0364    0.0824 C.3     1  UNL1        0.1020
      3 C           2.7705    0.9712   -0.9769 C.ar    1  UNL1        0.1339
      4 C           2.5904    2.2910   -0.8102 C.ar    1  UNL1        0.0292
      5 C           2.9332    3.2043   -1.9141 C.ar    1  UNL1        0.2263
      6 O           2.7998    4.4203   -1.8279 O.2     1  UNL1       -0.2838
      7 C           3.4544    2.5890   -3.1587 C.ar    1  UNL1        0.1992
      8 O           3.7715    3.3992   -4.2274 O.3     1  UNL1       -0.5012
      9 C           3.5925    1.2624   -3.1883 C.ar    1  UNL1        0.1372
     10 O           3.2815    0.4193   -2.1472 O.2     1  UNL1       -0.4616
     11 H           1.7765   -1.2488   -1.2816 H       1  UNL1        0.2100
     12 H           2.0324    0.4335    0.9846 H       1  UNL1        0.0638
     13 H           3.3275   -0.6047    0.3663 H       1  UNL1        0.0638
     14 H           2.1934    2.7341    0.0934 H       1  UNL1        0.0691
     15 H           3.5600    4.3086   -3.9269 H       1  UNL1        0.2924
     16 H           3.9642    0.7166   -4.0440 H       1  UNL1        0.1069
@<TRIPOS>BOND
     1     1    11    1
     2     2     1    1
     3     2    12    1
     4     2    13    1
     5     3     2    1
     6     4     3   ar
     7     4    14    1
     8     5     4   ar
     9     6     5    2
    10     7     5   ar
    11     8     7    1
    12     8    15    1
    13     9     7   ar
    14     9    16    1
    15    10     9   ar
    16    10     3   ar
