@<TRIPOS>MOLECULE
mol_434_akc_jejmech201312030
>419.sdf
 64 69 0 0 0
SMALL
GASTEIGER

@<TRIPOS>ATOM
      1 O           6.5794   -9.1539    0.6475 O.2     1  UNL1        0.0000
      2 S           6.4425   -9.6863   -0.7840 S.O2    1  UNL1        0.0000
      3 O           7.2792  -10.9688   -0.9195 O.2     1  UNL1        0.0000
      4 N           4.7571  -10.0545   -1.1159 N.pl3   1  UNL1        0.0000
      5 C           3.8822   -9.0368   -1.6774 C.ar    1  UNL1        0.0000
      6 C           3.8337   -8.9927   -3.0130 C.ar    1  UNL1        0.0000
      7 C           2.9881   -8.1259   -3.6605 C.ar    1  UNL1        0.0000
      8 C           2.2281   -7.2297   -2.9640 C.ar    1  UNL1        0.0000
      9 SE          1.1874   -5.8326   -3.8603 Se      1  UNL1        0.0000
     10 SE         -1.1379   -6.1127   -3.3219 Se      1  UNL1        0.0000
     11 C          -1.7316   -7.8721   -3.9331 C.ar    1  UNL1        0.0000
     12 C          -1.0985   -8.9220   -3.4019 C.ar    1  UNL1        0.0000
     13 C          -1.5075  -10.2036   -3.6812 C.ar    1  UNL1        0.0000
     14 C          -2.5225  -10.4467   -4.5665 C.ar    1  UNL1        0.0000
     15 N          -2.8612  -11.7973   -5.0034 N.pl3   1  UNL1        0.0000
     16 S          -4.0466  -12.7466   -4.1104 S.O2    1  UNL1        0.0000
     17 O          -5.2106  -13.1080   -5.0391 O.2     1  UNL1        0.0000
     18 O          -3.3845  -14.0358   -3.6090 O.2     1  UNL1        0.0000
     19 C          -4.7104  -11.8170   -2.7062 C.ar    1  UNL1        0.0000
     20 C          -4.6013  -10.2589   -1.8542 C.ar    1  UNL1        0.0000
     21 N          -4.3268   -6.1536    0.4041 N.ar    1  UNL1        0.0000
     22 C          -4.0509   -6.0730    0.1789 C.ar    1  UNL1        0.0000
     23 C          -4.3083   -7.7025   -0.5328 C.ar    1  UNL1        0.0000
     24 C          -4.3909   -8.5677   -0.9803 C.ar    1  UNL1        0.0000
     25 C          -4.7152  -10.2940   -1.7550 C.ar    1  UNL1        0.0000
     26 C          -5.8125  -10.5626   -0.7537 C.ar    1  UNL1        0.0000
     27 C          -6.3600  -11.4459   -1.0090 C.ar    1  UNL1        0.0000
     28 C          -5.7855  -12.3896   -1.9311 C.ar    1  UNL1        0.0000
     29 C          -3.1834   -9.3784   -5.0167 C.ar    1  UNL1        0.0000
     30 C          -2.7261   -8.0515   -4.8807 C.ar    1  UNL1        0.0000
     31 C           2.2384   -7.3454   -1.6354 C.ar    1  UNL1        0.0000
     32 C           3.1807   -8.1111   -0.9179 C.ar    1  UNL1        0.0000
     33 C           6.9928   -8.4178   -1.9425 C.ar    1  UNL1        0.0000
     34 C           6.7114   -6.7824   -2.5129 C.ar    1  UNL1        0.0000
     35 N           5.9668   -2.3812   -4.0583 N.ar    1  UNL1        0.0000
     36 C           5.6476   -2.3976   -3.8892 C.ar    1  UNL1        0.0000
     37 C           6.1140   -4.0650   -3.4218 C.ar    1  UNL1        0.0000
     38 C           6.2982   -4.9780   -3.1207 C.ar    1  UNL1        0.0000
     39 C           6.8536   -6.7746   -2.5948 C.ar    1  UNL1        0.0000
     40 C           8.1375   -6.6187   -3.3759 C.ar    1  UNL1        0.0000
     41 C           8.7998   -7.4109   -3.1709 C.ar    1  UNL1        0.0000
     42 C           8.2882   -8.6118   -2.5633 C.ar    1  UNL1        0.0000
     43 H           4.3961  -10.9922   -0.9148 H       1  UNL1        0.0000
     44 H           4.4678   -9.6382   -3.5790 H       1  UNL1        0.0000
     45 H           2.9185   -8.1575   -4.7256 H       1  UNL1        0.0000
     46 H          -0.2595   -8.7584   -2.7617 H       1  UNL1        0.0000
     47 H          -1.0293  -11.0246   -3.1940 H       1  UNL1        0.0000
     48 H          -2.4071  -12.2015   -5.8291 H       1  UNL1        0.0000
     49 H          -3.1034   -5.7731   -0.5645 H       1  UNL1        0.0000
     50 H          -5.4433   -8.0232    0.3867 H       1  UNL1        0.0000
     51 H          -3.3196   -8.2594   -1.8427 H       1  UNL1        0.0000
     52 H          -6.0684   -9.7315    0.1698 H       1  UNL1        0.0000
     53 H          -7.2820  -11.6359   -0.5912 H       1  UNL1        0.0000
     54 H          -6.1188  -13.3719   -1.9885 H       1  UNL1        0.0000
     55 H          -4.1147   -9.5471   -5.5032 H       1  UNL1        0.0000
     56 H          -3.1185   -7.2410   -5.4678 H       1  UNL1        0.0000
     57 H           1.4823   -6.8311   -1.0907 H       1  UNL1        0.0000
     58 H           3.3454   -7.9862    0.1367 H       1  UNL1        0.0000
     59 H           4.5457   -2.4252   -3.3162 H       1  UNL1        0.0000
     60 H           7.4347   -3.9866   -4.1258 H       1  UNL1        0.0000
     61 H           5.0576   -5.0452   -2.4632 H       1  UNL1        0.0000
     62 H           8.3591   -5.5669   -4.0758 H       1  UNL1        0.0000
     63 H           9.7981   -7.3464   -3.4123 H       1  UNL1        0.0000
     64 H           8.8052   -9.5099   -2.6037 H       1  UNL1        0.0000
@<TRIPOS>BOND
     1     2     1    2
     2     3     2    2
     3     4     2    1
     4     4    43    1
     5     5     4    1
     6     6     5   ar
     7     6    44    1
     8     7     6   ar
     9     7    45    1
    10     8     7   ar
    11     9     8    1
    12    10     9    1
    13    11    10    1
    14    12    11   ar
    15    12    46    1
    16    13    12   ar
    17    13    47    1
    18    14    13   ar
    19    15    14    1
    20    15    48    1
    21    16    15    1
    22    17    16    2
    23    18    16    2
    24    19    16    1
    25    20    19   ar
    26    21    20   ar
    27    22    21   ar
    28    22    49    1
    29    23    22   ar
    30    23    50    1
    31    24    23   ar
    32    24    51    1
    33    25    24   ar
    34    25    20   ar
    35    26    25   ar
    36    26    52    1
    37    27    26   ar
    38    27    53    1
    39    28    27   ar
    40    28    19   ar
    41    28    54    1
    42    29    14   ar
    43    29    55    1
    44    30    29   ar
    45    30    11   ar
    46    30    56    1
    47    31     8   ar
    48    31    57    1
    49    32    31   ar
    50    32     5   ar
    51    32    58    1
    52    33     2    1
    53    34    33   ar
    54    35    34   ar
    55    36    35   ar
    56    36    59    1
    57    37    36   ar
    58    37    60    1
    59    38    37   ar
    60    38    61    1
    61    39    38   ar
    62    39    34   ar
    63    40    39   ar
    64    40    62    1
    65    41    40   ar
    66    41    63    1
    67    42    41   ar
    68    42    33   ar
    69    42    64    1
