@<TRIPOS>MOLECULE
mol_435_akc_s00044_013_0741_y
>420.sdf
 45 45 0 0 0
SMALL
GASTEIGER

@<TRIPOS>ATOM
      1 C           1.0395    0.0936    0.0241 C.3     1  UNL1       -0.0653
      2 C           2.5603    0.0737    0.0208 C.3     1  UNL1       -0.0559
      3 C           3.0985   -1.3439   -0.1752 C.3     1  UNL1       -0.0533
      4 C           4.6285   -1.3705   -0.1791 C.3     1  UNL1       -0.0531
      5 C           5.1592   -2.7935   -0.3729 C.3     1  UNL1       -0.0530
      6 C           6.6891   -2.8260   -0.3757 C.3     1  UNL1       -0.0500
      7 C           7.2195   -4.2454   -0.5707 C.3     1  UNL1       -0.0185
      8 C           8.7468   -4.2774   -0.5936 C.3     1  UNL1        0.0928
      9 O           9.2158   -5.6236   -0.7912 O.3     1  UNL1       -0.4616
     10 C           9.2158   -6.0335   -2.0834 C.2     1  UNL1        0.3319
     11 O           8.8577   -5.3827   -3.0518 O.2     1  UNL1       -0.2456
     12 C           9.7068   -7.4249   -2.1443 C.2     1  UNL1        0.0231
     13 C           9.7559   -8.0548   -3.3312 C.2     1  UNL1       -0.0477
     14 C          10.2109   -9.4399   -3.5246 C.ar    1  UNL1       -0.0211
     15 C          10.0577  -10.4205   -2.5325 C.ar    1  UNL1       -0.0094
     16 C          10.4740  -11.7251   -2.7797 C.ar    1  UNL1        0.1588
     17 O          10.3477  -12.7124   -1.8409 O.3     1  UNL1       -0.5033
     18 C          11.0301  -12.0684   -4.0075 C.ar    1  UNL1        0.1582
     19 O          11.4312  -13.3521   -4.2396 O.3     1  UNL1       -0.5033
     20 C          11.1743  -11.1205   -5.0072 C.ar    1  UNL1       -0.0160
     21 C          10.7585   -9.8068   -4.7672 C.ar    1  UNL1       -0.0509
     22 H           0.6726    1.1151    0.1654 H       1  UNL1        0.0230
     23 H           0.6404   -0.2825   -0.9234 H       1  UNL1        0.0230
     24 H           0.6410   -0.5254    0.8343 H       1  UNL1        0.0230
     25 H           2.9267    0.7265   -0.7801 H       1  UNL1        0.0263
     26 H           2.9272    0.4849    0.9684 H       1  UNL1        0.0263
     27 H           2.7226   -1.9916    0.6262 H       1  UNL1        0.0265
     28 H           2.7222   -1.7502   -1.1220 H       1  UNL1        0.0265
     29 H           5.0048   -0.7248   -0.9818 H       1  UNL1        0.0265
     30 H           5.0053   -0.9634    0.7670 H       1  UNL1        0.0265
     31 H           4.7803   -3.4387    0.4289 H       1  UNL1        0.0265
     32 H           4.7814   -3.1991   -1.3196 H       1  UNL1        0.0265
     33 H           7.0665   -2.1826   -1.1799 H       1  UNL1        0.0266
     34 H           7.0679   -2.4194    0.5695 H       1  UNL1        0.0266
     35 H           6.8549   -4.9059    0.2258 H       1  UNL1        0.0298
     36 H           6.8270   -4.6623   -1.5056 H       1  UNL1        0.0298
     37 H           9.1542   -3.6137   -1.3660 H       1  UNL1        0.0697
     38 H           9.1464   -3.9288    0.3658 H       1  UNL1        0.0697
     39 H          10.0122   -7.8791   -1.2129 H       1  UNL1        0.0689
     40 H           9.4542   -7.5275   -4.2347 H       1  UNL1        0.0626
     41 H           9.6028  -10.1696   -1.5806 H       1  UNL1        0.0661
     42 H           9.9363  -12.3277   -1.0481 H       1  UNL1        0.2923
     43 H          11.2258  -13.8273   -3.4101 H       1  UNL1        0.2923
     44 H          11.6019  -11.4003   -5.9653 H       1  UNL1        0.0655
     45 H          10.8712   -9.0721   -5.5627 H       1  UNL1        0.0625
@<TRIPOS>BOND
     1     1    22    1
     2     1    23    1
     3     1    24    1
     4     2     1    1
     5     2    25    1
     6     2    26    1
     7     3     2    1
     8     3    27    1
     9     3    28    1
    10     4     3    1
    11     4    29    1
    12     4    30    1
    13     5     4    1
    14     5    31    1
    15     5    32    1
    16     6     5    1
    17     6    33    1
    18     6    34    1
    19     7     6    1
    20     7    35    1
    21     7    36    1
    22     8     7    1
    23     8    37    1
    24     8    38    1
    25     9     8    1
    26    10     9    1
    27    11    10    2
    28    12    10    1
    29    12    39    1
    30    13    12    2
    31    13    40    1
    32    14    13    1
    33    15    14   ar
    34    15    41    1
    35    16    15   ar
    36    17    16    1
    37    17    42    1
    38    18    16   ar
    39    19    18    1
    40    19    43    1
    41    20    18   ar
    42    20    44    1
    43    21    20   ar
    44    21    14   ar
    45    21    45    1
