@<TRIPOS>MOLECULE
mol_436_akc_molecules19021394
>421.sdf
 47 48 0 0 0
SMALL
GASTEIGER

@<TRIPOS>ATOM
      1 C           0.8983   -0.9707    2.0984 C.3     1  UNL1       -0.0623
      2 C           2.4207   -1.1658    2.0585 C.3     1  UNL1       -0.0405
      3 C           3.0783    0.0416    2.7333 C.3     1  UNL1       -0.0623
      4 C           2.9553   -1.4167    0.6083 C.3     1  UNL1       -0.0015
      5 C           2.3587   -2.6975   -0.0227 C.3     1  UNL1       -0.0464
      6 C           2.8173   -3.9662    0.6961 C.3     1  UNL1       -0.0500
      7 C           4.3376   -4.0538    0.9201 C.3     1  UNL1       -0.0405
      8 C           4.6394   -5.1241    1.9726 C.3     1  UNL1       -0.0623
      9 C           4.9927   -2.7236    1.3339 C.3     1  UNL1       -0.0128
     10 C           4.5042   -1.5300    0.5023 C.3     1  UNL1        0.1067
     11 O           4.8054   -1.7175   -0.9043 O.3     1  UNL1       -0.4580
     12 C           6.0825   -1.6603   -1.3351 C.2     1  UNL1        0.3322
     13 O           7.0685   -1.4100   -0.6562 O.2     1  UNL1       -0.2456
     14 C           6.1718   -2.0278   -2.7732 C.2     1  UNL1        0.0231
     15 C           5.0950   -2.1209   -3.5724 C.2     1  UNL1       -0.0478
     16 C           5.0856   -2.5884   -4.9692 C.ar    1  UNL1       -0.0248
     17 C           3.8967   -3.1518   -5.4585 C.ar    1  UNL1       -0.0546
     18 C           3.8082   -3.6332   -6.7675 C.ar    1  UNL1       -0.0612
     19 C           4.9088   -3.5441   -7.6127 C.ar    1  UNL1       -0.0617
     20 C           6.0905   -2.9631   -7.1526 C.ar    1  UNL1       -0.0612
     21 C           6.1789   -2.4823   -5.8393 C.ar    1  UNL1       -0.0546
     22 H           0.3591   -1.8222    1.6767 H       1  UNL1        0.0232
     23 H           0.5554   -0.8690    3.1345 H       1  UNL1        0.0232
     24 H           0.5990   -0.0684    1.5549 H       1  UNL1        0.0232
     25 H           2.6384   -2.0394    2.6834 H       1  UNL1        0.0299
     26 H           2.9345    0.9531    2.1436 H       1  UNL1        0.0232
     27 H           2.6462    0.2103    3.7260 H       1  UNL1        0.0232
     28 H           4.1513   -0.1114    2.8784 H       1  UNL1        0.0232
     29 H           2.6394   -0.5741   -0.0226 H       1  UNL1        0.0339
     30 H           1.2652   -2.6601   -0.0408 H       1  UNL1        0.0269
     31 H           2.6490   -2.7632   -1.0786 H       1  UNL1        0.0269
     32 H           2.2891   -4.0440    1.6522 H       1  UNL1        0.0268
     33 H           2.4978   -4.8362    0.1069 H       1  UNL1        0.0268
     34 H           4.7965   -4.3704   -0.0256 H       1  UNL1        0.0299
     35 H           4.2604   -4.8235    2.9575 H       1  UNL1        0.0232
     36 H           4.1690   -6.0774    1.7113 H       1  UNL1        0.0232
     37 H           5.7172   -5.2897    2.0665 H       1  UNL1        0.0232
     38 H           4.8089   -2.5275    2.3969 H       1  UNL1        0.0303
     39 H           6.0795   -2.8312    1.2388 H       1  UNL1        0.0303
     40 H           4.9813   -0.5999    0.8315 H       1  UNL1        0.0737
     41 H           7.1755   -2.2583   -3.1101 H       1  UNL1        0.0689
     42 H           4.1109   -1.8835   -3.1746 H       1  UNL1        0.0626
     43 H           3.0230   -3.2371   -4.8151 H       1  UNL1        0.0623
     44 H           2.8821   -4.0787   -7.1202 H       1  UNL1        0.0618
     45 H           4.8450   -3.9243   -8.6293 H       1  UNL1        0.0618
     46 H           6.9461   -2.8836   -7.8186 H       1  UNL1        0.0618
     47 H           7.1093   -2.0214   -5.5184 H       1  UNL1        0.0623
@<TRIPOS>BOND
     1     1    22    1
     2     1    23    1
     3     1    24    1
     4     2     1    1
     5     2    25    1
     6     3     2    1
     7     3    26    1
     8     3    27    1
     9     3    28    1
    10     5     4    1
    11     5    30    1
    12     5    31    1
    13     6     5    1
    14     6    32    1
    15     6    33    1
    16     7     6    1
    17     8    35    1
    18     8    36    1
    19     8    37    1
    20     9     7    1
    21     9    38    1
    22     9    39    1
    23    10     9    1
    24    10     4    1
    25    12    11    1
    26    13    12    2
    27    14    12    1
    28    14    41    1
    29    15    14    2
    30    15    42    1
    31    16    15    1
    32    17    16   ar
    33    17    43    1
    34    18    17   ar
    35    18    44    1
    36    19    18   ar
    37    19    45    1
    38    20    19   ar
    39    20    46    1
    40    21    20   ar
    41    21    16   ar
    42    21    47    1
    43     4    29    1
    44     4     2    1
    45     7     8    1
    46     7    34    1
    47    10    11    1
    48    10    40    1
