@<TRIPOS>MOLECULE
mol_437_akc_jbmc201312039
>422.sdf
 55 59 0 0 0
SMALL
GASTEIGER

@<TRIPOS>ATOM
      1 C           2.2945   15.3524    5.8791 C.3     1  UNL1       -0.0397
      2 C           1.1013   15.2689    4.9748 C.ar    1  UNL1       -0.0504
      3 C           0.8986   16.1668    3.9133 C.ar    1  UNL1       -0.0586
      4 C          -0.1878   16.0259    3.0345 C.ar    1  UNL1       -0.0580
      5 C          -1.0916   14.9789    3.2113 C.ar    1  UNL1       -0.0425
      6 C          -0.8946   14.1037    4.3057 C.ar    1  UNL1       -0.0580
      7 C           0.1823   14.2422    5.1719 C.ar    1  UNL1       -0.0586
      8 C          -2.1681   14.5892    2.2156 C.3     1  UNL1        0.0094
      9 C          -1.5405   13.7767    1.0712 C.3     1  UNL1        0.0139
     10 C          -2.5971   13.0189    0.3053 C.2     1  UNL1        0.1346
     11 O          -2.4117   11.8508   -0.0456 O.2     1  UNL1       -0.2974
     12 C          -3.8378   13.7636   -0.1150 C.3     1  UNL1        0.0139
     13 C          -4.4298   14.6315    1.0048 C.3     1  UNL1        0.0094
     14 C          -5.3036   13.8555    2.0109 C.ar    1  UNL1       -0.0425
     15 C          -4.8277   12.7604    2.7444 C.ar    1  UNL1       -0.0580
     16 C          -5.3523   12.4857    4.0091 C.ar    1  UNL1       -0.0586
     17 C          -6.4183   13.2363    4.5071 C.ar    1  UNL1       -0.0504
     18 C          -6.8219   13.1237    5.9464 C.3     1  UNL1       -0.0397
     19 C          -7.0730   14.1252    3.6534 C.ar    1  UNL1       -0.0586
     20 C          -6.5166   14.4366    2.4114 C.ar    1  UNL1       -0.0580
     21 C          -3.3027   15.5311    1.7383 C.3     1  UNL1        0.0880
     22 C          -2.9291   16.6088    0.6835 C.2     1  UNL1        0.2290
     23 O          -2.1492   16.4921   -0.2529 O.2     1  UNL1       -0.2745
     24 N          -3.7525   17.7065    0.9088 N.am    1  UNL1       -0.2845
     25 C          -4.3637   17.6161    2.1509 C.ar    1  UNL1        0.0376
     26 C          -5.2098   18.5294    2.7451 C.ar    1  UNL1       -0.0402
     27 C          -5.6307   18.2561    4.0467 C.ar    1  UNL1       -0.0600
     28 C          -5.1558   17.1212    4.7294 C.ar    1  UNL1       -0.0614
     29 C          -4.3134   16.2016    4.0954 C.ar    1  UNL1       -0.0558
     30 C          -3.9745   16.4271    2.7725 C.ar    1  UNL1       -0.0100
     31 H           1.9719   15.4686    6.9192 H       1  UNL1        0.0278
     32 H           2.8898   14.4356    5.7959 H       1  UNL1        0.0278
     33 H           2.9391   16.1973    5.6238 H       1  UNL1        0.0278
     34 H           1.6125   16.9702    3.7449 H       1  UNL1        0.0620
     35 H          -0.2799   16.7089    2.1925 H       1  UNL1        0.0620
     36 H          -1.5626   13.2575    4.4645 H       1  UNL1        0.0620
     37 H           0.3160   13.5226    5.9765 H       1  UNL1        0.0620
     38 H          -2.7126   13.8546    2.8046 H       1  UNL1        0.0366
     39 H          -0.9633   14.3964    0.3803 H       1  UNL1        0.0348
     40 H          -0.8503   13.0289    1.4819 H       1  UNL1        0.0348
     41 H          -4.5805   13.0466   -0.4805 H       1  UNL1        0.0348
     42 H          -3.5521   14.3905   -0.9694 H       1  UNL1        0.0348
     43 H          -5.1223   15.3087    0.4805 H       1  UNL1        0.0366
     44 H          -3.9563   12.1917    2.4322 H       1  UNL1        0.0620
     45 H          -4.8601   11.7447    4.6364 H       1  UNL1        0.0620
     46 H          -7.2865   14.0562    6.2893 H       1  UNL1        0.0278
     47 H          -7.5151   12.2978    6.0938 H       1  UNL1        0.0278
     48 H          -5.9346   12.9746    6.5774 H       1  UNL1        0.0278
     49 H          -7.9490   14.6727    3.9916 H       1  UNL1        0.0620
     50 H          -6.9641   15.2428    1.8328 H       1  UNL1        0.0620
     51 H          -3.7649   18.5262    0.3179 H       1  UNL1        0.1548
     52 H          -5.5576   19.4133    2.2234 H       1  UNL1        0.0636
     53 H          -6.3273   18.9276    4.5459 H       1  UNL1        0.0618
     54 H          -5.4786   16.9340    5.7512 H       1  UNL1        0.0618
     55 H          -3.9993   15.3024    4.6157 H       1  UNL1        0.0621
@<TRIPOS>BOND
     1     1    31    1
     2     1    32    1
     3     1    33    1
     4     2     1    1
     5     3     2   ar
     6     3    34    1
     7     4     3   ar
     8     4    35    1
     9     5     4   ar
    10     6     5   ar
    11     6    36    1
    12     7     6   ar
    13     7     2   ar
    14     7    37    1
    15     9     8    1
    16    10     9    1
    17    12    10    1
    18    13    12    1
    19    15    14   ar
    20    15    44    1
    21    16    15   ar
    22    16    45    1
    23    17    16   ar
    24    18    17    1
    25    18    46    1
    26    18    47    1
    27    18    48    1
    28    19    17   ar
    29    19    49    1
    30    20    19   ar
    31    20    14   ar
    32    20    50    1
    33    21    13    1
    34    21     8    1
    35    21    22    1
    36    24    22   am
    37    25    24    1
    38    26    25   ar
    39    27    26   ar
    40    28    27   ar
    41    29    28   ar
    42    30    29   ar
    43    30    21    1
    44    30    25   ar
    45     8     5    1
    46     8    38    1
    47     9    39    1
    48     9    40    1
    49    11    10    2
    50    12    41    1
    51    12    42    1
    52    13    43    1
    53    14    13    1
    54    23    22    2
    55    24    51    1
    56    26    52    1
    57    27    53    1
    58    28    54    1
    59    29    55    1
