@<TRIPOS>MOLECULE
mol_438_akc_jejmech201311011
>423.sdf
 46 50 0 0 0
SMALL
GASTEIGER

@<TRIPOS>ATOM
      1 O           2.5649    1.3371   -0.2548 O.2     1  UNL1       -0.2873
      2 C           1.3816    1.1108   -0.0961 C.2     1  UNL1        0.1853
      3 C           0.2897    2.1107   -0.0902 C.2     1  UNL1        0.0004
      4 C          -1.0277    1.4172    0.0543 C.3     1  UNL1       -0.0199
      5 C          -0.7150   -0.0638    0.2931 C.3     1  UNL1       -0.0199
      6 C           0.7666   -0.2140    0.1463 C.2     1  UNL1        0.0004
      7 C           1.5296   -1.3109    0.2539 C.2     1  UNL1       -0.0472
      8 C           0.9957   -2.6340    0.6038 C.ar    1  UNL1       -0.0169
      9 C           0.8995   -3.0628    1.9553 C.ar    1  UNL1       -0.0079
     10 C           1.3089   -2.2859    3.0587 C.ar    1  UNL1       -0.0353
     11 C           1.1770   -2.7945    4.3410 C.ar    1  UNL1        0.0282
     12 N           0.6712   -4.0108    4.6159 N.ar    1  UNL1       -0.2626
     13 C           0.2839   -4.7532    3.5538 C.ar    1  UNL1        0.0353
     14 C           0.3692   -4.3439    2.2199 C.ar    1  UNL1        0.0008
     15 C          -0.0507   -5.1687    1.1622 C.ar    1  UNL1       -0.0525
     16 C           0.0564   -4.7370   -0.1581 C.ar    1  UNL1       -0.0606
     17 C           0.5782   -3.4759   -0.4372 C.ar    1  UNL1       -0.0540
     18 C           0.5604    3.4196   -0.1998 C.2     1  UNL1       -0.0472
     19 C          -0.4781    4.4582   -0.2258 C.ar    1  UNL1       -0.0169
     20 C          -1.0743    4.8945   -1.4386 C.ar    1  UNL1       -0.0079
     21 C          -0.7223    4.3999   -2.7111 C.ar    1  UNL1       -0.0353
     22 C          -1.3606    4.8937   -3.8378 C.ar    1  UNL1        0.0282
     23 N          -2.3202    5.8366   -3.8022 N.ar    1  UNL1       -0.2626
     24 C          -2.6510    6.3100   -2.5792 C.ar    1  UNL1        0.0353
     25 C          -2.0755    5.8880   -1.3775 C.ar    1  UNL1        0.0008
     26 C          -2.4651    6.4272   -0.1395 C.ar    1  UNL1       -0.0525
     27 C          -1.8648    5.9961    1.0410 C.ar    1  UNL1       -0.0606
     28 C          -0.8745    5.0175    0.9985 C.ar    1  UNL1       -0.0540
     29 H          -1.6044    1.8209    0.8933 H       1  UNL1        0.0317
     30 H          -1.6235    1.5331   -0.8581 H       1  UNL1        0.0317
     31 H          -1.0387   -0.3604    1.2969 H       1  UNL1        0.0317
     32 H          -1.2496   -0.6827   -0.4362 H       1  UNL1        0.0317
     33 H           2.6105   -1.2570    0.1365 H       1  UNL1        0.0627
     34 H           1.7329   -1.2956    2.9299 H       1  UNL1        0.0639
     35 H           1.4888   -2.2141    5.2053 H       1  UNL1        0.0830
     36 H          -0.1123   -5.7309    3.8167 H       1  UNL1        0.0836
     37 H          -0.4599   -6.1567    1.3635 H       1  UNL1        0.0624
     38 H          -0.2638   -5.3860   -0.9697 H       1  UNL1        0.0618
     39 H           0.6632   -3.1544   -1.4733 H       1  UNL1        0.0624
     40 H           1.5846    3.7760   -0.2957 H       1  UNL1        0.0627
     41 H           0.0452    3.6423   -2.8332 H       1  UNL1        0.0639
     42 H          -1.1027    4.5303   -4.8285 H       1  UNL1        0.0830
     43 H          -3.4241    7.0747   -2.5933 H       1  UNL1        0.0836
     44 H          -3.2375    7.1920   -0.0903 H       1  UNL1        0.0624
     45 H          -2.1662    6.4253    1.9934 H       1  UNL1        0.0618
     46 H          -0.4088    4.6946    1.9277 H       1  UNL1        0.0624
@<TRIPOS>BOND
     1     2     1    2
     2     3     2    1
     3     4     3    1
     4     4    29    1
     5     4    30    1
     6     5     4    1
     7     5    31    1
     8     5    32    1
     9     6     5    1
    10     6     2    1
    11     7     6    2
    12     7    33    1
    13     8     7    1
    14     9     8   ar
    15    10     9   ar
    16    10    34    1
    17    11    10   ar
    18    11    35    1
    19    12    11   ar
    20    13    12   ar
    21    13    36    1
    22    14    13   ar
    23    14     9   ar
    24    15    14   ar
    25    15    37    1
    26    16    15   ar
    27    16    38    1
    28    17    16   ar
    29    17     8   ar
    30    17    39    1
    31    18     3    2
    32    18    40    1
    33    19    18    1
    34    20    19   ar
    35    21    20   ar
    36    21    41    1
    37    22    21   ar
    38    22    42    1
    39    23    22   ar
    40    24    23   ar
    41    24    43    1
    42    25    24   ar
    43    25    20   ar
    44    26    25   ar
    45    26    44    1
    46    27    26   ar
    47    27    45    1
    48    28    27   ar
    49    28    19   ar
    50    28    46    1
