@<TRIPOS>MOLECULE
mol_439_akc_1573406410666140507095430
>424.sdf
 38 40 0 0 0
SMALL
GASTEIGER

@<TRIPOS>ATOM
      1 C           2.3622    0.1759   -0.9455 C.3     1  UNL1       -0.0426
      2 N           0.8645    0.1315   -0.8173 N.4     1  UNL1        0.2376
      3 C           0.3183   -1.0520   -0.0326 C.3     1  UNL1       -0.0173
      4 C           0.5554   -0.6347    1.4179 C.3     1  UNL1       -0.0045
      5 C           0.5238    0.8993    1.4073 C.3     1  UNL1       -0.0045
      6 C           0.2739    1.2996   -0.0529 C.3     1  UNL1       -0.0173
      7 C          -1.2042    1.3680   -0.4725 C.3     1  UNL1        0.0277
      8 C          -1.9842    0.0955   -0.1069 C.3     1  UNL1        0.1136
      9 C          -1.1746   -1.1800   -0.3849 C.3     1  UNL1        0.0277
     10 O          -2.2746    0.2511    1.2921 O.3     1  UNL1       -0.4575
     11 C          -3.4587   -0.2073    1.7613 C.2     1  UNL1        0.3395
     12 O          -4.1297   -1.0872    1.2577 O.2     1  UNL1       -0.2450
     13 C          -3.8087    0.5963    2.9629 C.ar    1  UNL1        0.0590
     14 C          -4.6761    0.0722    3.9226 C.ar    1  UNL1       -0.0478
     15 C          -5.0463    0.8536    5.0214 C.ar    1  UNL1       -0.0610
     16 C          -4.5613    2.1577    5.1570 C.ar    1  UNL1       -0.0617
     17 C          -3.7009    2.6869    4.2030 C.ar    1  UNL1       -0.0610
     18 C          -3.3251    1.9093    3.1062 C.ar    1  UNL1       -0.0478
     19 H           2.6727   -0.7016   -1.5157 H       1  UNL1        0.0778
     20 H           2.6200    1.0895   -1.4885 H       1  UNL1        0.0778
     21 H           2.8217    0.1781    0.0456 H       1  UNL1        0.0778
     22 H           0.5029    0.1140   -1.7811 H       1  UNL1        0.2036
     23 H           0.8711   -1.9509   -0.3240 H       1  UNL1        0.0852
     24 H          -0.1778   -1.0690    2.1050 H       1  UNL1        0.0322
     25 H           1.5406   -0.9795    1.7539 H       1  UNL1        0.0322
     26 H           1.4974    1.2783    1.7408 H       1  UNL1        0.0322
     27 H          -0.2145    1.3121    2.1005 H       1  UNL1        0.0322
     28 H           0.7997    2.2169   -0.3371 H       1  UNL1        0.0852
     29 H          -1.6674    2.2397    0.0065 H       1  UNL1        0.0356
     30 H          -1.2633    1.5272   -1.5562 H       1  UNL1        0.0356
     31 H          -2.9264    0.0754   -0.6686 H       1  UNL1        0.0738
     32 H          -1.6019   -2.0272    0.1633 H       1  UNL1        0.0356
     33 H          -1.2542   -1.4128   -1.4552 H       1  UNL1        0.0356
     34 H          -5.0741   -0.9350    3.8206 H       1  UNL1        0.0626
     35 H          -5.7254    0.4537    5.7707 H       1  UNL1        0.0618
     36 H          -4.8665    2.7656    6.0052 H       1  UNL1        0.0618
     37 H          -3.3357    3.7053    4.2979 H       1  UNL1        0.0618
     38 H          -2.6756    2.3543    2.3605 H       1  UNL1        0.0626
@<TRIPOS>UNITY_ATOM_ATTR
2 1
charge 1
@<TRIPOS>BOND
     1     1    19    1
     2     1    20    1
     3     1    21    1
     4     2     1    1
     5     2    22    1
     6     3     2    1
     7     3    23    1
     8     4     3    1
     9     4    24    1
    10     4    25    1
    11     5     4    1
    12     5    26    1
    13     5    27    1
    14     6     5    1
    15     6     2    1
    16     6    28    1
    17     7     6    1
    18     7    29    1
    19     7    30    1
    20     8     7    1
    21     9     8    1
    22     9     3    1
    23     9    32    1
    24     9    33    1
    25    11    10    1
    26    12    11    2
    27    13    11    1
    28    14    13   ar
    29    14    34    1
    30    15    14   ar
    31    15    35    1
    32    16    15   ar
    33    16    36    1
    34    17    16   ar
    35    17    37    1
    36    18    17   ar
    37    18    13   ar
    38    18    38    1
    39     8    10    1
    40     8    31    1
