@<TRIPOS>MOLECULE
mol_43_akc_jbmcl201101026
>43.sdf
 45 48 0 0 0
SMALL
GASTEIGER

@<TRIPOS>ATOM
      1 CL         -5.6388    0.9081   -6.2595 Cl      1  UNL1       -0.0835
      2 C          -5.3254    2.4442   -5.5520 C.ar    1  UNL1        0.0413
      3 C          -5.8146    3.5970   -6.1585 C.ar    1  UNL1       -0.0420
      4 C          -5.5636    4.8401   -5.5759 C.ar    1  UNL1       -0.0417
      5 C          -4.8237    4.9288   -4.3916 C.ar    1  UNL1        0.0442
      6 CL         -4.5698    6.5046   -3.7312 Cl      1  UNL1       -0.0833
      7 C          -4.3149    3.7712   -3.7759 C.ar    1  UNL1       -0.0277
      8 C          -3.5108    3.8042   -2.4932 C.3     1  UNL1       -0.0259
      9 C          -4.4061    3.6813   -1.2532 C.3     1  UNL1       -0.0440
     10 C          -3.6252    3.6919    0.0887 C.3     1  UNL1       -0.0154
     11 C          -2.8030    4.9719    0.3075 C.3     1  UNL1       -0.0440
     12 C          -3.6823    6.2167    0.4020 C.3     1  UNL1       -0.0270
     13 C          -4.9135    6.0313    1.2554 C.ar    1  UNL1       -0.0422
     14 C          -5.3765    4.7561    1.6354 C.ar    1  UNL1       -0.0213
     15 C          -6.5530    4.6508    2.4000 C.ar    1  UNL1       -0.0563
     16 C          -7.2583    5.7903    2.7818 C.ar    1  UNL1       -0.0614
     17 C          -6.8029    7.0482    2.4010 C.ar    1  UNL1       -0.0615
     18 C          -5.6422    7.1678    1.6370 C.ar    1  UNL1       -0.0582
     19 C          -4.5999    3.4950    1.2857 C.3     1  UNL1        0.0633
     20 N          -3.9120    2.9551    2.4683 N.ar    1  UNL1       -0.3292
     21 C          -3.3813    3.6390    3.5309 C.ar    1  UNL1        0.0247
     22 C          -2.8924    2.6726    4.3769 C.ar    1  UNL1        0.0454
     23 N          -3.0954    1.4231    3.8542 N.ar    1  UNL1       -0.2440
     24 C          -3.7116    1.6218    2.7115 C.ar    1  UNL1        0.0964
     25 C          -4.5835    2.5251   -4.3719 C.ar    1  UNL1       -0.0388
     26 H          -6.3908    3.5365   -7.0782 H       1  UNL1        0.0633
     27 H          -5.9494    5.7391   -6.0523 H       1  UNL1        0.0633
     28 H          -2.7825    2.9836   -2.5039 H       1  UNL1        0.0314
     29 H          -2.9105    4.7185   -2.4642 H       1  UNL1        0.0314
     30 H          -5.1631    4.4742   -1.2656 H       1  UNL1        0.0272
     31 H          -4.9652    2.7378   -1.3190 H       1  UNL1        0.0272
     32 H          -2.9262    2.8446    0.0573 H       1  UNL1        0.0324
     33 H          -2.2224    4.8735    1.2330 H       1  UNL1        0.0272
     34 H          -2.0570    5.1051   -0.4830 H       1  UNL1        0.0272
     35 H          -3.0774    7.0390    0.8032 H       1  UNL1        0.0313
     36 H          -4.0051    6.5131   -0.6027 H       1  UNL1        0.0313
     37 H          -6.9161    3.6757    2.7201 H       1  UNL1        0.0621
     38 H          -8.1590    5.6963    3.3828 H       1  UNL1        0.0618
     39 H          -7.3501    7.9381    2.6998 H       1  UNL1        0.0618
     40 H          -5.3044    8.1591    1.3410 H       1  UNL1        0.0620
     41 H          -5.3313    2.7223    1.0079 H       1  UNL1        0.0580
     42 H          -3.4069    4.7171    3.6106 H       1  UNL1        0.0825
     43 H          -2.4090    2.8140    5.3350 H       1  UNL1        0.0845
     44 H          -4.0329    0.8444    2.0302 H       1  UNL1        0.1029
     45 H          -4.2106    1.6112   -3.9133 H       1  UNL1        0.0635
@<TRIPOS>BOND
     1     2     1    1
     2     3     2   ar
     3     3    26    1
     4     4     3   ar
     5     4    27    1
     6     5     4   ar
     7     6     5    1
     8     7     5   ar
     9     8     7    1
    10     8    28    1
    11     8    29    1
    12     9     8    1
    13     9    30    1
    14     9    31    1
    15    11    10    1
    16    11    33    1
    17    11    34    1
    18    12    11    1
    19    12    35    1
    20    12    36    1
    21    13    12    1
    22    14    13   ar
    23    15    14   ar
    24    15    37    1
    25    16    15   ar
    26    16    38    1
    27    17    16   ar
    28    17    39    1
    29    18    17   ar
    30    18    13   ar
    31    18    40    1
    32    19    14    1
    33    19    10    1
    34    19    41    1
    35    20    19    1
    36    21    20   ar
    37    21    42    1
    38    22    21   ar
    39    22    43    1
    40    23    22   ar
    41    24    23   ar
    42    24    20   ar
    43    24    44    1
    44    25     7   ar
    45    25     2   ar
    46    25    45    1
    47    10    32    1
    48    10     9    1
