@<TRIPOS>MOLECULE
mol_440_akc_s_0034_1382826
>425.sdf
 44 48 0 0 0
SMALL
GASTEIGER

@<TRIPOS>ATOM
      1 C           1.2118    0.2558    0.2216 C.3     1  UNL1        0.0790
      2 O           2.4773   -0.1600   -0.2880 O.3     1  UNL1       -0.4914
      3 C           3.1995    0.7700   -0.9873 C.ar    1  UNL1        0.1623
      4 C           4.2517    0.2979   -1.7862 C.ar    1  UNL1        0.1748
      5 O           4.3707   -1.0646   -1.9639 O.3     1  UNL1       -0.4907
      6 C           5.4919   -1.6529   -1.3036 C.3     1  UNL1        0.0790
      7 C           5.0517    1.1875   -2.5495 C.ar    1  UNL1        0.0915
      8 C           6.0893    0.7315   -3.3523 C.ar    1  UNL1        0.1829
      9 N           6.8918    1.5528   -4.0611 N.ar    1  UNL1       -0.1986
     10 C           8.1909    0.9657   -4.4675 C.3     1  UNL1        0.1410
     11 C           6.6065    2.8864   -4.2074 C.ar    1  UNL1        0.2231
     12 C           7.2199    3.7233   -5.2067 C.ar    1  UNL1        0.0576
     13 C           7.9059    3.2586   -6.3624 C.ar    1  UNL1       -0.0021
     14 C           8.4559    4.1565   -7.2595 C.ar    1  UNL1        0.1670
     15 C           8.3565    5.5040   -7.0755 C.ar    1  UNL1        0.1668
     16 O           8.9452    6.2076   -8.0754 O.3     1  UNL1       -0.4526
     17 C           9.3413    5.1406   -8.9645 C.3     1  UNL1        0.2332
     18 O           9.1058    3.8276   -8.4043 O.3     1  UNL1       -0.4526
     19 C           7.6740    6.0242   -6.0063 C.ar    1  UNL1       -0.0082
     20 C           7.0657    5.1417   -5.0993 C.ar    1  UNL1       -0.0079
     21 C           6.2541    5.6729   -4.1068 C.ar    1  UNL1       -0.0529
     22 C           5.5170    4.8388   -3.2673 C.ar    1  UNL1       -0.0471
     23 C           5.6380    3.4366   -3.3096 C.ar    1  UNL1        0.0548
     24 C           4.8308    2.5731   -2.5022 C.ar    1  UNL1        0.0050
     25 C           3.7644    3.0177   -1.6803 C.ar    1  UNL1       -0.0494
     26 C           2.9682    2.1391   -0.9377 C.ar    1  UNL1       -0.0157
     27 H           1.3201    1.0280    0.9910 H       1  UNL1        0.0660
     28 H           0.5587    0.5981   -0.5887 H       1  UNL1        0.0660
     29 H           0.7372   -0.6094    0.6936 H       1  UNL1        0.0660
     30 H           6.0508   -2.2212   -2.0566 H       1  UNL1        0.0660
     31 H           6.1704   -0.9250   -0.8455 H       1  UNL1        0.0660
     32 H           5.1424   -2.3581   -0.5461 H       1  UNL1        0.0660
     33 H           6.3392   -0.3241   -3.4101 H       1  UNL1        0.1384
     34 H           8.0515    0.4535   -5.4216 H       1  UNL1        0.0993
     35 H           8.9614    1.7376   -4.5000 H       1  UNL1        0.0993
     36 H           8.5008    0.2410   -3.7050 H       1  UNL1        0.0993
     37 H           7.9650    2.2139   -6.6379 H       1  UNL1        0.0663
     38 H           8.7675    5.2303   -9.8948 H       1  UNL1        0.1166
     39 H          10.4082    5.2427   -9.1915 H       1  UNL1        0.1166
     40 H           7.5779    7.1035   -5.9122 H       1  UNL1        0.0661
     41 H           6.1184    6.7510   -4.0161 H       1  UNL1        0.0624
     42 H           4.8496    5.3350   -2.5699 H       1  UNL1        0.0626
     43 H           3.4966    4.0709   -1.6184 H       1  UNL1        0.0625
     44 H           2.1656    2.5672   -0.3423 H       1  UNL1        0.0655
@<TRIPOS>UNITY_ATOM_ATTR
9 1
charge 1
@<TRIPOS>BOND
     1     1    27    1
     2     1    28    1
     3     1    29    1
     4     2     1    1
     5     3     2    1
     6     4     3   ar
     7     5     4    1
     8     6     5    1
     9     6    30    1
    10     6    31    1
    11     6    32    1
    12     7     4   ar
    13     8     7   ar
    14     8    33    1
    15     9     8   ar
    16    10     9    1
    17    10    34    1
    18    10    35    1
    19    10    36    1
    20    11     9   ar
    21    12    11   ar
    22    13    12   ar
    23    13    37    1
    24    14    13   ar
    25    15    14   ar
    26    16    15    1
    27    17    16    1
    28    17    38    1
    29    17    39    1
    30    18    17    1
    31    18    14    1
    32    19    15   ar
    33    19    40    1
    34    20    19   ar
    35    20    12   ar
    36    21    20   ar
    37    21    41    1
    38    22    21   ar
    39    22    42    1
    40    23    22   ar
    41    23    11   ar
    42    24    23   ar
    43    24     7   ar
    44    25    24   ar
    45    25    43    1
    46    26    25   ar
    47    26     3   ar
    48    26    44    1
