@<TRIPOS>MOLECULE
mol_441_akc_jacdkt210
>426.sdf
 37 36 0 0 0
SMALL
GASTEIGER

@<TRIPOS>ATOM
      1 N           1.1257    0.4391    0.0942 N.4     1  UNK1        0.2249
      2 C           1.8092    0.7514    1.4129 C.3     1  UNK1        0.0164
      3 C           2.6272   -0.4520    1.8691 C.3     1  UNK1        0.0039
      4 C           1.7730   -1.6971    2.0915 C.3     1  UNK1        0.0294
      5 C           2.6177   -2.8748    2.5206 C.2     1  UNK1        0.2138
      6 O           3.1226   -3.6314    1.6954 O.2     1  UNK1       -0.2758
      7 N           2.7787   -2.9874    3.8807 N.am    1  UNK1       -0.3032
      8 C           3.2276   -4.2626    4.4648 C.3     1  UNK1        0.1101
      9 C           3.9733   -4.0661    5.7894 C.3     1  UNK1        0.0454
     10 S           5.4949   -3.0852    5.5241 S.3     1  UNK1        0.0224
     11 N           5.8380   -3.0621    7.1687 N.2     1  UNK1        0.0049
     12 O           6.8602   -2.4096    7.3946 O.2     1  UNK1       -0.1359
     13 C           1.9452   -5.0736    4.7420 C.2     1  UNK1        0.2345
     14 O           0.8718   -4.5119    4.9710 O.2     1  UNK1       -0.2737
     15 N           2.1133   -6.4278    4.7704 N.am    2  GLY2       -0.3085
     16 CA          1.0127   -7.3928    4.9047 C.3     2  GLY2        0.0512
     17 C           1.4856   -8.8642    4.7670 C.2     2  GLY2        0.0588
     18 O           2.7307   -8.9805    4.5280 O.co2   2  GLY2       -0.5482
     19 OXT         0.5928   -9.7416    4.9014 O.co2   2  GLY2       -0.5482
     20 C           2.6817    2.0338    1.2353 C.2     1  UNK1        0.0894
     21 O           2.5142    2.5163    0.0696 O.co2   1  UNK1       -0.5442
     22 O           3.3506    2.4144    2.2209 O.co2   1  UNK1       -0.5442
     23 H           0.3490   -0.2182    0.1124 H       1  UNK1        0.2001
     24 H           0.8408    1.3761   -0.2498 H       1  UNK1        0.2001
     25 H           1.8518    0.1905   -0.5882 H       1  UNK1        0.2001
     26 H           1.0021    0.9794    2.1183 H       1  UNK1        0.0915
     27 H           3.4142   -0.6693    1.1349 H       1  UNK1        0.0328
     28 H           3.1521   -0.2076    2.8012 H       1  UNK1        0.0328
     29 H           0.9971   -1.5045    2.8421 H       1  UNK1        0.0360
     30 H           1.2531   -1.9960    1.1739 H       1  UNK1        0.0360
     31 H           2.1170   -2.4809    4.4607 H       1  UNK1        0.1495
     32 H           3.8429   -4.8088    3.7397 H       1  UNK1        0.0603
     33 H           3.3248   -3.5466    6.5077 H       1  UNK1        0.0418
     34 H           4.2399   -5.0377    6.2217 H       1  UNK1        0.0418
     35 H           2.9759   -6.8916    4.4821 H       2  GLY2        0.1491
     36 HA1         0.5422   -7.2379    5.8807 H       2  GLY2        0.0523
     37 HA2         0.2768   -7.1749    4.1229 H       2  GLY2        0.0523
@<TRIPOS>UNITY_ATOM_ATTR
1 1
charge 1
18 1
charge -1
21 1
charge -1
@<TRIPOS>BOND
     1     1    23    1
     2     1    24    1
     3     1    25    1
     4     2     1    1
     5     2    26    1
     6     3     2    1
     7     3    27    1
     8     3    28    1
     9     4     3    1
    10     4    29    1
    11     4    30    1
    12     5     4    1
    13     6     5    2
    14     7     5   am
    15     7    31    1
    16     8     7    1
    17     8    32    1
    18     9     8    1
    19     9    33    1
    20     9    34    1
    21    10     9    1
    22    11    10    1
    23    12    11    2
    24    13     8    1
    25    14    13    2
    26    15    13   am
    27    15    35    1
    28    16    15    1
    29    16    36    1
    30    16    37    1
    31    17    16    1
    32    18    17   ar
    33    19    17   ar
    34    20     2    1
    35    21    20   ar
    36    22    20   ar
