@<TRIPOS>MOLECULE
mol_442_akc_jexppara201406004
>427.sdf
 41 44 0 0 0
SMALL
GASTEIGER

@<TRIPOS>ATOM
      1 C           3.3803    0.4034   -0.8728 C.3     1  UNL1       -0.0430
      2 N           3.4810   -1.0067   -0.3658 N.4     1  UNL1        0.2357
      3 C           4.6393   -1.2476    0.5893 C.3     1  UNL1       -0.0160
      4 C           4.5588   -2.6418    1.2406 C.3     1  UNL1        0.0531
      5 N           3.2918   -2.8809    1.9524 N.pl3   1  UNL1       -0.3126
      6 C           2.1256   -2.0463    1.6187 C.3     1  UNL1        0.0891
      7 C           2.1504   -1.5630    0.1380 C.3     1  UNL1       -0.0089
      8 C           1.9224   -1.0221    2.7231 C.ar    1  UNL1       -0.0186
      9 C           2.3095    0.3229    2.6615 C.ar    1  UNL1       -0.0563
     10 C           2.1301    1.1812    3.7500 C.ar    1  UNL1       -0.0614
     11 C           1.5529    0.7112    4.9206 C.ar    1  UNL1       -0.0615
     12 C           1.1776   -0.6239    5.0145 C.ar    1  UNL1       -0.0579
     13 C           1.3760   -1.4985    3.9353 C.ar    1  UNL1       -0.0379
     14 C           1.0163   -2.9606    4.0758 C.3     1  UNL1       -0.0003
     15 C           2.1799   -3.9326    3.9330 C.ar    1  UNL1       -0.0220
     16 C           2.1712   -4.9946    4.8720 C.ar    1  UNL1       -0.0565
     17 C           3.1613   -5.9625    4.8953 C.ar    1  UNL1       -0.0614
     18 C           4.1801   -5.9027    3.9614 C.ar    1  UNL1       -0.0600
     19 C           4.1968   -4.8749    3.0126 C.ar    1  UNL1       -0.0404
     20 C           3.2080   -3.8641    2.9506 C.ar    1  UNL1        0.0340
     21 H           2.6919    0.9745   -0.2473 H       1  UNL1        0.0778
     22 H           4.3736    0.8590   -0.8632 H       1  UNL1        0.0778
     23 H           2.9908    0.3600   -1.8926 H       1  UNL1        0.0778
     24 H           3.7098   -1.5761   -1.1910 H       1  UNL1        0.2032
     25 H           5.5543   -1.1572   -0.0059 H       1  UNL1        0.0830
     26 H           4.6313   -0.4538    1.3409 H       1  UNL1        0.0830
     27 H           5.4108   -2.7173    1.9271 H       1  UNL1        0.0517
     28 H           4.6790   -3.4045    0.4617 H       1  UNL1        0.0517
     29 H           1.2345   -2.6871    1.6015 H       1  UNL1        0.0603
     30 H           1.3564   -0.8386   -0.0729 H       1  UNL1        0.0836
     31 H           1.9746   -2.4360   -0.5046 H       1  UNL1        0.0836
     32 H           2.7902    0.7459    1.7951 H       1  UNL1        0.0621
     33 H           2.4553    2.2180    3.6905 H       1  UNL1        0.0618
     34 H           1.4112    1.3772    5.7680 H       1  UNL1        0.0618
     35 H           0.7445   -0.9842    5.9466 H       1  UNL1        0.0620
     36 H           0.2268   -3.2278    3.3623 H       1  UNL1        0.0362
     37 H           0.5486   -3.0954    5.0612 H       1  UNL1        0.0362
     38 H           1.3776   -5.0660    5.6196 H       1  UNL1        0.0621
     39 H           3.1365   -6.7632    5.6319 H       1  UNL1        0.0618
     40 H           4.9645   -6.6544    3.9642 H       1  UNL1        0.0618
     41 H           5.0107   -4.9106    2.2962 H       1  UNL1        0.0636
@<TRIPOS>UNITY_ATOM_ATTR
2 1
charge 1
@<TRIPOS>BOND
     1     1    21    1
     2     1    22    1
     3     1    23    1
     4     2     1    1
     5     2    24    1
     6     3     2    1
     7     3    25    1
     8     3    26    1
     9     4     3    1
    10     4    27    1
    11     4    28    1
    12     5     4    1
    13     6     5    1
    14     6    29    1
    15     7     6    1
    16     7     2    1
    17     7    30    1
    18     7    31    1
    19     8     6    1
    20     9     8   ar
    21     9    32    1
    22    10     9   ar
    23    10    33    1
    24    11    10   ar
    25    11    34    1
    26    12    11   ar
    27    12    35    1
    28    13    12   ar
    29    13     8   ar
    30    14    13    1
    31    14    36    1
    32    14    37    1
    33    15    14    1
    34    16    15   ar
    35    16    38    1
    36    17    16   ar
    37    17    39    1
    38    18    17   ar
    39    18    40    1
    40    19    18   ar
    41    19    41    1
    42    20    19   ar
    43    20     5    1
    44    20    15   ar
