@<TRIPOS>MOLECULE
mol_443_akc_s00436_014_3868_y
>428.sdf
 52 55 0 0 0
SMALL
GASTEIGER

@<TRIPOS>ATOM
      1 F         -10.1143   -0.8771   -1.8647 F       1  UNL1       -0.2055
      2 C          -9.0248   -0.2032   -1.4759 C.ar    1  UNL1        0.1234
      3 C          -7.7767   -0.6168   -1.9160 C.ar    1  UNL1       -0.0258
      4 C          -6.6351    0.0776   -1.5070 C.ar    1  UNL1       -0.0485
      5 C          -6.7527    1.1976   -0.6688 C.ar    1  UNL1        0.0178
      6 C          -8.0215    1.6065   -0.2372 C.ar    1  UNL1       -0.0485
      7 C          -9.1582    0.8984   -0.6359 C.ar    1  UNL1       -0.0258
      8 C          -5.5548    1.9580   -0.1955 C.2     1  UNL1        0.1666
      9 O          -5.6253    3.1666    0.0038 O.2     1  UNL1       -0.2918
     10 C          -4.2857    1.1746    0.0941 C.3     1  UNL1        0.0317
     11 C          -3.3375    1.1089   -1.0953 C.3     1  UNL1       -0.0025
     12 C          -2.2707    0.0672   -0.8062 C.3     1  UNL1       -0.0312
     13 N          -1.5270    0.3681    0.4813 N.4     1  UNL1        0.2365
     14 C          -0.6492   -0.8185    0.9114 C.3     1  UNL1       -0.0132
     15 C           0.4124   -1.1955   -0.1318 C.3     1  UNL1        0.0710
     16 N           1.1660   -2.3771    0.2606 N.ar    1  UNL1       -0.2554
     17 C           0.7016   -3.6149   -0.1515 C.ar    1  UNL1        0.3300
     18 O          -0.3658   -3.7495   -0.7496 O.2     1  UNL1       -0.2465
     19 N           1.4738   -4.6957    0.1677 N.ar    1  UNL1       -0.3070
     20 C           2.6310   -4.6127    0.9443 C.ar    1  UNL1        0.0556
     21 C           3.3948   -5.7523    1.1915 C.ar    1  UNL1       -0.0375
     22 C           4.5325   -5.6564    1.9976 C.ar    1  UNL1       -0.0598
     23 C           4.8961   -4.4331    2.5653 C.ar    1  UNL1       -0.0609
     24 C           4.1318   -3.2935    2.3178 C.ar    1  UNL1       -0.0474
     25 C           3.0058   -3.3902    1.4960 C.ar    1  UNL1        0.0630
     26 C           2.1877   -2.2051    1.1876 C.ar    1  UNL1        0.2644
     27 O           2.3826   -1.1318    1.7525 O.2     1  UNL1       -0.2668
     28 C          -2.3982    0.7792    1.6642 C.3     1  UNL1       -0.0312
     29 C          -3.4854    1.7618    1.2578 C.3     1  UNL1       -0.0025
     30 H          -7.7002   -1.4745   -2.5789 H       1  UNL1        0.0646
     31 H          -5.6795   -0.2718   -1.8763 H       1  UNL1        0.0625
     32 H          -8.1319    2.4684    0.4190 H       1  UNL1        0.0625
     33 H         -10.1479    1.1964   -0.3014 H       1  UNL1        0.0646
     34 H          -4.6015    0.1638    0.3869 H       1  UNL1        0.0385
     35 H          -3.8571    0.8505   -2.0221 H       1  UNL1        0.0324
     36 H          -2.8750    2.0873   -1.2799 H       1  UNL1        0.0324
     37 H          -2.7128   -0.9303   -0.7063 H       1  UNL1        0.0815
     38 H          -1.5354    0.0656   -1.6157 H       1  UNL1        0.0815
     39 H          -0.9007    1.1664    0.2976 H       1  UNL1        0.2034
     40 H          -0.1761   -0.5258    1.8551 H       1  UNL1        0.0832
     41 H          -1.3262   -1.6577    1.1110 H       1  UNL1        0.0832
     42 H          -0.0490   -1.3956   -1.1046 H       1  UNL1        0.0547
     43 H           1.1042   -0.3576   -0.2718 H       1  UNL1        0.0547
     44 H           1.1585   -5.5937   -0.1803 H       1  UNL1        0.1704
     45 H           3.1276   -6.7165    0.7648 H       1  UNL1        0.0638
     46 H           5.1400   -6.5402    2.1877 H       1  UNL1        0.0618
     47 H           5.7807   -4.3690    3.1982 H       1  UNL1        0.0618
     48 H           4.4176   -2.3417    2.7590 H       1  UNL1        0.0626
     49 H          -1.7309    1.2216    2.4117 H       1  UNL1        0.0815
     50 H          -2.8448   -0.1336    2.0739 H       1  UNL1        0.0815
     51 H          -3.0364    2.7241    0.9769 H       1  UNL1        0.0324
     52 H          -4.1372    1.9657    2.1155 H       1  UNL1        0.0324
@<TRIPOS>UNITY_ATOM_ATTR
13 1
charge 1
@<TRIPOS>BOND
     1     2     1    1
     2     3     2   ar
     3     3    30    1
     4     4     3   ar
     5     4    31    1
     6     5     4   ar
     7     6     5   ar
     8     6    32    1
     9     7     6   ar
    10     7     2   ar
    11     7    33    1
    12     8     5    1
    13     9     8    2
    14    11    10    1
    15    11    35    1
    16    11    36    1
    17    12    11    1
    18    12    37    1
    19    12    38    1
    20    13    12    1
    21    13    39    1
    22    14    13    1
    23    14    40    1
    24    14    41    1
    25    15    14    1
    26    15    42    1
    27    15    43    1
    28    16    15    1
    29    17    16   ar
    30    18    17    2
    31    19    17   ar
    32    19    44    1
    33    20    19   ar
    34    21    20   ar
    35    21    45    1
    36    22    21   ar
    37    22    46    1
    38    23    22   ar
    39    23    47    1
    40    24    23   ar
    41    24    48    1
    42    25    24   ar
    43    25    20   ar
    44    26    25   ar
    45    26    16   ar
    46    27    26    2
    47    28    13    1
    48    28    49    1
    49    28    50    1
    50    29    28    1
    51    29    10    1
    52    29    51    1
    53    29    52    1
    54    10    34    1
    55    10     8    1
