@<TRIPOS>MOLECULE
mol_444_akc_1570180811666140423203826
>429.sdf
 47 49 0 0 0
SMALL
GASTEIGER

@<TRIPOS>ATOM
      1 C           1.1042   -1.8627    0.1349 C.3     1  UNL1        0.0820
      2 O           2.5306   -1.9250    0.1210 O.3     1  UNL1       -0.4645
      3 C           3.1117   -1.0695   -0.7560 C.2     1  UNL1        0.3389
      4 O           2.5321   -0.2978   -1.5027 O.2     1  UNL1       -0.2450
      5 C           4.5880   -1.2215   -0.7199 C.ar    1  UNL1        0.0590
      6 C           5.2540   -1.7075    0.4090 C.ar    1  UNL1       -0.0474
      7 C           6.6500   -1.7728    0.4219 C.ar    1  UNL1       -0.0553
      8 C           7.4051   -1.3279   -0.6775 C.ar    1  UNL1       -0.0185
      9 C           6.7239   -0.8766   -1.8191 C.ar    1  UNL1       -0.0553
     10 C           5.3267   -0.8217   -1.8395 C.ar    1  UNL1       -0.0474
     11 C           8.9246   -1.2293   -0.6089 C.3     1  UNL1        0.0878
     12 O           9.4289   -2.2172    0.2952 O.3     1  UNL1       -0.3655
     13 C          10.8505   -2.2430    0.4822 C.3     1  UNL1        0.0680
     14 C          11.1132   -3.3045    1.5647 C.3     1  UNL1       -0.0358
     15 C          11.5716   -2.7311   -0.7927 C.3     1  UNL1       -0.0358
     16 C          11.3539   -0.8351    0.9129 C.3     1  UNL1       -0.0053
     17 C          10.9367    0.2042   -0.1365 C.3     1  UNL1       -0.0411
     18 C           9.4043    0.2070   -0.2366 C.3     1  UNL1       -0.0009
     19 C           8.8020    0.7324    1.0921 C.3     1  UNL1        0.0202
     20 C           9.0466    2.2294    1.3010 C.3     1  UNL1       -0.0553
     21 C           9.3443   -0.0464    2.2818 C.2     1  UNL1        0.1369
     22 O           8.6445   -0.2672    3.2703 O.2     1  UNL1       -0.2971
     23 C          10.8258   -0.3741    2.2844 C.3     1  UNL1        0.0115
     24 H           0.7593   -0.8381    0.3096 H       1  UNL1        0.0661
     25 H           0.6993   -2.2530   -0.8036 H       1  UNL1        0.0661
     26 H           0.7465   -2.4900    0.9560 H       1  UNL1        0.0661
     27 H           4.7040   -2.0057    1.2984 H       1  UNL1        0.0626
     28 H           7.1494   -2.1297    1.3227 H       1  UNL1        0.0621
     29 H           7.2759   -0.5420   -2.6949 H       1  UNL1        0.0621
     30 H           4.8151   -0.4502   -2.7255 H       1  UNL1        0.0626
     31 H           9.2970   -1.4840   -1.6108 H       1  UNL1        0.0649
     32 H          10.8715   -4.3072    1.1894 H       1  UNL1        0.0257
     33 H          12.1609   -3.3059    1.8822 H       1  UNL1        0.0257
     34 H          10.4721   -3.1623    2.4400 H       1  UNL1        0.0257
     35 H          11.3988   -2.0888   -1.6593 H       1  UNL1        0.0257
     36 H          12.6546   -2.7879   -0.6325 H       1  UNL1        0.0257
     37 H          11.2146   -3.7250   -1.0859 H       1  UNL1        0.0257
     38 H          12.4491   -0.8573    0.9732 H       1  UNL1        0.0332
     39 H          11.3749   -0.0190   -1.1133 H       1  UNL1        0.0273
     40 H          11.3224    1.1942    0.1321 H       1  UNL1        0.0273
     41 H           9.1035    0.8889   -1.0426 H       1  UNL1        0.0336
     42 H           7.7157    0.6067    1.0793 H       1  UNL1        0.0378
     43 H           8.6856    2.8057    0.4416 H       1  UNL1        0.0237
     44 H           8.5098    2.5821    2.1879 H       1  UNL1        0.0237
     45 H          10.1034    2.4678    1.4548 H       1  UNL1        0.0237
     46 H          11.3528    0.5354    2.5949 H       1  UNL1        0.0345
     47 H          11.0161   -1.1238    3.0598 H       1  UNL1        0.0345
@<TRIPOS>BOND
     1     1    24    1
     2     1    25    1
     3     1    26    1
     4     2     1    1
     5     3     2    1
     6     4     3    2
     7     5     3    1
     8     6     5   ar
     9     6    27    1
    10     7     6   ar
    11     7    28    1
    12     8     7   ar
    13     9     8   ar
    14     9    29    1
    15    10     9   ar
    16    10     5   ar
    17    10    30    1
    18    11     8    1
    19    11    31    1
    20    12    11    1
    21    13    12    1
    22    14    13    1
    23    14    32    1
    24    14    33    1
    25    14    34    1
    26    15    13    1
    27    15    35    1
    28    15    36    1
    29    15    37    1
    30    16    13    1
    31    16    38    1
    32    17    16    1
    33    17    39    1
    34    17    40    1
    35    18    17    1
    36    18    11    1
    37    18    41    1
    38    19    18    1
    39    20    43    1
    40    20    44    1
    41    20    45    1
    42    21    19    1
    43    22    21    2
    44    23    21    1
    45    23    16    1
    46    23    46    1
    47    23    47    1
    48    19    20    1
    49    19    42    1
