@<TRIPOS>MOLECULE
mol_446_akc_jfitote201405009
>431.sdf
 67 69 0 0 0
SMALL
GASTEIGER

@<TRIPOS>ATOM
      1 C           1.8830    2.9359    3.8671 C.3     1  UNL1        0.0820
      2 O           3.1641    2.4098    3.5115 O.3     1  UNL1       -0.4644
      3 C           4.2130    3.0241    4.1194 C.2     1  UNL1        0.3390
      4 O           4.1345    3.9136    4.9489 O.2     1  UNL1       -0.2450
      5 C           5.5062    2.5222    3.5704 C.ar    1  UNL1        0.0627
      6 C           5.5762    1.4909    2.6258 C.ar    1  UNL1       -0.0026
      7 C           6.8050    1.1414    2.0395 C.ar    1  UNL1        0.1593
      8 O           6.8074    0.1262    1.1254 O.3     1  UNL1       -0.5033
      9 C           7.9803    1.8140    2.3892 C.ar    1  UNL1        0.1631
     10 O           9.2404    1.6753    1.8767 O.3     1  UNL1       -0.4763
     11 C           9.5153    0.9338    0.6691 C.3     1  UNL1        0.1506
     12 C           9.1369    1.7583   -0.5630 C.2     1  UNL1       -0.0406
     13 C           9.2278    1.4261   -1.8706 C.2     1  UNL1       -0.0759
     14 C           9.6378    0.0806   -2.3938 C.3     1  UNL1       -0.0439
     15 C           8.9281    2.4406   -2.9451 C.3     1  UNL1       -0.0439
     16 C          11.0118    0.5892    0.7226 C.ar    1  UNL1        0.0804
     17 C          11.5093   -0.7303    0.8080 C.ar    1  UNL1        0.1341
     18 O          10.9039   -1.9509    0.7709 O.3     1  UNL1       -0.4945
     19 C           9.5526   -2.2077    0.4611 C.3     1  UNL1        0.0788
     20 C          12.8939   -0.9327    0.9683 C.ar    1  UNL1        0.0229
     21 C          13.8001    0.1164    1.0401 C.ar    1  UNL1        0.1343
     22 O          15.1132   -0.2364    1.2060 O.3     1  UNL1       -0.5058
     23 C          13.3598    1.4357    0.9480 C.ar    1  UNL1        0.1007
     24 C          14.3841    2.5187    1.0389 C.2     1  UNL1        0.1705
     25 O          15.5491    2.2440    0.7337 O.2     1  UNL1       -0.2918
     26 C          14.0506    3.9018    1.5606 C.3     1  UNL1        0.0147
     27 C          13.5667    3.8526    3.0053 C.3     1  UNL1       -0.0207
     28 C          13.2552    5.2293    3.5352 C.ar    1  UNL1       -0.0469
     29 C          11.9650    5.7608    3.4058 C.ar    1  UNL1       -0.0586
     30 C          11.6763    7.0370    3.8902 C.ar    1  UNL1       -0.0615
     31 C          12.6751    7.7954    4.4986 C.ar    1  UNL1       -0.0617
     32 C          13.9645    7.2799    4.6205 C.ar    1  UNL1       -0.0615
     33 C          14.2548    6.0026    4.1398 C.ar    1  UNL1       -0.0586
     34 C          11.9795    1.6539    0.7628 C.ar    1  UNL1        0.1413
     35 O          11.5756    2.9555    0.6055 O.3     1  UNL1       -0.5054
     36 C           7.9090    2.7865    3.3977 C.ar    1  UNL1       -0.0155
     37 C           6.6865    3.1454    3.9823 C.ar    1  UNL1       -0.0441
     38 H           1.7780    3.0532    4.9502 H       1  UNL1        0.0661
     39 H           1.7241    3.8919    3.3588 H       1  UNL1        0.0661
     40 H           1.1195    2.2316    3.5239 H       1  UNL1        0.0661
     41 H           4.6686    0.9706    2.3342 H       1  UNL1        0.0663
     42 H           5.9005   -0.1985    0.9977 H       1  UNL1        0.2923
     43 H           8.9360    0.0291    0.6893 H       1  UNL1        0.0833
     44 H           8.7762    2.7595   -0.3223 H       1  UNL1        0.0611
     45 H           8.7496   -0.5427   -2.5415 H       1  UNL1        0.0274
     46 H          10.1543    0.1658   -3.3557 H       1  UNL1        0.0274
     47 H          10.3310   -0.4372   -1.7323 H       1  UNL1        0.0274
     48 H           8.0089    2.9952   -2.7385 H       1  UNL1        0.0274
     49 H           9.7633    3.1443   -3.0293 H       1  UNL1        0.0274
     50 H           8.8077    1.9606   -3.9234 H       1  UNL1        0.0274
     51 H           8.9266   -2.0644    1.3448 H       1  UNL1        0.0660
     52 H           9.1850   -1.6435   -0.3936 H       1  UNL1        0.0660
     53 H           9.4804   -3.2616    0.1716 H       1  UNL1        0.0660
     54 H          13.2779   -1.9511    1.0403 H       1  UNL1        0.0691
     55 H          15.6639    0.5679    1.0674 H       1  UNL1        0.2922
     56 H          14.9758    4.4942    1.5100 H       1  UNL1        0.0348
     57 H          13.3571    4.4108    0.8878 H       1  UNL1        0.0348
     58 H          12.6768    3.2208    3.1114 H       1  UNL1        0.0317
     59 H          14.3291    3.3811    3.6394 H       1  UNL1        0.0317
     60 H          11.1796    5.1792    2.9271 H       1  UNL1        0.0620
     61 H          10.6713    7.4399    3.7931 H       1  UNL1        0.0618
     62 H          12.4499    8.7888    4.8769 H       1  UNL1        0.0618
     63 H          14.7447    7.8724    5.0909 H       1  UNL1        0.0618
     64 H          15.2655    5.6134    4.2398 H       1  UNL1        0.0620
     65 H          11.0256    3.0044   -0.2011 H       1  UNL1        0.2922
     66 H           8.8164    3.2948    3.7206 H       1  UNL1        0.0655
     67 H           6.6639    3.9279    4.7386 H       1  UNL1        0.0627
@<TRIPOS>BOND
     1     1    38    1
     2     1    39    1
     3     1    40    1
     4     2     1    1
     5     3     2    1
     6     4     3    2
     7     5     3    1
     8     6     5   ar
     9     6    41    1
    10     7     6   ar
    11     8     7    1
    12     8    42    1
    13     9     7   ar
    14    10     9    1
    15    11    10    1
    16    11    43    1
    17    12    11    1
    18    12    44    1
    19    13    12    2
    20    14    13    1
    21    14    45    1
    22    14    46    1
    23    14    47    1
    24    15    13    1
    25    15    48    1
    26    15    49    1
    27    15    50    1
    28    16    11    1
    29    17    16   ar
    30    18    17    1
    31    19    18    1
    32    19    51    1
    33    19    52    1
    34    19    53    1
    35    20    17   ar
    36    20    54    1
    37    21    20   ar
    38    22    21    1
    39    22    55    1
    40    23    21   ar
    41    24    23    1
    42    25    24    2
    43    26    24    1
    44    26    56    1
    45    26    57    1
    46    27    26    1
    47    27    58    1
    48    27    59    1
    49    28    27    1
    50    29    28   ar
    51    29    60    1
    52    30    29   ar
    53    30    61    1
    54    31    30   ar
    55    31    62    1
    56    32    31   ar
    57    32    63    1
    58    33    32   ar
    59    33    28   ar
    60    33    64    1
    61    34    23   ar
    62    34    16   ar
    63    35    34    1
    64    35    65    1
    65    36     9   ar
    66    36    66    1
    67    37    36   ar
    68    37     5   ar
    69    37    67    1
