@<TRIPOS>MOLECULE
mol_447_akc_jfitote201405009
>431_2.sdf
 67 69 0 0 0
SMALL
GASTEIGER

@<TRIPOS>ATOM
      1 C           5.6841   -2.3962    7.4356 C.3     1  UNL1        0.0820
      2 O           6.4438   -2.4504    6.2269 O.3     1  UNL1       -0.4644
      3 C           6.4739   -1.2707    5.5641 C.2     1  UNL1        0.3390
      4 O           5.9353   -0.2337    5.9222 O.2     1  UNL1       -0.2450
      5 C           7.2416   -1.3805    4.2979 C.ar    1  UNL1        0.0627
      6 C           7.3252   -0.2299    3.5102 C.ar    1  UNL1       -0.0026
      7 C           8.0111   -0.2416    2.2943 C.ar    1  UNL1        0.1593
      8 O           8.0442    0.9456    1.6153 O.3     1  UNL1       -0.5033
      9 C           8.6334   -1.4123    1.8374 C.ar    1  UNL1        0.1631
     10 O           9.3360   -1.6320    0.6826 O.3     1  UNL1       -0.4763
     11 C           9.4931   -0.6040   -0.3025 C.3     1  UNL1        0.1506
     12 C           8.4105   -0.7348   -1.3546 C.2     1  UNL1       -0.0406
     13 C           7.7665    0.2689   -1.9965 C.2     1  UNL1       -0.0759
     14 C           8.2193    1.6997   -2.0653 C.3     1  UNL1       -0.0439
     15 C           6.4346    0.0207   -2.6523 C.3     1  UNL1       -0.0439
     16 C          10.9525   -0.4735   -0.7233 C.ar    1  UNL1        0.0804
     17 C          11.7635   -1.5762   -1.0451 C.ar    1  UNL1        0.1341
     18 O          11.3412   -2.8682   -0.8622 O.3     1  UNL1       -0.4945
     19 C          10.6574   -3.4016   -1.9901 C.3     1  UNL1        0.0788
     20 C          13.1251   -1.4052   -1.3289 C.ar    1  UNL1        0.0229
     21 C          13.7060   -0.1357   -1.2929 C.ar    1  UNL1        0.1343
     22 O          15.0527   -0.0850   -1.5537 O.3     1  UNL1       -0.5058
     23 C          12.9501    0.9947   -0.9520 C.ar    1  UNL1        0.1007
     24 C          13.6430    2.3264   -0.8284 C.2     1  UNL1        0.1705
     25 O          14.7724    2.4325   -1.3207 O.2     1  UNL1       -0.2918
     26 C          13.0314    3.5026   -0.0776 C.3     1  UNL1        0.0147
     27 C          12.9119    3.2215    1.4202 C.3     1  UNL1       -0.0207
     28 C          12.2418    4.3399    2.1814 C.ar    1  UNL1       -0.0469
     29 C          10.8591    4.3520    2.3720 C.ar    1  UNL1       -0.0586
     30 C          10.2462    5.3786    3.1037 C.ar    1  UNL1       -0.0615
     31 C          11.0240    6.4017    3.6480 C.ar    1  UNL1       -0.0617
     32 C          12.4012    6.4013    3.4541 C.ar    1  UNL1       -0.0615
     33 C          13.0097    5.3815    2.7199 C.ar    1  UNL1       -0.0586
     34 C          11.5845    0.8057   -0.6778 C.ar    1  UNL1        0.1413
     35 O          10.8650    1.9238   -0.3378 O.3     1  UNL1       -0.5054
     36 C           8.5514   -2.5610    2.6427 C.ar    1  UNL1       -0.0155
     37 C           7.8626   -2.5527    3.8631 C.ar    1  UNL1       -0.0441
     38 H           6.0455   -1.5955    8.0899 H       1  UNL1        0.0661
     39 H           4.6230   -2.2549    7.2053 H       1  UNL1        0.0661
     40 H           5.8048   -3.3484    7.9570 H       1  UNL1        0.0661
     41 H           6.8545    0.6861    3.8618 H       1  UNL1        0.0663
     42 H           7.3479    1.5295    1.9614 H       1  UNL1        0.2923
     43 H           9.2794    0.3296    0.1668 H       1  UNL1        0.0833
     44 H           7.9569   -1.7246   -1.3902 H       1  UNL1        0.0611
     45 H           7.9864    2.1319   -3.0446 H       1  UNL1        0.0274
     46 H           7.7346    2.3065   -1.2957 H       1  UNL1        0.0274
     47 H           9.2983    1.7885   -1.9790 H       1  UNL1        0.0274
     48 H           6.3732   -0.9785   -3.0916 H       1  UNL1        0.0274
     49 H           5.6417    0.1271   -1.9030 H       1  UNL1        0.0274
     50 H           6.2350    0.7473   -3.4470 H       1  UNL1        0.0274
     51 H           9.7995   -2.7931   -2.2761 H       1  UNL1        0.0660
     52 H          11.3289   -3.5267   -2.8442 H       1  UNL1        0.0660
     53 H          10.2785   -4.3886   -1.7039 H       1  UNL1        0.0660
     54 H          13.7547   -2.2697   -1.5302 H       1  UNL1        0.0691
     55 H          15.3259    0.8615   -1.5592 H       1  UNL1        0.2922
     56 H          13.6956    4.3651   -0.2257 H       1  UNL1        0.0348
     57 H          12.0906    3.8107   -0.5439 H       1  UNL1        0.0348
     58 H          12.3716    2.2901    1.6253 H       1  UNL1        0.0317
     59 H          13.9111    3.0520    1.8368 H       1  UNL1        0.0317
     60 H          10.2303    3.5643    1.9628 H       1  UNL1        0.0620
     61 H           9.1710    5.3802    3.2517 H       1  UNL1        0.0618
     62 H          10.5525    7.1946    4.2189 H       1  UNL1        0.0618
     63 H          13.0067    7.1996    3.8724 H       1  UNL1        0.0618
     64 H          14.0873    5.3995    2.5800 H       1  UNL1        0.0620
     65 H          10.2623    1.7441    0.4037 H       1  UNL1        0.2922
     66 H           9.0330   -3.4807    2.3104 H       1  UNL1        0.0655
     67 H           7.8217   -3.4633    4.4553 H       1  UNL1        0.0627
@<TRIPOS>BOND
     1     1    38    1
     2     1    39    1
     3     1    40    1
     4     2     1    1
     5     3     2    1
     6     4     3    2
     7     5     3    1
     8     6     5   ar
     9     6    41    1
    10     7     6   ar
    11     8     7    1
    12     8    42    1
    13     9     7   ar
    14    10     9    1
    15    12    11    1
    16    12    44    1
    17    13    12    2
    18    14    13    1
    19    14    45    1
    20    14    46    1
    21    14    47    1
    22    15    13    1
    23    15    48    1
    24    15    49    1
    25    15    50    1
    26    16    11    1
    27    17    16   ar
    28    18    17    1
    29    19    18    1
    30    19    51    1
    31    19    52    1
    32    19    53    1
    33    20    17   ar
    34    20    54    1
    35    21    20   ar
    36    22    21    1
    37    22    55    1
    38    23    21   ar
    39    24    23    1
    40    25    24    2
    41    26    24    1
    42    26    56    1
    43    26    57    1
    44    27    26    1
    45    27    58    1
    46    27    59    1
    47    28    27    1
    48    29    28   ar
    49    29    60    1
    50    30    29   ar
    51    30    61    1
    52    31    30   ar
    53    31    62    1
    54    32    31   ar
    55    32    63    1
    56    33    32   ar
    57    33    28   ar
    58    33    64    1
    59    34    23   ar
    60    34    16   ar
    61    35    34    1
    62    35    65    1
    63    36     9   ar
    64    36    66    1
    65    37    36   ar
    66    37     5   ar
    67    37    67    1
    68    11    43    1
    69    11    10    1
