@<TRIPOS>MOLECULE
mol_448_akc_journalpntd0000912
>432.sdf
 73 72 0 0 0
SMALL
GASTEIGER

@<TRIPOS>ATOM
      1 C          36.7554   -4.6659   19.0903 C.3     1  UNL1       -0.0653
      2 C          35.2627   -4.5565   19.3512 C.3     1  UNL1       -0.0559
      3 C          34.4649   -4.8806   18.0918 C.3     1  UNL1       -0.0533
      4 C          32.9634   -4.7743   18.3407 C.3     1  UNL1       -0.0531
      5 C          32.1867   -5.0962   17.0663 C.3     1  UNL1       -0.0531
      6 C          30.6861   -4.9999   17.3060 C.3     1  UNL1       -0.0531
      7 C          29.9034   -5.3268   16.0364 C.3     1  UNL1       -0.0531
      8 C          28.4110   -5.2183   16.3136 C.3     1  UNL1       -0.0531
      9 C          27.5683   -5.5351   15.0834 C.3     1  UNL1       -0.0531
     10 C          26.0940   -5.3911   15.4457 C.3     1  UNL1       -0.0531
     11 C          25.1773   -5.6780   14.2661 C.3     1  UNL1       -0.0531
     12 C          23.7185   -5.5278   14.6955 C.3     1  UNL1       -0.0531
     13 C          22.7810   -5.8398   13.5363 C.3     1  UNL1       -0.0530
     14 C          21.3162   -5.7558   13.9634 C.3     1  UNL1       -0.0510
     15 C          20.3546   -5.9026   12.7867 C.3     1  UNL1       -0.0290
     16 C          20.4229   -7.2357   12.0471 C.3     1  UNL1        0.0549
     17 O          19.6810   -7.0713   10.8501 O.3     1  UNL1       -0.3274
     18 P          19.7471   -8.2851    9.7822 P.3     1  UNL1        0.2127
     19 O          18.8582   -9.4115   10.2114 O.co2   1  UNL1       -0.4373
     20 O          21.1861   -8.4767    9.3532 O.2     1  UNL1       -0.5172
     21 O          19.0157   -7.5157    8.5528 O.3     1  UNL1       -0.3221
     22 C          19.1758   -8.1185    7.2864 C.3     1  UNL1        0.0947
     23 C          18.9952   -7.0609    6.1973 C.3     1  UNL1       -0.0064
     24 N          20.0805   -5.9422    6.1557 N.4     1  UNL1        0.2385
     25 C          21.4678   -6.5317    5.9514 C.3     1  UNL1       -0.0417
     26 C          19.7595   -5.0061    5.0035 C.3     1  UNL1       -0.0417
     27 C          20.0770   -5.1408    7.4591 C.3     1  UNL1       -0.0417
     28 H          37.3183   -4.4305   19.9983 H       1  UNL1        0.0230
     29 H          37.0233   -5.6796   18.7751 H       1  UNL1        0.0230
     30 H          37.0664   -3.9693   18.3050 H       1  UNL1        0.0230
     31 H          34.9833   -5.2439   20.1581 H       1  UNL1        0.0263
     32 H          35.0270   -3.5416   19.6918 H       1  UNL1        0.0263
     33 H          34.7518   -4.1930   17.2868 H       1  UNL1        0.0265
     34 H          34.7082   -5.8948   17.7522 H       1  UNL1        0.0265
     35 H          32.6691   -5.4664   19.1392 H       1  UNL1        0.0265
     36 H          32.7131   -3.7621   18.6815 H       1  UNL1        0.0265
     37 H          32.4777   -4.4003   16.2703 H       1  UNL1        0.0265
     38 H          32.4403   -6.1066   16.7240 H       1  UNL1        0.0265
     39 H          30.3946   -5.6914   18.1061 H       1  UNL1        0.0265
     40 H          30.4308   -3.9887   17.6461 H       1  UNL1        0.0265
     41 H          30.1851   -4.6335   15.2348 H       1  UNL1        0.0265
     42 H          30.1483   -6.3396   15.6951 H       1  UNL1        0.0265
     43 H          28.1407   -5.9048   17.1256 H       1  UNL1        0.0265
     44 H          28.1788   -4.2037   16.6611 H       1  UNL1        0.0265
     45 H          27.8245   -4.8525   14.2644 H       1  UNL1        0.0265
     46 H          27.7741   -6.5552   14.7372 H       1  UNL1        0.0265
     47 H          25.8544   -6.0773   16.2677 H       1  UNL1        0.0265
     48 H          25.9070   -4.3737   15.8114 H       1  UNL1        0.0265
     49 H          25.3984   -4.9887   13.4423 H       1  UNL1        0.0265
     50 H          25.3545   -6.6953   13.8960 H       1  UNL1        0.0265
     51 H          23.5097   -6.2049   15.5329 H       1  UNL1        0.0265
     52 H          23.5417   -4.5061   15.0538 H       1  UNL1        0.0265
     53 H          22.9701   -5.1371   12.7157 H       1  UNL1        0.0265
     54 H          23.0060   -6.8450   13.1650 H       1  UNL1        0.0265
     55 H          21.1014   -6.5124   14.7269 H       1  UNL1        0.0266
     56 H          21.1355   -4.7775   14.4283 H       1  UNL1        0.0266
     57 H          19.3280   -5.7582   13.1461 H       1  UNL1        0.0287
     58 H          20.5307   -5.0848   12.0764 H       1  UNL1        0.0287
     59 H          21.4520   -7.5075   11.7975 H       1  UNL1        0.0564
     60 H          19.9838   -8.0391   12.6479 H       1  UNL1        0.0564
     61 H          20.1438   -8.6154    7.1831 H       1  UNL1        0.0618
     62 H          18.4047   -8.8880    7.1794 H       1  UNL1        0.0618
     63 H          19.0074   -7.5367    5.2105 H       1  UNL1        0.0838
     64 H          18.0383   -6.5427    6.3312 H       1  UNL1        0.0838
     65 H          21.4615   -7.1044    5.0190 H       1  UNL1        0.0778
     66 H          22.1813   -5.7042    5.8763 H       1  UNL1        0.0778
     67 H          21.7275   -7.1661    6.7998 H       1  UNL1        0.0778
     68 H          18.7715   -4.5673    5.1715 H       1  UNL1        0.0778
     69 H          20.5210   -4.2205    4.9646 H       1  UNL1        0.0778
     70 H          19.7692   -5.5814    4.0725 H       1  UNL1        0.0778
     71 H          19.0450   -4.8667    7.6955 H       1  UNL1        0.0778
     72 H          20.5389   -5.7293    8.2524 H       1  UNL1        0.0778
     73 H          20.6732   -4.2359    7.3000 H       1  UNL1        0.0778
@<TRIPOS>UNITY_ATOM_ATTR
19 1
charge -1
24 1
charge 1
@<TRIPOS>BOND
     1     1    28    1
     2     1    29    1
     3     1    30    1
     4     2     1    1
     5     2    31    1
     6     2    32    1
     7     3     2    1
     8     3    33    1
     9     3    34    1
    10     4     3    1
    11     4    35    1
    12     4    36    1
    13     5     4    1
    14     5    37    1
    15     5    38    1
    16     6     5    1
    17     6    39    1
    18     6    40    1
    19     7     6    1
    20     7    41    1
    21     7    42    1
    22     8     7    1
    23     8    43    1
    24     8    44    1
    25     9     8    1
    26     9    45    1
    27     9    46    1
    28    10     9    1
    29    10    47    1
    30    10    48    1
    31    11    10    1
    32    11    49    1
    33    11    50    1
    34    12    11    1
    35    12    51    1
    36    12    52    1
    37    13    12    1
    38    13    53    1
    39    13    54    1
    40    14    13    1
    41    14    55    1
    42    14    56    1
    43    15    14    1
    44    15    57    1
    45    15    58    1
    46    16    15    1
    47    16    59    1
    48    16    60    1
    49    17    16    1
    50    20    18    2
    51    21    18    1
    52    22    21    1
    53    22    61    1
    54    22    62    1
    55    23    22    1
    56    23    63    1
    57    23    64    1
    58    24    23    1
    59    25    24    1
    60    25    65    1
    61    25    66    1
    62    25    67    1
    63    26    24    1
    64    26    68    1
    65    26    69    1
    66    26    70    1
    67    27    24    1
    68    27    71    1
    69    27    72    1
    70    27    73    1
    71    18    19    1
    72    18    17    1
