@<TRIPOS>MOLECULE
mol_44_akc_14756360600700517
>44.sdf
 42 45 0 0 0
SMALL
GASTEIGER

@<TRIPOS>ATOM
      1 C           9.0975   -6.3566   -3.6477 C.3     1  UNL1       -0.0471
      2 C           7.8457   -6.6465   -2.8354 C.3     1  UNL1        0.0205
      3 N           7.0389   -5.4529   -2.6336 N.ar    1  UNL1       -0.3465
      4 C           5.9944   -5.0848   -3.4442 C.ar    1  UNL1        0.0112
      5 C           5.5277   -3.8478   -3.0319 C.ar    1  UNL1        0.0050
      6 C           4.4685   -2.9563   -3.6484 C.3     1  UNL1        0.0888
      7 N           3.4783   -3.6465   -4.4740 N.ar    1  UNL1       -0.3253
      8 C           2.1551   -3.8054   -4.1331 C.ar    1  UNL1        0.0250
      9 C           1.5970   -4.5138   -5.1710 C.ar    1  UNL1        0.0454
     10 N           2.5343   -4.7785   -6.1325 N.ar    1  UNL1       -0.2440
     11 C           3.6480   -4.2377   -5.6921 C.ar    1  UNL1        0.0967
     12 C           5.2075   -1.8243   -4.3631 C.ar    1  UNL1       -0.0018
     13 C           6.3394   -2.0737   -5.1741 C.ar    1  UNL1       -0.0535
     14 C           7.1095   -1.0297   -5.6920 C.ar    1  UNL1       -0.0430
     15 C           6.7487    0.2864   -5.4333 C.ar    1  UNL1        0.0424
     16 CL          7.7325    1.5719   -6.0133 Cl      1  UNL1       -0.0835
     17 C           5.6034    0.5670   -4.6972 C.ar    1  UNL1       -0.0247
     18 C           4.8321   -0.4786   -4.1770 C.ar    1  UNL1        0.0478
     19 CL          3.4228   -0.0292   -3.2796 Cl      1  UNL1       -0.0831
     20 C           6.2938   -3.5005   -1.8635 C.ar    1  UNL1        0.0064
     21 C           7.2283   -4.5147   -1.6422 C.ar    1  UNL1        0.0495
     22 C           8.1514   -4.4575   -0.5849 C.ar    1  UNL1       -0.0366
     23 C           8.1222   -3.3437    0.2601 C.ar    1  UNL1       -0.0458
     24 C           7.2024   -2.3232    0.0524 C.ar    1  UNL1        0.0186
     25 BR          7.1955   -0.8191    1.1999 Br      1  UNL1       -0.0503
     26 C           6.2844   -2.3843   -0.9975 C.ar    1  UNL1       -0.0382
     27 H           9.6802   -7.2719   -3.7898 H       1  UNL1        0.0247
     28 H           8.8433   -5.9566   -4.6353 H       1  UNL1        0.0247
     29 H           9.7363   -5.6213   -3.1470 H       1  UNL1        0.0247
     30 H           7.2227   -7.3886   -3.3473 H       1  UNL1        0.0489
     31 H           8.1014   -7.0542   -1.8520 H       1  UNL1        0.0489
     32 H           5.6988   -5.7172   -4.2729 H       1  UNL1        0.0813
     33 H           3.9034   -2.5585   -2.7968 H       1  UNL1        0.0630
     34 H           1.7361   -3.4194   -3.2139 H       1  UNL1        0.0825
     35 H           0.5712   -4.8436   -5.2734 H       1  UNL1        0.0845
     36 H           4.5957   -4.2615   -6.2148 H       1  UNL1        0.1029
     37 H           6.6715   -3.0918   -5.3725 H       1  UNL1        0.0622
     38 H           8.0015   -1.2539   -6.2723 H       1  UNL1        0.0632
     39 H           5.3200    1.6006   -4.5127 H       1  UNL1        0.0647
     40 H           8.8783   -5.2471   -0.4217 H       1  UNL1        0.0639
     41 H           8.8332   -3.2838    1.0803 H       1  UNL1        0.0629
     42 H           5.5761   -1.5757   -1.1489 H       1  UNL1        0.0635
@<TRIPOS>BOND
     1     1    27    1
     2     1    28    1
     3     1    29    1
     4     2     1    1
     5     2    30    1
     6     2    31    1
     7     3     2    1
     8     4     3   ar
     9     4    32    1
    10     5     4   ar
    11     7     6    1
    12     8     7   ar
    13     8    34    1
    14     9     8   ar
    15     9    35    1
    16    10     9   ar
    17    11    10   ar
    18    11     7   ar
    19    11    36    1
    20    12     6    1
    21    13    12   ar
    22    13    37    1
    23    14    13   ar
    24    14    38    1
    25    15    14   ar
    26    16    15    1
    27    17    15   ar
    28    17    39    1
    29    18    17   ar
    30    18    12   ar
    31    19    18    1
    32    20     5   ar
    33    21    20   ar
    34    21     3   ar
    35    22    21   ar
    36    22    40    1
    37    23    22   ar
    38    23    41    1
    39    24    23   ar
    40    25    24    1
    41    26    24   ar
    42    26    20   ar
    43    26    42    1
    44     6    33    1
    45     6     5    1
