@<TRIPOS>MOLECULE
mol_451_akc_aac01240_13
>435.sdf
 84 86 0 0 0
SMALL
GASTEIGER

@<TRIPOS>ATOM
      1 C           8.5915    5.4746    8.8381 C.3     1  UNL1       -0.0651
      2 C           8.2933    4.7787    7.5196 C.3     1  UNL1       -0.0511
      3 C           6.7991    4.7429    7.2135 C.3     1  UNL1       -0.0128
      4 C           6.4657    4.1941    5.8241 C.3     1  UNL1       -0.0319
      5 N           6.9751    2.7790    5.5529 N.4     1  UNL1        0.2353
      6 C           6.4508    1.7904    6.5840 C.3     1  UNL1       -0.0319
      7 C           6.8808    0.3376    6.3691 C.3     1  UNL1       -0.0128
      8 C           8.3933    0.1183    6.3567 C.3     1  UNL1       -0.0511
      9 C           8.7294   -1.3514    6.1434 C.3     1  UNL1       -0.0651
     10 C           6.6823    2.3535    4.1177 C.3     1  UNL1       -0.0288
     11 C           7.4266    3.1744    3.0652 C.3     1  UNL1        0.0217
     12 C           8.9553    3.0445    3.0995 C.3     1  UNL1        0.0944
     13 O           9.4377    3.2710    4.4282 O.3     1  UNL1       -0.4918
     14 C          10.7979    3.3682    4.5947 C.ar    1  UNL1        0.1205
     15 C          11.7365    3.6149    3.5923 C.ar    1  UNL1       -0.0193
     16 C          13.0864    3.8093    3.9259 C.ar    1  UNL1       -0.0475
     17 C          13.5234    3.7407    5.2583 C.ar    1  UNL1        0.0226
     18 C          12.5941    3.4573    6.2588 C.ar    1  UNL1       -0.0475
     19 C          11.2441    3.2748    5.9202 C.ar    1  UNL1       -0.0193
     20 C          14.8985    4.1820    5.5875 C.2     1  UNL1        0.1970
     21 O          15.2952    5.2027    5.0196 O.2     1  UNL1       -0.2865
     22 C          15.7274    3.4866    6.5593 C.ar    1  UNL1        0.0709
     23 C          16.6135    4.1256    7.4203 C.ar    1  UNL1        0.1171
     24 C          17.0242    5.5406    7.6741 C.3     1  UNL1        0.0062
     25 C          15.9532    6.4634    8.2493 C.3     1  UNL1       -0.0464
     26 C          15.3334    6.0536    9.5877 C.3     1  UNL1       -0.0555
     27 C          16.3310    5.9044   10.7258 C.3     1  UNL1       -0.0653
     28 O          17.3705    3.2146    8.0874 O.2     1  UNL1       -0.4590
     29 C          17.0505    1.9930    7.6097 C.ar    1  UNL1        0.1360
     30 C          17.7350    0.8267    7.9419 C.ar    1  UNL1       -0.0169
     31 C          17.3087   -0.3438    7.3197 C.ar    1  UNL1       -0.0358
     32 C          16.2257   -0.3307    6.4382 C.ar    1  UNL1        0.0485
     33 N          15.8534   -1.5599    5.8183 N.pl3   1  UNL1       -0.2209
     34 S          16.1792   -1.7772    4.1783 S.O2    1  UNL1        0.0403
     35 C          17.9598   -1.6648    4.1040 C.3     1  UNL1        0.0736
     36 O          15.8145   -3.1466    3.8934 O.2     1  UNL1       -0.1555
     37 O          15.6040   -0.6777    3.4311 O.2     1  UNL1       -0.1555
     38 C          15.5560    0.8680    6.1181 C.ar    1  UNL1       -0.0279
     39 C          15.9948    2.0748    6.7075 C.ar    1  UNL1        0.0331
     40 H           9.6727    5.5143    9.0067 H       1  UNL1        0.0230
     41 H           8.2101    6.5004    8.8399 H       1  UNL1        0.0230
     42 H           8.1379    4.9351    9.6754 H       1  UNL1        0.0230
     43 H           8.8273    5.2958    6.7140 H       1  UNL1        0.0264
     44 H           8.6776    3.7577    7.5785 H       1  UNL1        0.0264
     45 H           6.2676    4.1826    7.9905 H       1  UNL1        0.0317
     46 H           6.4052    5.7663    7.2650 H       1  UNL1        0.0317
     47 H           5.3825    4.1828    5.6651 H       1  UNL1        0.0814
     48 H           6.9244    4.8533    5.0814 H       1  UNL1        0.0814
     49 H           8.0064    2.8138    5.6253 H       1  UNL1        0.2033
     50 H           6.8212    2.1175    7.5595 H       1  UNL1        0.0814
     51 H           5.3580    1.8667    6.5735 H       1  UNL1        0.0814
     52 H           6.4526   -0.2550    7.1886 H       1  UNL1        0.0317
     53 H           6.4283   -0.0689    5.4581 H       1  UNL1        0.0317
     54 H           8.8644    0.7015    5.5601 H       1  UNL1        0.0264
     55 H           8.8243    0.4532    7.3070 H       1  UNL1        0.0264
     56 H           8.2968   -1.9740    6.9333 H       1  UNL1        0.0230
     57 H           8.3445   -1.7042    5.1807 H       1  UNL1        0.0230
     58 H           9.8137   -1.4994    6.1491 H       1  UNL1        0.0230
     59 H           6.9813    1.3109    4.0021 H       1  UNL1        0.0815
     60 H           5.5952    2.4245    3.9811 H       1  UNL1        0.0815
     61 H           7.0822    2.8507    2.0746 H       1  UNL1        0.0350
     62 H           7.1480    4.2301    3.1372 H       1  UNL1        0.0350
     63 H           9.2454    2.0361    2.7834 H       1  UNL1        0.0698
     64 H           9.3537    3.7798    2.3920 H       1  UNL1        0.0698
     65 H          11.4630    3.7129    2.5461 H       1  UNL1        0.0654
     66 H          13.7976    4.0633    3.1391 H       1  UNL1        0.0626
     67 H          12.8877    3.4447    7.3060 H       1  UNL1        0.0626
     68 H          10.5386    3.0842    6.7201 H       1  UNL1        0.0654
     69 H          17.8960    5.5474    8.3415 H       1  UNL1        0.0344
     70 H          17.3807    5.9639    6.7275 H       1  UNL1        0.0344
     71 H          16.4071    7.4559    8.3732 H       1  UNL1        0.0269
     72 H          15.1457    6.5892    7.5190 H       1  UNL1        0.0269
     73 H          14.6072    6.8258    9.8718 H       1  UNL1        0.0263
     74 H          14.7679    5.1225    9.4723 H       1  UNL1        0.0263
     75 H          17.0180    5.0717   10.5526 H       1  UNL1        0.0230
     76 H          16.9176    6.8185   10.8629 H       1  UNL1        0.0230
     77 H          15.7989    5.7053   11.6629 H       1  UNL1        0.0230
     78 H          18.5871    0.8476    8.6128 H       1  UNL1        0.0655
     79 H          17.8525   -1.2653    7.5199 H       1  UNL1        0.0638
     80 H          16.0395   -2.4131    6.3502 H       1  UNL1        0.1733
     81 H          18.3918   -2.3764    4.8106 H       1  UNL1        0.0482
     82 H          18.2695   -1.9262    3.0894 H       1  UNL1        0.0482
     83 H          18.2714   -0.6441    4.3294 H       1  UNL1        0.0482
     84 H          14.7399    0.8620    5.4014 H       1  UNL1        0.0644
@<TRIPOS>UNITY_ATOM_ATTR
5 1
charge 1
@<TRIPOS>BOND
     1     1    40    1
     2     1    41    1
     3     1    42    1
     4     2     1    1
     5     2    43    1
     6     2    44    1
     7     3     2    1
     8     3    45    1
     9     3    46    1
    10     4     3    1
    11     4    47    1
    12     4    48    1
    13     5     4    1
    14     5    49    1
    15     6     5    1
    16     6    50    1
    17     6    51    1
    18     7     6    1
    19     7    52    1
    20     7    53    1
    21     8     7    1
    22     8    54    1
    23     8    55    1
    24     9     8    1
    25     9    56    1
    26     9    57    1
    27     9    58    1
    28    10     5    1
    29    10    59    1
    30    10    60    1
    31    11    10    1
    32    11    61    1
    33    11    62    1
    34    12    11    1
    35    12    63    1
    36    12    64    1
    37    13    12    1
    38    14    13    1
    39    15    14   ar
    40    15    65    1
    41    16    15   ar
    42    16    66    1
    43    17    16   ar
    44    18    17   ar
    45    18    67    1
    46    19    18   ar
    47    19    14   ar
    48    19    68    1
    49    20    17    1
    50    21    20    2
    51    22    20    1
    52    23    22   ar
    53    24    23    1
    54    24    69    1
    55    24    70    1
    56    25    24    1
    57    25    71    1
    58    25    72    1
    59    26    25    1
    60    26    73    1
    61    26    74    1
    62    27    26    1
    63    27    75    1
    64    27    76    1
    65    27    77    1
    66    28    23   ar
    67    29    28   ar
    68    30    29   ar
    69    30    78    1
    70    31    30   ar
    71    31    79    1
    72    32    31   ar
    73    33    32    1
    74    33    80    1
    75    34    33    1
    76    35    34    1
    77    35    81    1
    78    35    82    1
    79    35    83    1
    80    36    34    2
    81    37    34    2
    82    38    32   ar
    83    38    84    1
    84    39    38   ar
    85    39    22   ar
    86    39    29   ar
