@<TRIPOS>MOLECULE
mol_452_akc_aac01350_13
>436.sdf
 48 48 0 0 0
SMALL
GASTEIGER

@<TRIPOS>ATOM
      1 C           1.0490    2.2818   -7.4381 C.3     1  UNL1       -0.0653
      2 C           2.5675    2.2842   -7.3685 C.3     1  UNL1       -0.0559
      3 C           3.0564    2.5486   -5.9459 C.3     1  UNL1       -0.0533
      4 C           4.5831    2.5507   -5.8817 C.3     1  UNL1       -0.0531
      5 C           5.0811    2.8080   -4.4625 C.3     1  UNL1       -0.0530
      6 C           6.6096    2.8124   -4.4103 C.3     1  UNL1       -0.0510
      7 C           7.1178    3.0809   -2.9951 C.3     1  UNL1       -0.0294
      8 C           8.6418    3.0619   -2.9361 C.3     1  UNL1        0.0508
      9 O           9.1455    4.1165   -3.7513 O.3     1  UNL1       -0.3487
     10 C          10.5650    4.0937   -3.8358 C.3     1  UNL1        0.1879
     11 O          11.1427    4.3222   -2.5342 O.3     1  UNL1       -0.3402
     12 C          11.7636    5.6119   -2.5791 C.3     1  UNL1        0.1180
     13 C          12.8558    5.7519   -1.5206 C.3     1  UNL1        0.1069
     14 O          13.4213    7.0671   -1.6422 O.3     1  UNL1       -0.3869
     15 C          13.9573    4.6903   -1.6301 C.3     1  UNL1        0.0727
     16 O          14.8656    4.8246   -0.5407 O.3     1  UNL1       -0.3924
     17 C          12.2436    5.7629   -4.0145 C.3     1  UNL1        0.1144
     18 O          12.5596    7.0963   -4.3873 O.3     1  UNL1       -0.3864
     19 C          11.0367    5.2314   -4.7621 C.3     1  UNL1        0.1341
     20 O          11.4094    4.7838   -6.0661 O.3     1  UNL1       -0.3841
     21 H           0.7171    2.0898   -8.4630 H       1  UNL1        0.0230
     22 H           0.6285    1.5048   -6.7927 H       1  UNL1        0.0230
     23 H           0.6418    3.2481   -7.1237 H       1  UNL1        0.0230
     24 H           2.9451    1.3164   -7.7187 H       1  UNL1        0.0263
     25 H           2.9581    3.0503   -8.0467 H       1  UNL1        0.0263
     26 H           2.6749    3.5174   -5.5982 H       1  UNL1        0.0265
     27 H           2.6594    1.7827   -5.2693 H       1  UNL1        0.0265
     28 H           4.9665    1.5813   -6.2337 H       1  UNL1        0.0265
     29 H           4.9780    3.3147   -6.5581 H       1  UNL1        0.0265
     30 H           4.7009    3.7750   -4.1094 H       1  UNL1        0.0265
     31 H           4.6920    2.0389   -3.7861 H       1  UNL1        0.0265
     32 H           6.9884    1.8425   -4.7599 H       1  UNL1        0.0266
     33 H           6.9935    3.5737   -5.0969 H       1  UNL1        0.0266
     34 H           6.7540    4.0572   -2.6594 H       1  UNL1        0.0287
     35 H           6.7236    2.3215   -2.3076 H       1  UNL1        0.0287
     36 H           8.9628    3.2140   -1.9002 H       1  UNL1        0.0561
     37 H           9.0233    2.0937   -3.2888 H       1  UNL1        0.0561
     38 H          10.9025    3.1175   -4.2032 H       1  UNL1        0.0937
     39 H          11.0010    6.3762   -2.3731 H       1  UNL1        0.0650
     40 H          12.4016    5.6789   -0.5253 H       1  UNL1        0.0643
     41 H          13.7971    7.2667   -0.7592 H       1  UNL1        0.2100
     42 H          13.5370    3.6751   -1.6047 H       1  UNL1        0.0584
     43 H          14.5391    4.8113   -2.5510 H       1  UNL1        0.0584
     44 H          15.5766    4.1717   -0.6906 H       1  UNL1        0.2095
     45 H          13.1143    5.1364   -4.2374 H       1  UNL1        0.0648
     46 H          13.1045    7.4619   -3.6570 H       1  UNL1        0.2100
     47 H          10.2633    5.9987   -4.8885 H       1  UNL1        0.0671
     48 H          11.7756    5.5700   -6.5141 H       1  UNL1        0.2101
@<TRIPOS>BOND
     1     1    21    1
     2     1    22    1
     3     1    23    1
     4     2     1    1
     5     2    24    1
     6     2    25    1
     7     3     2    1
     8     3    26    1
     9     3    27    1
    10     4     3    1
    11     4    28    1
    12     4    29    1
    13     5     4    1
    14     5    30    1
    15     5    31    1
    16     6     5    1
    17     6    32    1
    18     6    33    1
    19     7     6    1
    20     7    34    1
    21     7    35    1
    22     8     7    1
    23     8    36    1
    24     8    37    1
    25     9     8    1
    26    10     9    1
    27    10    38    1
    28    11    10    1
    29    12    11    1
    30    14    41    1
    31    15    13    1
    32    15    42    1
    33    15    43    1
    34    16    15    1
    35    16    44    1
    36    17    12    1
    37    17    45    1
    38    18    17    1
    39    18    46    1
    40    19    17    1
    41    19    10    1
    42    19    47    1
    43    20    19    1
    44    20    48    1
    45    12    13    1
    46    12    39    1
    47    13    14    1
    48    13    40    1
