@<TRIPOS>MOLECULE
mol_453_akc_c3md00282a
>437.sdf
 81 85 0 0 0
SMALL
GASTEIGER

@<TRIPOS>ATOM
      1 C           5.0881    0.0615   -2.1446 C.3     1  UNL1       -0.0438
      2 C           4.3716    0.4270   -0.8716 C.2     1  UNL1       -0.0763
      3 C           3.8168   -0.5440   -0.1220 C.2     1  UNL1       -0.0994
      4 C           4.3827    1.9123   -0.5184 C.3     1  UNL1       -0.0163
      5 C           5.6043    2.2325    0.3872 C.3     1  UNL1       -0.0452
      6 C           5.0481    2.9266    1.6409 C.3     1  UNL1       -0.0364
      7 C           3.7705    3.6160    1.1345 C.3     1  UNL1        0.0712
      8 C           2.7786    3.9879    2.2473 C.3     1  UNL1       -0.0364
      9 C           1.3674    4.2387    1.6905 C.3     1  UNL1       -0.0458
     10 C           0.7861    3.0808    0.8016 C.3     1  UNL1       -0.0232
     11 C           0.6430    1.7783    1.6877 C.3     1  UNL1       -0.0588
     12 C           1.8290    2.8292   -0.3555 C.3     1  UNL1       -0.0307
     13 C           1.3343    1.8232   -1.3959 C.3     1  UNL1       -0.0491
     14 C          -0.0764    2.1280   -1.9234 C.3     1  UNL1       -0.0489
     15 C          -1.0923    2.2892   -0.7666 C.3     1  UNL1       -0.0294
     16 C          -2.6480    2.2237   -1.1130 C.3     1  UNL1       -0.0235
     17 C          -3.1596    3.4791   -1.8539 C.3     1  UNL1       -0.0590
     18 C          -2.9320    1.0389   -2.0990 C.3     1  UNL1       -0.0388
     19 C          -3.0710   -0.3251   -1.4423 C.3     1  UNL1        0.0245
     20 C          -4.4937   -0.5520   -0.9815 C.2     1  UNL1        0.2134
     21 O          -4.9986   -1.6695   -0.9550 O.2     1  UNL1       -0.2758
     22 N          -5.2121    0.5747   -0.6473 N.am    1  UNL1       -0.3100
     23 C          -4.7983    1.4789    0.4358 C.3     1  UNL1        0.0323
     24 C          -5.8356    2.6122    0.5100 C.3     1  UNL1       -0.0437
     25 C          -4.9023    0.6681    1.7611 C.3     1  UNL1       -0.0437
     26 C          -3.3221    2.0245    0.3135 C.3     1  UNL1       -0.0145
     27 C          -3.0973    3.2717    1.2010 C.3     1  UNL1       -0.0473
     28 C          -1.6439    3.6704    1.4020 C.3     1  UNL1       -0.0465
     29 C          -0.6584    3.4639    0.2072 C.3     1  UNL1       -0.0231
     30 C          -0.6127    4.8266   -0.5477 C.3     1  UNL1       -0.0588
     31 C           3.1878    2.4586    0.2953 C.3     1  UNL1       -0.0154
     32 C           4.1616    4.8675    0.3154 C.2     1  UNL1        0.3112
     33 O           4.7988    5.8143    1.0444 O.3     1  UNL1       -0.4802
     34 O           3.9582    5.0240   -0.8734 O.2     1  UNL1       -0.2504
     35 H           6.1696    0.1558   -2.0054 H       1  UNL1        0.0274
     36 H           4.8756   -0.9687   -2.4519 H       1  UNL1        0.0274
     37 H           4.7790    0.7146   -2.9659 H       1  UNL1        0.0274
     38 H           3.3291   -0.3555    0.8266 H       1  UNL1        0.0534
     39 H           3.8591   -1.5861   -0.4258 H       1  UNL1        0.0534
     40 H           4.4628    2.4908   -1.4473 H       1  UNL1        0.0348
     41 H           6.1885    1.3498    0.6711 H       1  UNL1        0.0271
     42 H           6.2820    2.9133   -0.1415 H       1  UNL1        0.0271
     43 H           4.7989    2.1668    2.3906 H       1  UNL1        0.0276
     44 H           5.7820    3.5991    2.0912 H       1  UNL1        0.0276
     45 H           2.7372    3.1954    3.0018 H       1  UNL1        0.0276
     46 H           3.0996    4.8867    2.7859 H       1  UNL1        0.0276
     47 H           0.6953    4.4575    2.5255 H       1  UNL1        0.0271
     48 H           1.4386    5.1598    1.1015 H       1  UNL1        0.0271
     49 H          -0.3892    1.4468    1.8265 H       1  UNL1        0.0235
     50 H           1.1326    0.9052    1.2497 H       1  UNL1        0.0235
     51 H           1.0427    1.9166    2.6954 H       1  UNL1        0.0235
     52 H           1.9488    3.7692   -0.9047 H       1  UNL1        0.0309
     53 H           2.0240    1.8013   -2.2491 H       1  UNL1        0.0268
     54 H           1.3332    0.8111   -0.9767 H       1  UNL1        0.0268
     55 H          -0.0688    3.0014   -2.5823 H       1  UNL1        0.0268
     56 H          -0.3214    1.2746   -2.5592 H       1  UNL1        0.0268
     57 H          -0.9366    1.3539   -0.2138 H       1  UNL1        0.0312
     58 H          -4.1005    3.2877   -2.3822 H       1  UNL1        0.0235
     59 H          -2.4365    3.8169   -2.6037 H       1  UNL1        0.0235
     60 H          -3.3850    4.3185   -1.1974 H       1  UNL1        0.0235
     61 H          -2.1784    0.9874   -2.8847 H       1  UNL1        0.0275
     62 H          -3.8432    1.2362   -2.6794 H       1  UNL1        0.0275
     63 H          -2.8575   -1.0920   -2.1973 H       1  UNL1        0.0358
     64 H          -2.3756   -0.4835   -0.6143 H       1  UNL1        0.0358
     65 H          -5.5111    1.0795   -1.4713 H       1  UNL1        0.1492
     66 H          -5.7382    3.2910   -0.3442 H       1  UNL1        0.0250
     67 H          -5.7385    3.2034    1.4274 H       1  UNL1        0.0250
     68 H          -6.8579    2.2152    0.4970 H       1  UNL1        0.0250
     69 H          -5.8841    0.1909    1.8549 H       1  UNL1        0.0250
     70 H          -4.1554   -0.1337    1.7983 H       1  UNL1        0.0250
     71 H          -4.7517    1.2972    2.6438 H       1  UNL1        0.0250
     72 H          -2.7224    1.2388    0.7964 H       1  UNL1        0.0327
     73 H          -3.6482    4.1369    0.8218 H       1  UNL1        0.0269
     74 H          -3.5085    3.0904    2.2028 H       1  UNL1        0.0269
     75 H          -1.6224    4.7210    1.7249 H       1  UNL1        0.0271
     76 H          -1.3073    3.1413    2.2983 H       1  UNL1        0.0271
     77 H          -0.0257    4.7971   -1.4672 H       1  UNL1        0.0235
     78 H          -1.6078    5.1877   -0.8067 H       1  UNL1        0.0235
     79 H          -0.2032    5.6320    0.0675 H       1  UNL1        0.0235
     80 H           2.9723    1.6722    1.0227 H       1  UNL1        0.0320
     81 H           4.9349    5.5932    1.9840 H       1  UNL1        0.2951
@<TRIPOS>BOND
     1     1    35    1
     2     1    36    1
     3     1    37    1
     4     2     1    1
     5     3     2    2
     6     3    38    1
     7     3    39    1
     8     4     2    1
     9     4    40    1
    10     5     4    1
    11     5    41    1
    12     5    42    1
    13     6     5    1
    14     6    43    1
    15     6    44    1
    16     7     6    1
    17     7    32    1
    18     8     7    1
    19     8    45    1
    20     8    46    1
    21     9     8    1
    22     9    47    1
    23     9    48    1
    24    10     9    1
    25    10    11    1
    26    11    49    1
    27    11    50    1
    28    11    51    1
    29    12    10    1
    30    12    52    1
    31    13    12    1
    32    13    53    1
    33    13    54    1
    34    14    13    1
    35    14    55    1
    36    14    56    1
    37    15    14    1
    38    15    57    1
    39    16    15    1
    40    16    17    1
    41    17    58    1
    42    17    59    1
    43    17    60    1
    44    18    16    1
    45    18    61    1
    46    18    62    1
    47    19    18    1
    48    19    63    1
    49    19    64    1
    50    20    19    1
    51    21    20    2
    52    22    20   am
    53    22    65    1
    54    23    22    1
    55    24    23    1
    56    24    66    1
    57    24    67    1
    58    24    68    1
    59    25    23    1
    60    25    69    1
    61    25    70    1
    62    25    71    1
    63    26    23    1
    64    26    16    1
    65    26    72    1
    66    27    26    1
    67    27    73    1
    68    27    74    1
    69    28    27    1
    70    28    75    1
    71    28    76    1
    72    29    28    1
    73    29    10    1
    74    29    15    1
    75    29    30    1
    76    30    77    1
    77    30    78    1
    78    30    79    1
    79    31    12    1
    80    31     4    1
    81    31     7    1
    82    31    80    1
    83    33    32    1
    84    34    32    2
    85    33    81    1
