@<TRIPOS>MOLECULE
mol_454_akc_cbdd12235
>438.sdf
 26 28 0 0 0
SMALL
GASTEIGER

@<TRIPOS>ATOM
      1 N           0.8256    0.0804    0.1186 N.pl3   1  UNL1       -0.3425
      2 C           2.1851    0.1000    0.0356 C.ar    1  UNL1        0.1306
      3 C           3.0320    1.1894   -0.0174 C.ar    1  UNL1        0.0796
      4 C           4.3244    0.6532   -0.0217 C.ar    1  UNL1        0.0624
      5 N           4.3276   -0.6751    0.0332 N.ar    1  UNL1       -0.1723
      6 N           3.0134   -1.0365    0.0419 N.ar    1  UNL1       -0.2168
      7 C           2.6385   -2.4099   -0.0393 C.ar    1  UNL1        0.0857
      8 C           3.4053   -3.4352    0.5414 C.ar    1  UNL1        0.0664
      9 CL          4.7831   -3.1834    1.5603 Cl      1  UNL1       -0.0813
     10 C           2.9991   -4.7713    0.3996 C.ar    1  UNL1       -0.0413
     11 C           1.8455   -5.0966   -0.3126 C.ar    1  UNL1       -0.0603
     12 C           1.0858   -4.0879   -0.8929 C.ar    1  UNL1       -0.0597
     13 C           1.4797   -2.7542   -0.7616 C.ar    1  UNL1       -0.0348
     14 C           2.6178    2.6083   -0.0242 C.ar    1  UNL1        0.1842
     15 N           1.3825    3.0573    0.0783 N.ar    1  UNL1       -0.1082
     16 N           1.4684    4.4287    0.0439 N.ar    1  UNL1       -0.0229
     17 N           2.7283    4.8229   -0.0817 N.ar    1  UNL1       -0.0464
     18 N           3.4428    3.6903   -0.1256 N.ar    1  UNL1       -0.2387
     19 H           0.3382   -0.6971    0.5594 H       1  UNL1        0.1437
     20 H           0.3461    0.9720    0.2760 H       1  UNL1        0.1437
     21 H           5.2786    1.1612   -0.0435 H       1  UNL1        0.0856
     22 H           3.5787   -5.5698    0.8590 H       1  UNL1        0.0633
     23 H           1.5430   -6.1360   -0.4136 H       1  UNL1        0.0618
     24 H           0.1930   -4.3370   -1.4623 H       1  UNL1        0.0618
     25 H           0.8919   -2.0001   -1.2818 H       1  UNL1        0.0639
     26 H           4.4470    3.7375   -0.2301 H       1  UNL1        0.1923
@<TRIPOS>BOND
     1     1    19    1
     2     1    20    1
     3     2     1    1
     4     3     2   ar
     5     4     3   ar
     6     4    21    1
     7     5     4   ar
     8     6     5   ar
     9     6     2   ar
    10     7     6    1
    11     8     7   ar
    12     9     8    1
    13    10     8   ar
    14    10    22    1
    15    11    10   ar
    16    11    23    1
    17    12    11   ar
    18    12    24    1
    19    13    12   ar
    20    13     7   ar
    21    13    25    1
    22    14     3    1
    23    15    14   ar
    24    16    15   ar
    25    17    16   ar
    26    18    17   ar
    27    18    14   ar
    28    18    26    1
