@<TRIPOS>MOLECULE
mol_455_akc_cbdd12235
>439.sdf
 26 28 0 0 0
SMALL
GASTEIGER

@<TRIPOS>ATOM
      1 N           0.8042    0.0615   -0.1749 N.pl3   1  UNL1       -0.3425
      2 C           2.1660    0.0772   -0.1023 C.ar    1  UNL1        0.1306
      3 C           3.0203    1.1591   -0.0608 C.ar    1  UNL1        0.0796
      4 C           4.2976    0.6168    0.1376 C.ar    1  UNL1        0.0624
      5 N           4.2772   -0.7103    0.2568 N.ar    1  UNL1       -0.1724
      6 N           2.9806   -1.0596    0.0098 N.ar    1  UNL1       -0.2182
      7 C           2.6278   -2.4355   -0.0957 C.ar    1  UNL1        0.0685
      8 C           3.4458   -3.3995    0.5138 C.ar    1  UNL1       -0.0222
      9 C           3.0956   -4.7478    0.4443 C.ar    1  UNL1        0.0199
     10 BR          4.1616   -6.0404    1.3207 Br      1  UNL1       -0.0502
     11 C           1.9599   -5.1521   -0.2549 C.ar    1  UNL1       -0.0476
     12 C           1.1669   -4.2001   -0.8944 C.ar    1  UNL1       -0.0587
     13 C           1.4956   -2.8442   -0.8144 C.ar    1  UNL1       -0.0361
     14 C           2.6184    2.5793   -0.1467 C.ar    1  UNL1        0.1842
     15 N           1.3824    3.0301   -0.2324 N.ar    1  UNL1       -0.1082
     16 N           1.4747    4.4007   -0.2572 N.ar    1  UNL1       -0.0229
     17 N           2.7388    4.7932   -0.1930 N.ar    1  UNL1       -0.0464
     18 N           3.4504    3.6603   -0.1262 N.ar    1  UNL1       -0.2387
     19 H           0.2819   -0.6819    0.2856 H       1  UNL1        0.1437
     20 H           0.3231    0.9616   -0.0884 H       1  UNL1        0.1437
     21 H           5.2485    1.1220    0.2438 H       1  UNL1        0.0856
     22 H           4.3346   -3.1012    1.0675 H       1  UNL1        0.0650
     23 H           1.6896   -6.2033   -0.3146 H       1  UNL1        0.0629
     24 H           0.2957   -4.5139   -1.4650 H       1  UNL1        0.0619
     25 H           0.8842   -2.1353   -1.3657 H       1  UNL1        0.0639
     26 H           4.4592    3.7074   -0.0730 H       1  UNL1        0.1923
@<TRIPOS>BOND
     1     1    19    1
     2     1    20    1
     3     2     1    1
     4     3     2   ar
     5     4     3   ar
     6     4    21    1
     7     5     4   ar
     8     6     5   ar
     9     6     2   ar
    10     7     6    1
    11     8     7   ar
    12     8    22    1
    13     9     8   ar
    14    10     9    1
    15    11     9   ar
    16    11    23    1
    17    12    11   ar
    18    12    24    1
    19    13    12   ar
    20    13     7   ar
    21    13    25    1
    22    14     3    1
    23    15    14   ar
    24    16    15   ar
    25    17    16   ar
    26    18    17   ar
    27    18    14   ar
    28    18    26    1
