@<TRIPOS>MOLECULE
mol_456_akc_cbdd12239
>440.sdf
 73 78 0 0 0
SMALL
GASTEIGER

@<TRIPOS>ATOM
      1 O           1.8205   -0.1100   -1.0018 O.2     1  UNL1       -0.2866
      2 C           2.1392    0.1373    0.1521 C.2     1  UNL1        0.1948
      3 C           2.8582    1.3539    0.5791 C.ar    1  UNL1        0.0447
      4 C           3.9712    1.9042   -0.0665 C.ar    1  UNL1        0.0313
      5 S           4.5977    3.2290    0.8469 S.2     1  UNL1       -0.0875
      6 C           3.4135    3.1138    2.0666 C.ar    1  UNL1        0.0206
      7 C           2.4707    2.1369    1.7619 C.ar    1  UNL1        0.0006
      8 C           1.3517    2.0296    2.6394 C.ar    1  UNL1       -0.0528
      9 C           1.2692    2.7817    3.8133 C.ar    1  UNL1       -0.0611
     10 C           2.2648    3.6932    4.1184 C.ar    1  UNL1       -0.0607
     11 C           3.3315    3.8892    3.2414 C.ar    1  UNL1       -0.0474
     12 C           4.6774    1.5628   -1.3321 C.ar    1  UNL1       -0.0104
     13 C           3.9685    1.1523   -2.4674 C.ar    1  UNL1       -0.0501
     14 C           4.6078    0.8571   -3.6752 C.ar    1  UNL1       -0.0194
     15 C           5.9732    1.0680   -3.8183 C.ar    1  UNL1        0.1206
     16 O           6.6675    0.9350   -4.9892 O.3     1  UNL1       -0.4916
     17 C           5.8742    1.0068   -6.1825 C.3     1  UNL1        0.0935
     18 C           6.7529    1.4873   -7.3337 C.3     1  UNL1        0.0066
     19 C           5.9699    1.6439   -8.6120 C.ar    1  UNL1       -0.0442
     20 C           5.2589    2.8261   -8.8701 C.ar    1  UNL1       -0.0585
     21 C           4.5301    2.9701  -10.0524 C.ar    1  UNL1       -0.0615
     22 C           4.4986    1.9337  -10.9829 C.ar    1  UNL1       -0.0617
     23 C           5.1882    0.7494  -10.7288 C.ar    1  UNL1       -0.0615
     24 C           5.9159    0.6026   -9.5466 C.ar    1  UNL1       -0.0585
     25 C           6.7080    1.4686   -2.7062 C.ar    1  UNL1       -0.0194
     26 C           6.0705    1.7007   -1.4770 C.ar    1  UNL1       -0.0501
     27 C           1.6420   -0.8024    1.1969 C.ar    1  UNL1        0.0223
     28 C           2.3180   -1.0033    2.4059 C.ar    1  UNL1       -0.0505
     29 C           1.7213   -1.7483    3.4256 C.ar    1  UNL1       -0.0529
     30 C           0.4614   -2.3357    3.2324 C.ar    1  UNL1       -0.0029
     31 C          -0.1753   -3.1574    4.3160 C.3     1  UNL1       -0.0059
     32 N          -0.5935   -2.3829    5.5593 N.4     1  UNL1        0.2385
     33 C          -1.7049   -1.3969    5.2599 C.3     1  UNL1       -0.0316
     34 C          -2.2663   -0.7843    6.5368 C.3     1  UNL1       -0.0123
     35 C          -2.6846   -1.8563    7.5305 C.3     1  UNL1       -0.0434
     36 C          -1.4786   -2.7080    7.8871 C.3     1  UNL1       -0.0123
     37 C          -0.9066   -3.3804    6.6535 C.3     1  UNL1       -0.0316
     38 C          -0.1759   -2.1937    1.9907 C.ar    1  UNL1       -0.0529
     39 C           0.4113   -1.4339    0.9792 C.ar    1  UNL1       -0.0505
     40 H           0.5416    1.3414    2.4152 H       1  UNL1        0.0624
     41 H           0.4219    2.6583    4.4816 H       1  UNL1        0.0618
     42 H           2.2052    4.2810    5.0328 H       1  UNL1        0.0618
     43 H           4.0914    4.6358    3.4635 H       1  UNL1        0.0629
     44 H           2.8863    1.0854   -2.4639 H       1  UNL1        0.0625
     45 H           3.9956    0.4946   -4.4975 H       1  UNL1        0.0654
     46 H           5.4679    0.0105   -6.3996 H       1  UNL1        0.0700
     47 H           5.0452    1.7162   -6.0678 H       1  UNL1        0.0700
     48 H           7.2203    2.4447   -7.0674 H       1  UNL1        0.0346
     49 H           7.5955    0.7926   -7.4814 H       1  UNL1        0.0346
     50 H           5.2740    3.6454   -8.1549 H       1  UNL1        0.0620
     51 H           3.9907    3.8934  -10.2497 H       1  UNL1        0.0618
     52 H           3.9393    2.0499  -11.9080 H       1  UNL1        0.0618
     53 H           5.1627   -0.0588  -11.4548 H       1  UNL1        0.0618
     54 H           6.4483   -0.3283   -9.3643 H       1  UNL1        0.0620
     55 H           7.7801    1.6351   -2.8004 H       1  UNL1        0.0654
     56 H           6.6936    2.0291   -0.6461 H       1  UNL1        0.0625
     57 H           3.2945   -0.5523    2.5786 H       1  UNL1        0.0625
     58 H           2.2618   -1.8650    4.3631 H       1  UNL1        0.0622
     59 H          -1.0723   -3.6700    3.9494 H       1  UNL1        0.0867
     60 H           0.5407   -3.9237    4.6355 H       1  UNL1        0.0867
     61 H           0.2191   -1.8338    5.8655 H       1  UNL1        0.2037
     62 H          -2.4848   -1.9303    4.7072 H       1  UNL1        0.0814
     63 H          -1.2802   -0.6097    4.6275 H       1  UNL1        0.0814
     64 H          -3.1303   -0.1563    6.2909 H       1  UNL1        0.0317
     65 H          -1.5190   -0.1270    6.9990 H       1  UNL1        0.0317
     66 H          -3.1016   -1.3975    8.4330 H       1  UNL1        0.0269
     67 H          -3.4716   -2.4848    7.0939 H       1  UNL1        0.0269
     68 H          -0.7129   -2.0874    8.3682 H       1  UNL1        0.0317
     69 H          -1.7697   -3.4754    8.6133 H       1  UNL1        0.0317
     70 H           0.0337   -3.8860    6.9000 H       1  UNL1        0.0814
     71 H          -1.6133   -4.1089    6.2419 H       1  UNL1        0.0814
     72 H          -1.1351   -2.6696    1.7854 H       1  UNL1        0.0622
     73 H          -0.1027   -1.3150    0.0249 H       1  UNL1        0.0625
@<TRIPOS>UNITY_ATOM_ATTR
32 1
charge 1
@<TRIPOS>BOND
     1     2     1    2
     2     3     2    1
     3     4     3   ar
     4     5     4   ar
     5     6     5   ar
     6     7     6   ar
     7     7     3   ar
     8     8     7   ar
     9     8    40    1
    10     9     8   ar
    11     9    41    1
    12    10     9   ar
    13    10    42    1
    14    11    10   ar
    15    11     6   ar
    16    11    43    1
    17    12     4    1
    18    13    12   ar
    19    13    44    1
    20    14    13   ar
    21    14    45    1
    22    15    14   ar
    23    16    15    1
    24    17    16    1
    25    17    46    1
    26    17    47    1
    27    18    17    1
    28    18    48    1
    29    18    49    1
    30    19    18    1
    31    20    19   ar
    32    20    50    1
    33    21    20   ar
    34    21    51    1
    35    22    21   ar
    36    22    52    1
    37    23    22   ar
    38    23    53    1
    39    24    23   ar
    40    24    19   ar
    41    24    54    1
    42    25    15   ar
    43    25    55    1
    44    26    25   ar
    45    26    12   ar
    46    26    56    1
    47    27     2    1
    48    28    27   ar
    49    28    57    1
    50    29    28   ar
    51    29    58    1
    52    30    29   ar
    53    31    30    1
    54    31    59    1
    55    31    60    1
    56    32    31    1
    57    32    61    1
    58    33    32    1
    59    33    62    1
    60    33    63    1
    61    34    33    1
    62    34    64    1
    63    34    65    1
    64    35    34    1
    65    35    66    1
    66    35    67    1
    67    36    35    1
    68    36    68    1
    69    36    69    1
    70    37    36    1
    71    37    32    1
    72    37    70    1
    73    37    71    1
    74    38    30   ar
    75    38    72    1
    76    39    38   ar
    77    39    27   ar
    78    39    73    1
