@<TRIPOS>MOLECULE
mol_457_akc_s11010_013_1954_6
>441.sdf
 39 41 0 0 0
SMALL
GASTEIGER

@<TRIPOS>ATOM
      1 CL         -2.2022    0.7403    0.6472 Cl      1  UNL1       -0.0835
      2 C          -0.5028    0.5140    0.5064 C.ar    1  UNL1        0.0410
      3 C           0.0860    0.4549   -0.7536 C.ar    1  UNL1       -0.0431
      4 C           1.4658    0.2708   -0.8650 C.ar    1  UNL1       -0.0550
      5 C           2.2670    0.1347    0.2812 C.ar    1  UNL1       -0.0218
      6 C           3.7602   -0.0436    0.1601 C.3     1  UNL1        0.0736
      7 O           4.3339    1.2455   -0.0009 O.3     1  UNL1       -0.3656
      8 C           5.7695    1.3009   -0.1120 C.3     1  UNL1        0.1032
      9 C           6.2519    0.6329   -1.4246 C.3     1  UNL1        0.0546
     10 N           5.7572    1.2682   -2.6289 N.ar    1  UNL1       -0.3340
     11 C           4.6316    0.9239   -3.3248 C.ar    1  UNL1        0.0241
     12 C           4.5744    1.8183   -4.3657 C.ar    1  UNL1        0.0454
     13 N           5.6642    2.6480   -4.3560 N.ar    1  UNL1       -0.2441
     14 C           6.3712    2.2826   -3.3098 C.ar    1  UNL1        0.0960
     15 C           6.2142    2.7643    0.0354 C.ar    1  UNL1        0.0012
     16 C           5.2450    3.7877    0.1203 C.ar    1  UNL1       -0.0533
     17 C           5.6045    5.1370    0.1851 C.ar    1  UNL1       -0.0430
     18 C           6.9450    5.4946    0.1528 C.ar    1  UNL1        0.0424
     19 CL          7.3903    7.1554    0.1889 Cl      1  UNL1       -0.0835
     20 C           7.9282    4.5133    0.1033 C.ar    1  UNL1       -0.0247
     21 C           7.5669    3.1593    0.0754 C.ar    1  UNL1        0.0480
     22 CL          8.8655    2.0191    0.1236 Cl      1  UNL1       -0.0831
     23 C           1.6593    0.2125    1.5419 C.ar    1  UNL1       -0.0550
     24 C           0.2785    0.3963    1.6542 C.ar    1  UNL1       -0.0431
     25 H          -0.5201    0.5582   -1.6508 H       1  UNL1        0.0632
     26 H           1.9120    0.2445   -1.8560 H       1  UNL1        0.0621
     27 H           4.1685   -0.5367    1.0491 H       1  UNL1        0.0610
     28 H           3.9653   -0.6812   -0.7049 H       1  UNL1        0.0610
     29 H           6.1815    0.7545    0.7467 H       1  UNL1        0.0665
     30 H           7.3406    0.6046   -1.5099 H       1  UNL1        0.0521
     31 H           5.9306   -0.4137   -1.4672 H       1  UNL1        0.0521
     32 H           3.9774    0.1205   -3.0262 H       1  UNL1        0.0825
     33 H           3.8116    1.9024   -5.1298 H       1  UNL1        0.0845
     34 H           7.3109    2.7185   -3.0058 H       1  UNL1        0.1029
     35 H           4.1818    3.5479    0.1275 H       1  UNL1        0.0622
     36 H           4.8293    5.8969    0.2466 H       1  UNL1        0.0632
     37 H           8.9762    4.8032    0.0907 H       1  UNL1        0.0647
     38 H           2.2596    0.1381    2.4460 H       1  UNL1        0.0621
     39 H          -0.1794    0.4530    2.6375 H       1  UNL1        0.0632
@<TRIPOS>BOND
     1     2     1    1
     2     3     2   ar
     3     3    25    1
     4     4     3   ar
     5     4    26    1
     6     5     4   ar
     7     6     5    1
     8     6    27    1
     9     6    28    1
    10     7     6    1
    11     8     7    1
    12     8    29    1
    13     9     8    1
    14     9    30    1
    15     9    31    1
    16    10     9    1
    17    11    10   ar
    18    11    32    1
    19    12    11   ar
    20    12    33    1
    21    13    12   ar
    22    14    13   ar
    23    14    10   ar
    24    14    34    1
    25    15     8    1
    26    16    15   ar
    27    16    35    1
    28    17    16   ar
    29    17    36    1
    30    18    17   ar
    31    19    18    1
    32    20    18   ar
    33    20    37    1
    34    21    20   ar
    35    21    15   ar
    36    22    21    1
    37    23     5   ar
    38    23    38    1
    39    24    23   ar
    40    24     2   ar
    41    24    39    1
