@<TRIPOS>MOLECULE
mol_458_akc_pmc4289877
>442.sdf
 43 47 0 0 0
SMALL
GASTEIGER

@<TRIPOS>ATOM
      1 C           1.1150   -0.5950    0.2589 C.3     1  UNL1        0.0790
      2 O           2.4366   -0.0777    0.1263 O.3     1  UNL1       -0.4914
      3 C           3.0865    0.2961    1.2698 C.ar    1  UNL1        0.1623
      4 C           2.7639   -0.2566    2.5135 C.ar    1  UNL1       -0.0157
      5 C           3.4480    0.1225    3.6668 C.ar    1  UNL1       -0.0499
      6 C           4.4720    1.0697    3.6045 C.ar    1  UNL1       -0.0022
      7 C           5.1463    1.4602    4.7603 C.ar    1  UNL1        0.0183
      8 C           6.1512    2.4358    4.7170 C.ar    1  UNL1        0.2159
      9 C           6.9002    2.8976    5.9062 C.ar    1  UNL1        0.0533
     10 C           6.4641    2.6149    7.2182 C.ar    1  UNL1       -0.0025
     11 C           7.2407    3.0093    8.2887 C.ar    1  UNL1        0.1670
     12 C           8.4145    3.6928    8.1202 C.ar    1  UNL1        0.1665
     13 O           9.0255    3.9712    9.2999 O.3     1  UNL1       -0.4526
     14 C           8.1307    3.3258   10.2334 C.3     1  UNL1        0.2332
     15 O           6.9619    2.7646    9.5957 O.3     1  UNL1       -0.4526
     16 C           8.8786    4.0196    6.8669 C.ar    1  UNL1       -0.0120
     17 C           8.1161    3.6184    5.7542 C.ar    1  UNL1       -0.0243
     18 C           8.6268    3.8848    4.3661 C.3     1  UNL1        0.0330
     19 C           7.4640    4.0931    3.4154 C.3     1  UNL1        0.1550
     20 N           6.4813    2.9814    3.5122 N.ar    1  UNL1       -0.1961
     21 C           5.8495    2.5926    2.3765 C.ar    1  UNL1        0.1831
     22 C           4.8264    1.6346    2.3700 C.ar    1  UNL1        0.0909
     23 C           4.1385    1.2333    1.1879 C.ar    1  UNL1        0.1748
     24 O           4.6058    1.8606    0.0548 O.3     1  UNL1       -0.4907
     25 C           4.0453    1.5312   -1.2118 C.3     1  UNL1        0.0790
     26 H           1.1281   -1.6065    0.6764 H       1  UNL1        0.0660
     27 H           0.4854    0.0731    0.8569 H       1  UNL1        0.0660
     28 H           0.6800   -0.6579   -0.7430 H       1  UNL1        0.0660
     29 H           1.9842   -1.0061    2.6189 H       1  UNL1        0.0655
     30 H           3.1592   -0.3333    4.6133 H       1  UNL1        0.0625
     31 H           4.8760    0.9891    5.7033 H       1  UNL1        0.0690
     32 H           5.5435    2.0835    7.4363 H       1  UNL1        0.0663
     33 H           8.6740    2.5188   10.7396 H       1  UNL1        0.1166
     34 H           7.8060    4.0584   10.9804 H       1  UNL1        0.1166
     35 H           9.8170    4.5572    6.7623 H       1  UNL1        0.0658
     36 H           9.2346    3.0286    4.0482 H       1  UNL1        0.0375
     37 H           9.2643    4.7758    4.3526 H       1  UNL1        0.0375
     38 H           7.8345    4.1511    2.3869 H       1  UNL1        0.1034
     39 H           6.9030    5.0096    3.6432 H       1  UNL1        0.1034
     40 H           6.1627    3.0801    1.4559 H       1  UNL1        0.1384
     41 H           4.1932    0.4737   -1.4521 H       1  UNL1        0.0660
     42 H           2.9940    1.8298   -1.2670 H       1  UNL1        0.0660
     43 H           4.5835    2.1103   -1.9688 H       1  UNL1        0.0660
@<TRIPOS>UNITY_ATOM_ATTR
20 1
charge 1
@<TRIPOS>BOND
     1     1    26    1
     2     1    27    1
     3     1    28    1
     4     2     1    1
     5     3     2    1
     6     4     3   ar
     7     4    29    1
     8     5     4   ar
     9     5    30    1
    10     6     5   ar
    11     7     6   ar
    12     7    31    1
    13     8     7   ar
    14     9     8    1
    15    10     9   ar
    16    10    32    1
    17    11    10   ar
    18    12    11   ar
    19    13    12    1
    20    14    13    1
    21    14    33    1
    22    14    34    1
    23    15    14    1
    24    15    11    1
    25    16    12   ar
    26    16    35    1
    27    17    16   ar
    28    17     9   ar
    29    18    17    1
    30    18    36    1
    31    18    37    1
    32    19    18    1
    33    19    38    1
    34    19    39    1
    35    20    19    1
    36    20     8   ar
    37    21    20   ar
    38    21    40    1
    39    22    21   ar
    40    22     6   ar
    41    23    22   ar
    42    23     3   ar
    43    24    23    1
    44    25    24    1
    45    25    41    1
    46    25    42    1
    47    25    43    1
