@<TRIPOS>MOLECULE
mol_459_akc_c3md00299c
>443.sdf
 49 51 0 0 0
SMALL
GASTEIGER

@<TRIPOS>ATOM
      1 C           0.6300    0.7015    0.3289 C.3     1  UNL1        0.0788
      2 O           1.7577    1.3993    0.8494 O.3     1  UNL1       -0.4951
      3 C           2.4579    0.7616    1.8361 C.ar    1  UNL1        0.1202
      4 C           2.1269   -0.4706    2.3911 C.ar    1  UNL1       -0.0182
      5 C           2.9221   -1.0282    3.3957 C.ar    1  UNL1       -0.0370
      6 C           4.0637   -0.3742    3.8601 C.ar    1  UNL1        0.0339
      7 N           4.8904   -0.8846    4.8838 N.am    1  UNL1       -0.2815
      8 C           4.6873   -2.0470    5.5983 C.2     1  UNL1        0.2493
      9 O           3.8477   -2.9032    5.3374 O.2     1  UNL1       -0.2698
     10 C           5.5989   -2.2555    6.7427 C.ar    1  UNL1        0.0511
     11 C           5.9806   -3.5451    7.1114 C.ar    1  UNL1        0.0130
     12 C           5.5859   -4.8687    6.4983 C.3     1  UNL1        0.0772
     13 C           6.0120   -4.9728    5.0463 C.2     1  UNL1        0.3181
     14 O           6.9637   -4.3885    4.5485 O.2     1  UNL1       -0.2502
     15 O           5.2128   -5.8622    4.4115 O.3     1  UNL1       -0.3735
     16 C           5.5707   -6.0380    3.0616 C.3     1  UNL1        0.5772
     17 F           6.7948   -6.5942    2.9588 F       1  UNL1       -0.1328
     18 F           4.6837   -6.8948    2.5042 F       1  UNL1       -0.1328
     19 F           5.5166   -4.8827    2.3722 F       1  UNL1       -0.1328
     20 S           6.9894   -3.5526    8.4824 S.2     1  UNL1       -0.0966
     21 C           6.8905   -1.8597    8.6683 C.ar    1  UNL1       -0.0060
     22 C           6.1279   -1.2588    7.6729 C.ar    1  UNL1       -0.0248
     23 C           5.8397    0.2258    7.6137 C.3     1  UNL1       -0.0262
     24 C           5.6085    0.8781    8.9727 C.3     1  UNL1       -0.0490
     25 C           6.8850    1.2134    9.7427 C.3     1  UNL1       -0.0524
     26 C           8.0148    0.1877    9.6570 C.3     1  UNL1       -0.0486
     27 C           7.5605   -1.2506    9.8727 C.3     1  UNL1       -0.0211
     28 C           4.3920    0.8671    3.3054 C.ar    1  UNL1       -0.0370
     29 C           3.5901    1.4302    2.3039 C.ar    1  UNL1       -0.0182
     30 H           0.9242   -0.2627   -0.1023 H       1  UNL1        0.0660
     31 H          -0.1389    0.5703    1.0979 H       1  UNL1        0.0660
     32 H           0.1991    1.3057   -0.4738 H       1  UNL1        0.0660
     33 H           1.2558   -1.0336    2.0734 H       1  UNL1        0.0655
     34 H           2.6049   -1.9906    3.7865 H       1  UNL1        0.0637
     35 H           5.7194   -0.3521    5.1081 H       1  UNL1        0.1551
     36 H           6.0366   -5.7147    7.0292 H       1  UNL1        0.0432
     37 H           4.4972   -4.9795    6.5720 H       1  UNL1        0.0432
     38 H           4.9218    0.3927    7.0404 H       1  UNL1        0.0314
     39 H           6.6504    0.7312    7.0723 H       1  UNL1        0.0314
     40 H           4.9589    0.2420    9.5873 H       1  UNL1        0.0268
     41 H           5.0583    1.8162    8.8233 H       1  UNL1        0.0268
     42 H           7.2743    2.1764    9.3887 H       1  UNL1        0.0265
     43 H           6.6156    1.3678   10.7954 H       1  UNL1        0.0265
     44 H           8.5351    0.2834    8.6957 H       1  UNL1        0.0269
     45 H           8.7522    0.4430   10.4287 H       1  UNL1        0.0269
     46 H           6.8817   -1.3100   10.7329 H       1  UNL1        0.0318
     47 H           8.4484   -1.8435   10.1310 H       1  UNL1        0.0318
     48 H           5.2625    1.4213    3.6457 H       1  UNL1        0.0637
     49 H           3.8501    2.4003    1.8855 H       1  UNL1        0.0655
@<TRIPOS>BOND
     1     1    30    1
     2     1    31    1
     3     1    32    1
     4     2     1    1
     5     3     2    1
     6     4     3   ar
     7     4    33    1
     8     5     4   ar
     9     5    34    1
    10     6     5   ar
    11     7     6    1
    12     7    35    1
    13     8     7   am
    14     9     8    2
    15    10     8    1
    16    11    10   ar
    17    12    11    1
    18    12    36    1
    19    12    37    1
    20    13    12    1
    21    14    13    2
    22    15    13    1
    23    16    15    1
    24    17    16    1
    25    18    16    1
    26    19    16    1
    27    20    11   ar
    28    21    20   ar
    29    22    21   ar
    30    22    10   ar
    31    23    22    1
    32    23    38    1
    33    23    39    1
    34    24    23    1
    35    24    40    1
    36    24    41    1
    37    25    24    1
    38    25    42    1
    39    25    43    1
    40    26    25    1
    41    26    44    1
    42    26    45    1
    43    27    26    1
    44    27    21    1
    45    27    46    1
    46    27    47    1
    47    28     6   ar
    48    28    48    1
    49    29    28   ar
    50    29     3   ar
    51    29    49    1
