@<TRIPOS>MOLECULE
mol_460_akc_aac01459_13
>444.sdf
 29 30 0 0 0
SMALL
GASTEIGER

@<TRIPOS>ATOM
      1 C           2.6231   -0.0859   -0.0465 C.3     1  UNL1       -0.0371
      2 C           1.1102   -0.0151    0.0585 C.ar    1  UNL1       -0.0129
      3 C           0.4688    1.2627    0.1494 C.ar    1  UNL1        0.0642
      4 N           1.2581    2.4421    0.2356 N.pl3   1  UNL1       -0.3249
      5 C           0.9279    3.5527    1.1228 C.3     1  UNL1        0.0280
      6 C           2.0958    2.6540    1.4187 C.3     1  UNL1        0.0280
      7 C          -0.9374    1.2860    0.0693 C.ar    1  UNL1        0.1495
      8 C          -1.7087    0.1227    0.0347 C.ar    1  UNL1        0.0014
      9 C          -1.0581   -1.1138    0.0559 C.ar    1  UNL1        0.1408
     10 C           0.3389   -1.2252    0.0577 C.ar    1  UNL1        0.0714
     11 C           1.0478   -2.5393    0.1636 C.2     1  UNL1        0.2441
     12 N           0.5683   -3.6249   -0.5053 N.am    1  UNL1       -0.3253
     13 O           2.0616   -2.6570    0.8435 O.2     1  UNL1       -0.2703
     14 N          -1.9225   -2.2704    0.0912 N.pl3   1  UNL1        0.0573
     15 O          -2.5716   -2.4546    1.1238 O.2     1  UNL1       -0.1261
     16 O          -1.9967   -2.9440   -0.9486 O.2     1  UNL1       -0.1261
     17 N          -1.6656    2.5356   -0.0222 N.pl3   1  UNL1        0.0583
     18 O          -1.5262    3.2050   -1.0528 O.2     1  UNL1       -0.1261
     19 O          -2.4254    2.8015    0.9189 O.2     1  UNL1       -0.1261
     20 H           3.0609   -0.3567    0.9191 H       1  UNL1        0.0278
     21 H           2.9202   -0.8143   -0.8117 H       1  UNL1        0.0278
     22 H           3.0693    0.8568   -0.3680 H       1  UNL1        0.0278
     23 H           1.1177    4.5212    0.6800 H       1  UNL1        0.0479
     24 H           0.0773    3.4680    1.7827 H       1  UNL1        0.0479
     25 H           1.9946    1.9350    2.2202 H       1  UNL1        0.0479
     26 H           3.0899    3.0081    1.1857 H       1  UNL1        0.0479
     27 H          -2.7962    0.1802    0.0027 H       1  UNL1        0.0664
     28 H           1.0785   -4.4948   -0.3962 H       1  UNL1        0.1453
     29 H          -0.2605   -3.6574   -1.0932 H       1  UNL1        0.1453
@<TRIPOS>BOND
     1     1    20    1
     2     1    21    1
     3     1    22    1
     4     2     1    1
     5     3     2   ar
     6     4     3    1
     7     5     4    1
     8     5    23    1
     9     5    24    1
    10     6     5    1
    11     6     4    1
    12     6    25    1
    13     6    26    1
    14     7     3   ar
    15     8     7   ar
    16     8    27    1
    17     9     8   ar
    18    10     9   ar
    19    10     2   ar
    20    11    10    1
    21    12    11   am
    22    12    28    1
    23    12    29    1
    24    13    11    2
    25    14     9    1
    26    15    14    2
    27    16    14    2
    28    17     7    1
    29    18    17    2
    30    19    17    2
