@<TRIPOS>MOLECULE
mol_461_akc_aac01459_13
>445.sdf
 35 36 0 0 0
SMALL
GASTEIGER

@<TRIPOS>ATOM
      1 C           3.3007   -1.3896    2.6111 C.3     1  UNL1        0.0032
      2 N           3.5392   -0.7064    1.3515 N.am    1  UNL1       -0.3036
      3 C           4.0806    0.6418    1.4471 C.3     1  UNL1        0.0032
      4 C           3.4543   -1.2442    0.0701 C.2     1  UNL1        0.2487
      5 O           3.7638   -0.6025   -0.9340 O.2     1  UNL1       -0.2699
      6 C           2.9877   -2.6244   -0.1981 C.ar    1  UNL1        0.0718
      7 C           1.9613   -2.8129   -1.1343 C.ar    1  UNL1        0.1408
      8 C           1.5268   -4.0845   -1.5131 C.ar    1  UNL1        0.0014
      9 C           2.1484   -5.2088   -0.9547 C.ar    1  UNL1        0.1495
     10 C           3.2249   -5.1018   -0.0537 C.ar    1  UNL1        0.0642
     11 N           3.9708   -6.1367    0.5782 N.pl3   1  UNL1       -0.3249
     12 C           4.6282   -7.1560   -0.2408 C.3     1  UNL1        0.0280
     13 C           3.5719   -7.5172    0.7658 C.3     1  UNL1        0.0280
     14 C           3.6631   -3.7724    0.2922 C.ar    1  UNL1       -0.0129
     15 C           4.9117   -3.6467    1.1513 C.3     1  UNL1       -0.0371
     16 N           1.5960   -6.4732   -1.3848 N.pl3   1  UNL1        0.0583
     17 O           0.5256   -6.8168   -0.8627 O.2     1  UNL1       -0.1261
     18 O           2.1860   -7.0770   -2.2895 O.2     1  UNL1       -0.1261
     19 N           1.3187   -1.6890   -1.7814 N.pl3   1  UNL1        0.0573
     20 O           0.6384   -0.9404   -1.0748 O.2     1  UNL1       -0.1261
     21 O           1.3935   -1.6403   -3.0242 O.2     1  UNL1       -0.1261
     22 H           4.2644   -1.5809    3.0887 H       1  UNL1        0.0428
     23 H           2.7103   -0.7410    3.2675 H       1  UNL1        0.0428
     24 H           2.7616   -2.3307    2.4783 H       1  UNL1        0.0428
     25 H           5.1128    0.6387    1.0832 H       1  UNL1        0.0428
     26 H           3.4859    1.3146    0.8201 H       1  UNL1        0.0428
     27 H           4.0589    0.9999    2.4790 H       1  UNL1        0.0428
     28 H           0.7183   -4.2004   -2.2382 H       1  UNL1        0.0664
     29 H           4.4068   -7.1647   -1.2942 H       1  UNL1        0.0479
     30 H           5.6688   -7.2940    0.0243 H       1  UNL1        0.0479
     31 H           3.8989   -7.9242    1.7155 H       1  UNL1        0.0479
     32 H           2.5917   -7.8245    0.4526 H       1  UNL1        0.0479
     33 H           4.6904   -3.9612    2.1748 H       1  UNL1        0.0278
     34 H           5.7179   -4.2695    0.7470 H       1  UNL1        0.0278
     35 H           5.3175   -2.6340    1.1724 H       1  UNL1        0.0278
@<TRIPOS>BOND
     1     1    22    1
     2     1    23    1
     3     1    24    1
     4     2     1    1
     5     3     2    1
     6     3    25    1
     7     3    26    1
     8     3    27    1
     9     4     2   am
    10     5     4    2
    11     6     4    1
    12     7     6   ar
    13     8     7   ar
    14     8    28    1
    15     9     8   ar
    16    10     9   ar
    17    11    10    1
    18    12    11    1
    19    12    29    1
    20    12    30    1
    21    13    12    1
    22    13    11    1
    23    13    31    1
    24    13    32    1
    25    14    10   ar
    26    14     6   ar
    27    15    14    1
    28    15    33    1
    29    15    34    1
    30    15    35    1
    31    16     9    1
    32    17    16    2
    33    18    16    2
    34    19     7    1
    35    20    19    2
    36    21    19    2
