@<TRIPOS>MOLECULE
mol_462_akc_jbmcl201311018
>446.sdf
 46 50 0 0 0
SMALL
GASTEIGER

@<TRIPOS>ATOM
      1 C           4.7666   -7.1996    5.2646 C.3     1  UNL1        0.0138
      2 N           3.3535   -7.1217    4.9716 N.ar    1  UNL1       -0.3265
      3 C           2.3447   -7.4312    5.8696 C.ar    1  UNL1        0.0526
      4 C           2.3941   -7.8856    7.2002 C.ar    1  UNL1       -0.0375
      5 C           1.1924   -8.1172    7.8538 C.ar    1  UNL1       -0.0598
      6 C          -0.0304   -7.9146    7.2241 C.ar    1  UNL1       -0.0610
      7 C          -0.0779   -7.4650    5.9031 C.ar    1  UNL1       -0.0504
      8 C           1.1270   -7.2192    5.2109 C.ar    1  UNL1        0.0292
      9 C           1.4396   -6.7778    3.9016 C.ar    1  UNL1        0.1376
     10 N           0.6473   -6.4331    2.8590 N.ar    1  UNL1       -0.1429
     11 N           1.2663   -6.0621    1.7417 N.ar    1  UNL1       -0.1217
     12 C           2.6239   -6.0432    1.6680 C.ar    1  UNL1        0.2113
     13 S           3.2937   -5.5241    0.1028 S.3     1  UNL1       -0.0828
     14 C           4.9281   -6.3243    0.1364 C.3     1  UNL1        0.0167
     15 C           4.8754   -7.8592    0.0180 C.3     1  UNL1        0.0186
     16 N           6.2517   -8.3551   -0.1775 N.pl3   1  UNL1       -0.3425
     17 C           6.4565   -9.7563   -0.1781 C.ar    1  UNL1        0.0379
     18 C           7.3296  -10.2742    0.7872 C.ar    1  UNL1       -0.0221
     19 C           7.5695  -11.6327    0.8257 C.ar    1  UNL1        0.0300
     20 N           7.0388  -12.5071   -0.0438 N.ar    1  UNL1       -0.2548
     21 C           6.2869  -12.0202   -1.0381 C.ar    1  UNL1        0.0741
     22 C           5.9280  -12.9144   -2.0320 C.ar    1  UNL1       -0.0173
     23 C           5.2631  -12.4886   -3.1754 C.ar    1  UNL1        0.0430
     24 CL          5.0110  -13.5872   -4.4756 Cl      1  UNL1       -0.0835
     25 C           4.8674  -11.1661   -3.3017 C.ar    1  UNL1       -0.0426
     26 C           5.1937  -10.2550   -2.2956 C.ar    1  UNL1       -0.0494
     27 C           5.9367  -10.6488   -1.1566 C.ar    1  UNL1        0.0213
     28 N           3.4846   -6.3697    2.6594 N.ar    1  UNL1       -0.2009
     29 C           2.8171   -6.7315    3.7714 C.ar    1  UNL1        0.1646
     30 H           4.9787   -6.5486    6.1168 H       1  UNL1        0.0456
     31 H           5.0109   -8.2376    5.5031 H       1  UNL1        0.0456
     32 H           5.3500   -6.8732    4.4016 H       1  UNL1        0.0456
     33 H           3.3417   -8.0435    7.7089 H       1  UNL1        0.0638
     34 H           1.2034   -8.4668    8.8880 H       1  UNL1        0.0618
     35 H          -0.9598   -8.1084    7.7583 H       1  UNL1        0.0618
     36 H          -1.0315   -7.3056    5.4085 H       1  UNL1        0.0625
     37 H           5.4862   -5.9190   -0.7162 H       1  UNL1        0.0396
     38 H           5.4839   -6.0198    1.0309 H       1  UNL1        0.0396
     39 H           4.4465   -8.3005    0.9244 H       1  UNL1        0.0469
     40 H           4.2357   -8.1281   -0.8255 H       1  UNL1        0.0469
     41 H           6.8561   -7.9306    0.5256 H       1  UNL1        0.1461
     42 H           7.8415   -9.6320    1.4945 H       1  UNL1        0.0651
     43 H           8.2385  -12.0648    1.5639 H       1  UNL1        0.0830
     44 H           6.2393  -13.9522   -1.9389 H       1  UNL1        0.0653
     45 H           4.3519  -10.8251   -4.1953 H       1  UNL1        0.0632
     46 H           4.9319   -9.2137   -2.4529 H       1  UNL1        0.0625
@<TRIPOS>BOND
     1     1    30    1
     2     1    31    1
     3     1    32    1
     4     2     1    1
     5     3     2   ar
     6     4     3   ar
     7     4    33    1
     8     5     4   ar
     9     5    34    1
    10     6     5   ar
    11     6    35    1
    12     7     6   ar
    13     7    36    1
    14     8     7   ar
    15     8     3   ar
    16     9     8   ar
    17    10     9   ar
    18    11    10   ar
    19    12    11   ar
    20    13    12    1
    21    14    13    1
    22    14    37    1
    23    14    38    1
    24    15    14    1
    25    15    39    1
    26    15    40    1
    27    16    15    1
    28    16    41    1
    29    17    16    1
    30    18    17   ar
    31    18    42    1
    32    19    18   ar
    33    19    43    1
    34    20    19   ar
    35    21    20   ar
    36    22    21   ar
    37    22    44    1
    38    23    22   ar
    39    24    23    1
    40    25    23   ar
    41    25    45    1
    42    26    25   ar
    43    26    46    1
    44    27    26   ar
    45    27    17   ar
    46    27    21   ar
    47    28    12   ar
    48    29    28   ar
    49    29     2   ar
    50    29     9   ar
