@<TRIPOS>MOLECULE
mol_463_akc_jsajb201310014
>447.sdf
 55 57 0 0 0
SMALL
GASTEIGER

@<TRIPOS>ATOM
      1 H           1.7182   -1.4934   -0.8846 H       1  UNL1        0.0320
      2 C           1.9860   -0.4264   -0.7964 C.3     1  UNL1       -0.0156
      3 C           1.4559    0.1748   -2.1123 C.3     1  UNL1       -0.0444
      4 C          -0.0075   -0.1988   -2.3485 C.3     1  UNL1       -0.0270
      5 C          -0.8478   -0.3746   -1.1070 C.ar    1  UNL1       -0.0391
      6 C          -0.2984   -0.3983    0.1874 C.ar    1  UNL1        0.0180
      7 C          -1.1484   -0.7997    1.2231 C.ar    1  UNL1        0.1633
      8 O          -0.6139   -1.3797    2.3431 O.3     1  UNL1       -0.5031
      9 C          -2.5401   -0.8224    1.0882 C.ar    1  UNL1        0.1650
     10 O          -3.3739   -0.9578    2.1738 O.3     1  UNL1       -0.4912
     11 C          -2.9367   -0.2367    3.3378 C.3     1  UNL1        0.0790
     12 C          -3.0954   -0.7568   -0.1912 C.ar    1  UNL1        0.0008
     13 C          -2.2190   -0.6256   -1.2828 C.ar    1  UNL1       -0.0512
     14 C          -4.5934   -0.8385   -0.4192 C.3     1  UNL1       -0.0179
     15 C          -5.0662    0.2631   -1.3759 C.3     1  UNL1       -0.0585
     16 C          -4.9965   -2.2245   -0.9259 C.3     1  UNL1       -0.0585
     17 C           1.1505    0.0905    0.4217 C.3     1  UNL1        0.0994
     18 C           1.7937   -0.4195    1.7309 C.3     1  UNL1       -0.0327
     19 C           3.2526   -0.0464    1.9412 C.3     1  UNL1       -0.0512
     20 C           4.0022    0.3132    0.6737 C.3     1  UNL1       -0.0475
     21 C           3.5501   -0.4334   -0.5980 C.3     1  UNL1       -0.0307
     22 C           4.3392    0.1810   -1.7740 C.3     1  UNL1       -0.0595
     23 C           3.9820   -1.9188   -0.4828 C.3     1  UNL1       -0.0595
     24 C           1.1111    1.6442    0.5269 C.2     1  UNL1        0.3157
     25 O           0.2325    2.1029    1.4517 O.3     1  UNL1       -0.4800
     26 O           1.7811    2.4485   -0.0854 O.2     1  UNL1       -0.2500
     27 H           1.5502    1.2644   -2.1248 H       1  UNL1        0.0272
     28 H           2.0316   -0.1861   -2.9724 H       1  UNL1        0.0272
     29 H          -0.4684    0.5515   -3.0029 H       1  UNL1        0.0313
     30 H          -0.0276   -1.1537   -2.8922 H       1  UNL1        0.0313
     31 H          -1.0993   -2.2228    2.4305 H       1  UNL1        0.2923
     32 H          -3.8153    0.0158    3.9385 H       1  UNL1        0.0660
     33 H          -2.4204    0.7017    3.0965 H       1  UNL1        0.0660
     34 H          -2.3011   -0.8758    3.9594 H       1  UNL1        0.0660
     35 H          -2.6098   -0.6840   -2.2976 H       1  UNL1        0.0624
     36 H          -5.1139   -0.6661    0.5303 H       1  UNL1        0.0345
     37 H          -4.7106    0.1019   -2.3999 H       1  UNL1        0.0235
     38 H          -6.1586    0.3038   -1.4124 H       1  UNL1        0.0235
     39 H          -4.7002    1.2436   -1.0491 H       1  UNL1        0.0235
     40 H          -4.6007   -2.4234   -1.9283 H       1  UNL1        0.0235
     41 H          -4.6247   -3.0122   -0.2605 H       1  UNL1        0.0235
     42 H          -6.0871   -2.3139   -0.9731 H       1  UNL1        0.0235
     43 H           1.7253   -1.5150    1.7599 H       1  UNL1        0.0279
     44 H           1.2522   -0.0445    2.6104 H       1  UNL1        0.0279
     45 H           3.7521   -0.8783    2.4511 H       1  UNL1        0.0266
     46 H           3.3157    0.8016    2.6351 H       1  UNL1        0.0266
     47 H           3.9194    1.3935    0.5123 H       1  UNL1        0.0271
     48 H           5.0712    0.1404    0.8544 H       1  UNL1        0.0271
     49 H           5.3719    0.4034   -1.4785 H       1  UNL1        0.0235
     50 H           4.3923   -0.4988   -2.6300 H       1  UNL1        0.0235
     51 H           3.9046    1.1283   -2.1082 H       1  UNL1        0.0235
     52 H           3.7526   -2.4585   -1.4105 H       1  UNL1        0.0235
     53 H           5.0564   -2.0188   -0.2981 H       1  UNL1        0.0235
     54 H           3.4523   -2.4350    0.3277 H       1  UNL1        0.0235
     55 H           0.3203    3.0759    1.3937 H       1  UNL1        0.2951
@<TRIPOS>BOND
     1     3     2    1
     2     4     3    1
     3     5     4    1
     4     6     5   ar
     5     7     6   ar
     6     8    31    1
     7     9     7   ar
     8    11    10    1
     9    11    32    1
    10    11    33    1
    11    11    34    1
    12    12     9   ar
    13    13    12   ar
    14    13     5   ar
    15    14    36    1
    16    15    14    1
    17    15    37    1
    18    15    38    1
    19    15    39    1
    20    16    14    1
    21    16    40    1
    22    16    41    1
    23    16    42    1
    24    17     6    1
    25    17     2    1
    26    18    17    1
    27    19    18    1
    28    20    19    1
    29    21    20    1
    30    21     2    1
    31    22    49    1
    32    22    50    1
    33    22    51    1
    34    23    52    1
    35    23    53    1
    36    23    54    1
    37    25    24    1
    38    26    24    2
    39     2     1    1
    40     3    27    1
    41     3    28    1
    42     4    29    1
    43     4    30    1
    44     8     7    1
    45    10     9    1
    46    14    12    1
    47    13    35    1
    48    17    24    1
    49    18    43    1
    50    18    44    1
    51    19    45    1
    52    19    46    1
    53    20    47    1
    54    20    48    1
    55    22    21    1
    56    23    21    1
    57    25    55    1
