@<TRIPOS>MOLECULE
mol_464_akc_jactatropica201309018
>448.sdf
 30 31 0 0 0
SMALL
GASTEIGER

@<TRIPOS>ATOM
      1 C           0.9887   -0.3993   -1.0390 C.3     1  UNL1        0.0336
      2 C           2.4377   -0.6985   -1.2867 C.2     1  UNL1        0.3092
      3 O           2.8527   -1.7972   -1.6191 O.2     1  UNL1       -0.2507
      4 O           3.2014    0.4579   -1.0765 O.3     1  UNL1       -0.4253
      5 C           4.6093    0.4053   -1.2105 C.ar    1  UNL1        0.1437
      6 C           5.3194   -0.6869   -0.6876 C.ar    1  UNL1       -0.0185
      7 C           6.7068   -0.7587   -0.8175 C.ar    1  UNL1       -0.0582
      8 C           7.3968    0.2713   -1.4459 C.ar    1  UNL1       -0.0608
      9 C           6.6982    1.3795   -1.9256 C.ar    1  UNL1       -0.0461
     10 C           5.2975    1.4745   -1.8061 C.ar    1  UNL1        0.0793
     11 C           4.6868    2.7511   -2.3112 C.2     1  UNL1        0.2532
     12 O           5.3930    3.4943   -2.9865 O.2     1  UNL1       -0.2697
     13 N           3.3925    3.0223   -1.9255 N.am    1  UNL1       -0.2604
     14 C           2.8224    4.2469   -2.1566 C.ar    1  UNL1        0.1708
     15 N           3.2923    5.2669   -2.8311 N.ar    1  UNL1       -0.2260
     16 C           2.4398    6.3446   -2.6993 C.ar    1  UNL1        0.1147
     17 C           1.3294    6.0967   -1.9304 C.ar    1  UNL1        0.3320
     18 S           1.3079    4.4787   -1.3956 S.2     1  UNL1        0.0219
     19 N           0.3071    7.0272   -1.5763 N.pl3   1  UNL1        0.0887
     20 O           0.4307    8.1767   -2.0161 O.co2   1  UNL1       -0.5755
     21 O          -0.6196    6.6279   -0.8574 O.2     1  UNL1        0.0421
     22 H           0.4095   -0.6942   -1.9180 H       1  UNL1        0.0342
     23 H           0.6515   -0.9475   -0.1569 H       1  UNL1        0.0342
     24 H           0.8311    0.6698   -0.8708 H       1  UNL1        0.0342
     25 H           4.8085   -1.5038   -0.1831 H       1  UNL1        0.0654
     26 H           7.2453   -1.6207   -0.4326 H       1  UNL1        0.0619
     27 H           8.4775    0.2197   -1.5531 H       1  UNL1        0.0618
     28 H           7.2662    2.1849   -2.3915 H       1  UNL1        0.0626
     29 H           2.8843    2.3759   -1.3431 H       1  UNL1        0.1571
     30 H           2.6960    7.2855   -3.1743 H       1  UNL1        0.0906
@<TRIPOS>UNITY_ATOM_ATTR
19 1
charge 1
20 1
charge -1
@<TRIPOS>BOND
     1     1    22    1
     2     1    23    1
     3     1    24    1
     4     2     1    1
     5     3     2    2
     6     4     2    1
     7     5     4    1
     8     6     5   ar
     9     6    25    1
    10     7     6   ar
    11     7    26    1
    12     8     7   ar
    13     8    27    1
    14     9     8   ar
    15     9    28    1
    16    10     9   ar
    17    10     5   ar
    18    11    10    1
    19    12    11    2
    20    13    11   am
    21    13    29    1
    22    14    13    1
    23    15    14   ar
    24    16    15   ar
    25    16    30    1
    26    17    16   ar
    27    18    17   ar
    28    18    14   ar
    29    19    17    1
    30    20    19    1
    31    21    19    2
