@<TRIPOS>MOLECULE
mol_465_akc_jm4006127
>449.sdf
 30 32 0 0 0
SMALL
GASTEIGER

@<TRIPOS>ATOM
      1 O           2.9909   -0.9311    0.9443 O.2     1  UNL1       -0.1500
      2 S           2.4519   -0.0477   -0.0684 S.O2    1  UNL1        0.0723
      3 O           1.0329   -0.0136   -0.3566 O.2     1  UNL1       -0.1500
      4 N           2.9910    1.5096    0.3275 N.pl3   1  UNL1       -0.2162
      5 C           2.5962    2.5872   -0.5139 C.ar    1  UNL1        0.0488
      6 C           1.3435    3.1763   -0.3061 C.ar    1  UNL1       -0.0287
      7 C           0.9346    4.2059   -1.1695 C.ar    1  UNL1        0.0213
      8 C           1.7674    4.5867   -2.2157 C.ar    1  UNL1        0.0658
      9 N           1.0843    5.5746   -2.8766 N.ar    1  UNL1       -0.2770
     10 N          -0.1049    5.8816   -2.3295 N.ar    1  UNL1       -0.1812
     11 C          -0.1947    5.0451   -1.2920 C.ar    1  UNL1        0.0569
     12 C           3.0172    4.0036   -2.4462 C.ar    1  UNL1       -0.0345
     13 C           3.4220    2.9965   -1.5620 C.ar    1  UNL1       -0.0373
     14 C           3.3185   -0.4037   -1.5832 C.ar    1  UNL1        0.1085
     15 C           4.5855   -0.9962   -1.5230 C.ar    1  UNL1       -0.0351
     16 C           5.2566   -1.3113   -2.7046 C.ar    1  UNL1       -0.0599
     17 C           4.6617   -1.0405   -3.9381 C.ar    1  UNL1       -0.0616
     18 C           3.3931   -0.4598   -3.9944 C.ar    1  UNL1       -0.0599
     19 C           2.7121   -0.1462   -2.8170 C.ar    1  UNL1       -0.0351
     20 H           3.9598    1.5007    0.6413 H       1  UNL1        0.1737
     21 H           0.7033    2.8472    0.5074 H       1  UNL1        0.0643
     22 H           1.3753    6.0806   -3.7050 H       1  UNL1        0.1889
     23 H          -1.0765    5.0789   -0.6650 H       1  UNL1        0.0854
     24 H           3.6485    4.3096   -3.2739 H       1  UNL1        0.0639
     25 H           4.3867    2.5207   -1.7210 H       1  UNL1        0.0637
     26 H           5.0471   -1.2306   -0.5660 H       1  UNL1        0.0637
     27 H           6.2364   -1.7813   -2.6660 H       1  UNL1        0.0618
     28 H           5.1826   -1.2964   -4.8582 H       1  UNL1        0.0618
     29 H           2.9303   -0.2628   -4.9590 H       1  UNL1        0.0618
     30 H           1.7192    0.2958   -2.8675 H       1  UNL1        0.0637
@<TRIPOS>BOND
     1     2     1    2
     2     3     2    2
     3     4     2    1
     4     4    20    1
     5     5     4    1
     6     6     5   ar
     7     6    21    1
     8     7     6   ar
     9     8     7   ar
    10     9     8   ar
    11     9    22    1
    12    10     9   ar
    13    11    10   ar
    14    11     7   ar
    15    11    23    1
    16    12     8   ar
    17    12    24    1
    18    13    12   ar
    19    13     5   ar
    20    13    25    1
    21    14     2    1
    22    15    14   ar
    23    15    26    1
    24    16    15   ar
    25    16    27    1
    26    17    16   ar
    27    17    28    1
    28    18    17   ar
    29    18    29    1
    30    19    18   ar
    31    19    14   ar
    32    19    30    1
