@<TRIPOS>MOLECULE
mol_466_akc_jbmc201309002
>450.sdf
 33 35 0 0 0
SMALL
GASTEIGER

@<TRIPOS>ATOM
      1 O           0.8446    0.6715   -3.1205 O.co2   1  UNL1       -0.5747
      2 N           1.9943    0.8940   -3.5144 N.pl3   1  UNL1        0.1012
      3 O           2.3998    0.8357   -4.6781 O.2     1  UNL1        0.0431
      4 C           2.9370    1.2182   -2.5138 C.ar    1  UNL1        0.3770
      5 C           2.8152    2.0875   -1.4531 C.ar    1  UNL1        0.1608
      6 C           1.7186    3.0139   -1.0632 C.3     1  UNL1        0.1211
      7 S           1.8413    4.5756   -1.9276 S.O2    1  UNL1        0.0027
      8 O           3.0960    5.2248   -1.5967 O.2     1  UNL1       -0.1690
      9 O           1.4787    4.3487   -3.3159 O.2     1  UNL1       -0.1690
     10 C           0.5493    5.5579   -1.1933 C.ar    1  UNL1        0.0886
     11 C           0.8357    6.3310   -0.0631 C.ar    1  UNL1       -0.0369
     12 C          -0.1588    7.1411    0.4852 C.ar    1  UNL1       -0.0600
     13 C          -1.4257    7.1833   -0.0991 C.ar    1  UNL1       -0.0616
     14 C          -1.7016    6.4200   -1.2350 C.ar    1  UNL1       -0.0600
     15 C          -0.7128    5.6069   -1.7907 C.ar    1  UNL1       -0.0369
     16 N           3.9494    1.9973   -0.6723 N.ar    1  UNL1       -0.2227
     17 C           4.7553    1.1385   -1.2700 C.ar    1  UNL1        0.1571
     18 N           4.1666    0.6118   -2.4281 N.ar    1  UNL1       -0.2396
     19 C           4.7930   -0.3536   -3.2227 C.ar    1  UNL1        0.0313
     20 C           6.0180   -0.7957   -2.8923 C.ar    1  UNL1        0.0357
     21 BR          6.9240   -2.0790   -3.8894 Br      1  UNL1       -0.0487
     22 C           6.6637   -0.2569   -1.7069 C.ar    1  UNL1       -0.0288
     23 C           6.0623    0.6693   -0.9302 C.ar    1  UNL1        0.0618
     24 BR          6.8849    1.3617    0.5934 Br      1  UNL1       -0.0465
     25 H           0.7379    2.5876   -1.2906 H       1  UNL1        0.0572
     26 H           1.7669    3.2257    0.0098 H       1  UNL1        0.0572
     27 H           1.8284    6.3252    0.3833 H       1  UNL1        0.0636
     28 H           0.0570    7.7528    1.3582 H       1  UNL1        0.0618
     29 H          -2.1953    7.8262    0.3232 H       1  UNL1        0.0618
     30 H          -2.6856    6.4732   -1.6961 H       1  UNL1        0.0618
     31 H          -0.9314    5.0367   -2.6912 H       1  UNL1        0.0636
     32 H           4.2653   -0.7200   -4.0956 H       1  UNL1        0.0826
     33 H           7.6569   -0.6196   -1.4579 H       1  UNL1        0.0641
@<TRIPOS>UNITY_ATOM_ATTR
1 1
charge -1
2 1
charge 1
@<TRIPOS>BOND
     1     2     1    1
     2     3     2    2
     3     4     2    1
     4     5     4   ar
     5     6     5    1
     6     6    25    1
     7     6    26    1
     8     7     6    1
     9     8     7    2
    10     9     7    2
    11    10     7    1
    12    11    10   ar
    13    11    27    1
    14    12    11   ar
    15    12    28    1
    16    13    12   ar
    17    13    29    1
    18    14    13   ar
    19    14    30    1
    20    15    14   ar
    21    15    10   ar
    22    15    31    1
    23    16     5   ar
    24    17    16   ar
    25    18    17   ar
    26    18     4   ar
    27    19    18   ar
    28    19    32    1
    29    20    19   ar
    30    21    20    1
    31    22    20   ar
    32    22    33    1
    33    23    22   ar
    34    23    17   ar
    35    24    23    1
