@<TRIPOS>MOLECULE
mol_46_akc_tswj2010174124
>46.sdf
 59 62 0 0 0
SMALL
GASTEIGER

@<TRIPOS>ATOM
      1 C           5.6180    9.1960    2.1858 C.3     1  UNL1        0.0788
      2 O           4.7626    8.1544    1.7242 O.3     1  UNL1       -0.4951
      3 C           4.9389    6.9186    2.2735 C.ar    1  UNL1        0.1201
      4 C           5.5662    6.6474    3.4865 C.ar    1  UNL1       -0.0195
      5 C           5.6416    5.3334    3.9633 C.ar    1  UNL1       -0.0501
      6 C           5.0662    4.2741    3.2432 C.ar    1  UNL1       -0.0025
      7 C           5.0989    2.8631    3.7572 C.3     1  UNL1        0.0001
      8 N           4.5374    2.7105    5.1559 N.4     1  UNL1        0.2808
      9 C           4.6617    1.3205    5.7106 C.3     1  UNL1        0.0156
     10 C           3.3334    0.6774    5.3659 C.3     1  UNL1        0.0156
     11 N           2.3333    1.8121    5.4480 N.4     1  UNL1        0.2808
     12 C           1.3354    1.6502    6.5855 C.3     1  UNL1        0.0001
     13 C           0.4954    0.3994    6.4976 C.ar    1  UNL1       -0.0025
     14 C           0.5355   -0.5450    7.5315 C.ar    1  UNL1       -0.0501
     15 C          -0.2694   -1.6892    7.4905 C.ar    1  UNL1       -0.0195
     16 C          -1.1298   -1.9046    6.4144 C.ar    1  UNL1        0.1201
     17 O          -1.9617   -2.9755    6.2567 O.3     1  UNL1       -0.4951
     18 C          -1.9120   -4.0009    7.2434 C.3     1  UNL1        0.0788
     19 C          -1.1916   -0.9531    5.3935 C.ar    1  UNL1       -0.0195
     20 C          -0.3904    0.1910    5.4306 C.ar    1  UNL1       -0.0501
     21 C           3.1013    3.1260    5.3531 C.3     1  UNL1        0.0256
     22 C           2.8752    4.1281    6.4835 C.ar    1  UNL1        0.0495
     23 C           3.8485    4.4791    7.4416 C.ar    1  UNL1       -0.0474
     24 C           3.5580    5.3766    8.4758 C.ar    1  UNL1       -0.0611
     25 C           2.2821    5.9082    8.6080 C.ar    1  UNL1       -0.0617
     26 C           1.3074    5.5944    7.6714 C.ar    1  UNL1       -0.0611
     27 C           1.6133    4.7540    6.5975 C.ar    1  UNL1       -0.0474
     28 C           4.4726    4.5516    2.0042 C.ar    1  UNL1       -0.0501
     29 C           4.4027    5.8647    1.5343 C.ar    1  UNL1       -0.0195
     30 H           5.4631    9.4042    3.2490 H       1  UNL1        0.0660
     31 H           6.6658    8.9538    1.9798 H       1  UNL1        0.0660
     32 H           5.3646   10.1063    1.6344 H       1  UNL1        0.0660
     33 H           6.0032    7.4430    4.0840 H       1  UNL1        0.0654
     34 H           6.1773    5.1759    4.8972 H       1  UNL1        0.0623
     35 H           4.5363    2.1808    3.1107 H       1  UNL1        0.0869
     36 H           6.1412    2.5231    3.7958 H       1  UNL1        0.0869
     37 H           5.1335    3.3341    5.7004 H       1  UNL1        0.2104
     38 H           4.7816    1.4225    6.7952 H       1  UNL1        0.0870
     39 H           5.5327    0.8147    5.2860 H       1  UNL1        0.0870
     40 H           3.3168    0.3280    4.3245 H       1  UNL1        0.0870
     41 H           3.0695   -0.1429    6.0346 H       1  UNL1        0.0870
     42 H           1.7447    1.7669    4.6082 H       1  UNL1        0.2104
     43 H           1.9032    1.6924    7.5215 H       1  UNL1        0.0869
     44 H           0.6329    2.4828    6.5412 H       1  UNL1        0.0869
     45 H           1.1690   -0.4048    8.4099 H       1  UNL1        0.0623
     46 H          -0.2204   -2.3868    8.3218 H       1  UNL1        0.0654
     47 H          -0.9069   -4.4420    7.2954 H       1  UNL1        0.0660
     48 H          -2.2180   -3.6176    8.2244 H       1  UNL1        0.0660
     49 H          -2.6081   -4.7868    6.9555 H       1  UNL1        0.0660
     50 H          -1.8924   -1.1097    4.5724 H       1  UNL1        0.0654
     51 H          -0.5190    0.9169    4.6338 H       1  UNL1        0.0623
     52 H           2.7629    3.5903    4.4190 H       1  UNL1        0.1531
     53 H           4.8660    4.1002    7.4443 H       1  UNL1        0.0624
     54 H           4.3289    5.6638    9.1917 H       1  UNL1        0.0618
     55 H           2.0525    6.5817    9.4334 H       1  UNL1        0.0618
     56 H           0.3084    6.0178    7.7777 H       1  UNL1        0.0618
     57 H           0.8189    4.5817    5.8700 H       1  UNL1        0.0624
     58 H           4.0698    3.7638    1.3691 H       1  UNL1        0.0623
     59 H           3.9421    6.0750    0.5687 H       1  UNL1        0.0654
@<TRIPOS>UNITY_ATOM_ATTR
8 1
charge 1
11 1
charge 1
@<TRIPOS>BOND
     1     1    30    1
     2     1    31    1
     3     1    32    1
     4     2     1    1
     5     3     2    1
     6     4     3   ar
     7     4    33    1
     8     5     4   ar
     9     5    34    1
    10     6     5   ar
    11     7     6    1
    12     7    35    1
    13     7    36    1
    14     8     7    1
    15     8    37    1
    16     9     8    1
    17     9    38    1
    18     9    39    1
    19    10     9    1
    20    10    40    1
    21    10    41    1
    22    11    10    1
    23    11    42    1
    24    12    11    1
    25    12    43    1
    26    12    44    1
    27    13    12    1
    28    14    13   ar
    29    14    45    1
    30    15    14   ar
    31    15    46    1
    32    16    15   ar
    33    17    16    1
    34    18    17    1
    35    18    47    1
    36    18    48    1
    37    18    49    1
    38    19    16   ar
    39    19    50    1
    40    20    19   ar
    41    20    13   ar
    42    20    51    1
    43    21    11    1
    44    21     8    1
    45    21    52    1
    46    22    21    1
    47    23    22   ar
    48    23    53    1
    49    24    23   ar
    50    24    54    1
    51    25    24   ar
    52    25    55    1
    53    26    25   ar
    54    26    56    1
    55    27    26   ar
    56    27    22   ar
    57    27    57    1
    58    28     6   ar
    59    28    58    1
    60    29    28   ar
    61    29     3   ar
    62    29    59    1
