@<TRIPOS>MOLECULE
mol_470_akc_aac00557_13
>454.sdf
 49 51 0 0 0
SMALL
GASTEIGER

@<TRIPOS>ATOM
      1 CL        -10.3030   -1.0428    3.7015 Cl      1  UNL1       -0.0835
      2 C          -8.9173   -1.9969    3.3474 C.ar    1  UNL1        0.0430
      3 C          -8.5643   -3.0403    4.1932 C.ar    1  UNL1       -0.0173
      4 C          -7.4502   -3.8216    3.9440 C.ar    1  UNL1        0.0741
      5 N          -7.1992   -4.7907    4.8297 N.ar    1  UNL1       -0.2548
      6 C          -6.1057   -5.5371    4.6415 C.ar    1  UNL1        0.0300
      7 C          -5.2372   -5.3742    3.5841 C.ar    1  UNL1       -0.0221
      8 C          -5.5035   -4.4050    2.6037 C.ar    1  UNL1        0.0378
      9 N          -4.6028   -4.1934    1.5155 N.pl3   1  UNL1       -0.3433
     10 C          -3.6041   -5.2459    1.3153 C.3     1  UNL1        0.0092
     11 C          -2.7846   -5.0915    0.0359 C.3     1  UNL1       -0.0361
     12 C          -1.6928   -6.1781   -0.0434 C.3     1  UNL1       -0.0360
     13 C          -2.2546   -7.6037   -0.0828 C.3     1  UNL1        0.0119
     14 N          -1.2169   -8.6109   -0.0133 N.am    1  UNL1       -0.3118
     15 C          -0.7769   -9.0934    1.1967 C.2     1  UNL1        0.2369
     16 O          -1.1796   -8.6929    2.2821 O.2     1  UNL1       -0.2708
     17 C           0.2465  -10.1614    1.0619 C.2     1  UNL1        0.0007
     18 C           0.7949  -10.7005    2.1628 C.2     1  UNL1       -0.0497
     19 C           1.8471  -11.7294    2.1600 C.ar    1  UNL1       -0.0249
     20 C           2.8030  -11.8223    1.1387 C.ar    1  UNL1       -0.0546
     21 C           3.8271  -12.7711    1.2039 C.ar    1  UNL1       -0.0612
     22 C           3.9147  -13.6307    2.2959 C.ar    1  UNL1       -0.0617
     23 C           2.9788  -13.5435    3.3231 C.ar    1  UNL1       -0.0612
     24 C           1.9531  -12.5963    3.2573 C.ar    1  UNL1       -0.0546
     25 C          -6.6403   -3.5644    2.8048 C.ar    1  UNL1        0.0213
     26 C          -7.0151   -2.4942    1.9558 C.ar    1  UNL1       -0.0494
     27 C          -8.1493   -1.7206    2.2265 C.ar    1  UNL1       -0.0426
     28 H          -9.1631   -3.2521    5.0772 H       1  UNL1        0.0653
     29 H          -5.9269   -6.3049    5.3958 H       1  UNL1        0.0830
     30 H          -4.3782   -6.0297    3.5465 H       1  UNL1        0.0651
     31 H          -5.1099   -3.9479    0.6686 H       1  UNL1        0.1461
     32 H          -2.9040   -5.2442    2.1592 H       1  UNL1        0.0461
     33 H          -4.1268   -6.2045    1.2739 H       1  UNL1        0.0461
     34 H          -3.4352   -5.1498   -0.8446 H       1  UNL1        0.0281
     35 H          -2.3073   -4.1042    0.0137 H       1  UNL1        0.0281
     36 H          -1.0793   -6.0091   -0.9369 H       1  UNL1        0.0281
     37 H          -1.0167   -6.0696    0.8146 H       1  UNL1        0.0281
     38 H          -2.9342   -7.7892    0.7533 H       1  UNL1        0.0462
     39 H          -2.8141   -7.7680   -1.0086 H       1  UNL1        0.0462
     40 H          -0.8430   -8.9800   -0.8774 H       1  UNL1        0.1490
     41 H           0.5238  -10.4772    0.0657 H       1  UNL1        0.0669
     42 H           0.4642  -10.3704    3.1471 H       1  UNL1        0.0625
     43 H           2.7806  -11.1459    0.2895 H       1  UNL1        0.0623
     44 H           4.5638  -12.8281    0.4070 H       1  UNL1        0.0618
     45 H           4.7180  -14.3613    2.3507 H       1  UNL1        0.0618
     46 H           3.0498  -14.2067    4.1810 H       1  UNL1        0.0618
     47 H           1.2375  -12.5405    4.0751 H       1  UNL1        0.0623
     48 H          -6.4197   -2.2462    1.0815 H       1  UNL1        0.0625
     49 H          -8.4163   -0.9013    1.5671 H       1  UNL1        0.0632
@<TRIPOS>BOND
     1     2     1    1
     2     3     2   ar
     3     3    28    1
     4     4     3   ar
     5     5     4   ar
     6     6     5   ar
     7     6    29    1
     8     7     6   ar
     9     7    30    1
    10     8     7   ar
    11     9     8    1
    12     9    31    1
    13    10     9    1
    14    10    32    1
    15    10    33    1
    16    11    10    1
    17    11    34    1
    18    11    35    1
    19    12    11    1
    20    12    36    1
    21    12    37    1
    22    13    12    1
    23    13    38    1
    24    13    39    1
    25    14    13    1
    26    14    40    1
    27    15    14   am
    28    16    15    2
    29    17    15    1
    30    17    41    1
    31    18    17    2
    32    18    42    1
    33    19    18    1
    34    20    19   ar
    35    20    43    1
    36    21    20   ar
    37    21    44    1
    38    22    21   ar
    39    22    45    1
    40    23    22   ar
    41    23    46    1
    42    24    23   ar
    43    24    19   ar
    44    24    47    1
    45    25     8   ar
    46    25     4   ar
    47    26    25   ar
    48    26    48    1
    49    27    26   ar
    50    27     2   ar
    51    27    49    1
