@<TRIPOS>MOLECULE
mol_471_akc_jexppara201307021
>455.sdf
 50 55 0 0 0
SMALL
GASTEIGER

@<TRIPOS>ATOM
      1 C          11.4629    0.5969   21.2358 C.3     1  UNL1        0.0788
      2 O          11.4966   -0.0611   19.9704 O.3     1  UNL1       -0.4944
      3 C          11.8743    0.7185   18.9160 C.ar    1  UNL1        0.1312
      4 C          12.8289    1.7390   19.0305 C.ar    1  UNL1       -0.0163
      5 C          13.2464    2.4811   17.9145 C.ar    1  UNL1       -0.0466
      6 C          14.4705    3.3484   18.0061 C.3     1  UNL1       -0.0396
      7 C          12.6225    2.2763   16.6801 C.ar    1  UNL1       -0.0517
      8 C          11.7100    1.2329   16.5610 C.ar    1  UNL1        0.0081
      9 C          11.3952    0.4052   17.6449 C.ar    1  UNL1        0.0680
     10 C          10.7828   -0.9117   17.3295 C.2     1  UNL1        0.1988
     11 O           9.9405   -1.4606   18.0095 O.2     1  UNL1       -0.2890
     12 C          11.3434   -1.5457   16.0961 C.3     1  UNL1        0.1588
     13 O          10.4924   -1.5115   14.9664 O.3     1  UNL1       -0.3477
     14 C          11.5989   -0.5961   14.8985 C.3     1  UNL1        0.1713
     15 C          11.2814    0.8296   15.2106 C.3     1  UNL1        0.2047
     16 O          10.8438    1.6248   14.3963 O.3     1  UNL1       -0.2153
     17 C          12.7474   -0.7854   13.8948 C.ar    1  UNL1        0.0357
     18 C          12.5691   -0.8325   12.4731 C.ar    1  UNL1        0.1377
     19 O          11.4184   -1.0244   11.7662 O.3     1  UNL1       -0.4940
     20 C          10.1342   -1.2297   12.3021 C.3     1  UNL1        0.0788
     21 C          13.6751   -0.6367   11.5912 C.ar    1  UNL1        0.0726
     22 C          14.9500   -0.3844   12.0967 C.ar    1  UNL1        0.0345
     23 C          15.1607   -0.3926   13.4660 C.ar    1  UNL1       -0.0470
     24 C          14.0994   -0.6263   14.3614 C.ar    1  UNL1       -0.0401
     25 C          14.5223   -0.5999   15.8121 C.3     1  UNL1       -0.0392
     26 C          16.1022   -0.0969   11.2099 C.2     1  UNL1        0.1954
     27 O          17.0710    0.5396   11.5991 O.2     1  UNL1       -0.2891
     28 C          16.0379   -0.6127    9.8319 C.3     1  UNL1        0.1552
     29 O          15.5544   -1.9662    9.7329 O.3     1  UNL1       -0.3515
     30 C          14.6880   -0.9204    9.2608 C.3     1  UNL1        0.1553
     31 C          13.5050   -0.6100   10.0984 C.2     1  UNL1        0.1988
     32 O          12.4795   -0.2589    9.5347 O.2     1  UNL1       -0.2890
     33 H          12.4645    0.6090   21.6764 H       1  UNL1        0.0660
     34 H          11.0584    1.6134   21.1644 H       1  UNL1        0.0660
     35 H          10.8089    0.0254   21.9012 H       1  UNL1        0.0660
     36 H          13.3299    1.9126   19.9829 H       1  UNL1        0.0657
     37 H          14.5175    4.0629   17.1801 H       1  UNL1        0.0278
     38 H          14.4838    3.9065   18.9464 H       1  UNL1        0.0278
     39 H          15.3618    2.7112   17.9586 H       1  UNL1        0.0278
     40 H          12.9379    2.8294   15.7964 H       1  UNL1        0.0624
     41 H          11.9448   -2.4318   16.2411 H       1  UNL1        0.0714
     42 H          10.0742   -2.1996   12.7999 H       1  UNL1        0.0660
     43 H           9.8139   -0.3923   12.9233 H       1  UNL1        0.0660
     44 H           9.4333   -1.2719   11.4607 H       1  UNL1        0.0660
     45 H          16.1638   -0.1952   13.8496 H       1  UNL1        0.0627
     46 H          15.3681   -1.2823   15.9588 H       1  UNL1        0.0278
     47 H          14.8443    0.4080   16.0917 H       1  UNL1        0.0278
     48 H          13.7515   -0.9257   16.5043 H       1  UNL1        0.0278
     49 H          16.8273   -0.3092    9.1569 H       1  UNL1        0.0710
     50 H          14.5454   -0.8511    8.1902 H       1  UNL1        0.0710
@<TRIPOS>BOND
     1     1    33    1
     2     1    34    1
     3     1    35    1
     4     2     1    1
     5     4     3   ar
     6     5     4   ar
     7     6    37    1
     8     6    38    1
     9     6    39    1
    10     7     5   ar
    11     8     7   ar
    12     9     8   ar
    13     9     3   ar
    14    10     9    1
    15    12    10    1
    16    13    12    1
    17    14    13    1
    18    14    12    1
    19    15    14    1
    20    15     8    1
    21    18    17   ar
    22    19    18    1
    23    20    19    1
    24    20    42    1
    25    20    43    1
    26    20    44    1
    27    21    18   ar
    28    22    21   ar
    29    23    22   ar
    30    23    45    1
    31    24    23   ar
    32    24    17   ar
    33    25    24    1
    34    25    46    1
    35    25    47    1
    36    25    48    1
    37    26    22    1
    38    27    26    2
    39    28    26    1
    40    28    49    1
    41    29    28    1
    42    30    29    1
    43    30    28    1
    44    30    50    1
    45    31    30    1
    46    31    21    1
    47    32    31    2
    48     3     2    1
    49     4    36    1
    50     6     5    1
    51     7    40    1
    52    11    10    2
    53    12    41    1
    54    14    17    1
    55    16    15    2
