@<TRIPOS>MOLECULE
mol_472_akc_jbmcl201306060
>456.sdf
 44 46 0 0 0
SMALL
GASTEIGER

@<TRIPOS>ATOM
      1 C           4.8804    0.0207    3.8858 C.3     1  UNL1       -0.0121
      2 S           4.5864   -1.7581    4.0669 S.3     1  UNL1       -0.1091
      3 C           3.8813   -2.1310    2.4671 C.ar    1  UNL1        0.1023
      4 N           3.7346   -1.1297    1.5837 N.ar    1  UNL1       -0.2083
      5 C           3.1962   -1.4455    0.4088 C.ar    1  UNL1        0.2141
      6 N           3.0392   -0.4318   -0.5137 N.pl3   1  UNL1       -0.3274
      7 N           2.8349   -2.6730    0.0407 N.ar    1  UNL1       -0.2152
      8 C           2.9917   -3.6552    0.9483 C.ar    1  UNL1        0.0700
      9 C           2.5595   -5.0080    0.5649 C.2     1  UNL1       -0.0356
     10 C           2.0697   -5.3055   -0.6491 C.2     1  UNL1       -0.0526
     11 C           1.5917   -6.6304   -1.0610 C.ar    1  UNL1       -0.0247
     12 C           0.9512   -7.5130   -0.1834 C.ar    1  UNL1       -0.0511
     13 C           0.4147   -8.7158   -0.6539 C.ar    1  UNL1       -0.0194
     14 C           0.4905   -9.0400   -2.0079 C.ar    1  UNL1        0.1210
     15 O          -0.1413  -10.1987   -2.3733 O.3     1  UNL1       -0.4874
     16 C          -0.5034  -10.2770   -3.7534 C.3     1  UNL1        0.1146
     17 C          -1.6109  -11.2830   -3.9502 C.ar    1  UNL1       -0.0104
     18 C          -2.8017  -11.1794   -3.2148 C.ar    1  UNL1       -0.0554
     19 C          -3.8618  -12.0530   -3.4602 C.ar    1  UNL1       -0.0614
     20 C          -3.7433  -13.0342   -4.4426 C.ar    1  UNL1       -0.0617
     21 C          -2.5630  -13.1489   -5.1747 C.ar    1  UNL1       -0.0614
     22 C          -1.5018  -12.2761   -4.9311 C.ar    1  UNL1       -0.0554
     23 C           1.1689   -8.1877   -2.8790 C.ar    1  UNL1       -0.0194
     24 C           1.7018   -6.9845   -2.4101 C.ar    1  UNL1       -0.0511
     25 C           3.5178   -3.4299    2.1978 C.ar    1  UNL1       -0.0042
     26 H           5.5665    0.2168    3.0570 H       1  UNL1        0.0344
     27 H           3.9398    0.5539    3.7211 H       1  UNL1        0.0344
     28 H           5.3350    0.4009    4.8039 H       1  UNL1        0.0344
     29 H           3.0278   -0.8157   -1.4478 H       1  UNL1        0.1452
     30 H           3.6893    0.3161   -0.3246 H       1  UNL1        0.1452
     31 H           2.6536   -5.7756    1.3266 H       1  UNL1        0.0639
     32 H           2.0007   -4.5309   -1.4116 H       1  UNL1        0.0624
     33 H           0.8282   -7.2654    0.8674 H       1  UNL1        0.0625
     34 H          -0.0964   -9.3843    0.0345 H       1  UNL1        0.0654
     35 H          -0.8794   -9.3154   -4.1281 H       1  UNL1        0.0748
     36 H           0.3813  -10.5699   -4.3314 H       1  UNL1        0.0748
     37 H          -2.9081  -10.4088   -2.4545 H       1  UNL1        0.0621
     38 H          -4.7833  -11.9600   -2.8915 H       1  UNL1        0.0618
     39 H          -4.5728  -13.7080   -4.6400 H       1  UNL1        0.0618
     40 H          -2.4718  -13.9124   -5.9425 H       1  UNL1        0.0618
     41 H          -0.5932  -12.3707   -5.5211 H       1  UNL1        0.0621
     42 H           1.2889   -8.4218   -3.9315 H       1  UNL1        0.0654
     43 H           2.1966   -6.3199   -3.1154 H       1  UNL1        0.0625
     44 H           3.6404   -4.2205    2.9256 H       1  UNL1        0.0665
@<TRIPOS>BOND
     1     1    26    1
     2     1    27    1
     3     1    28    1
     4     2     1    1
     5     3     2    1
     6     4     3   ar
     7     5     4   ar
     8     6     5    1
     9     6    29    1
    10     6    30    1
    11     7     5   ar
    12     8     7   ar
    13     9     8    1
    14     9    31    1
    15    10     9    2
    16    10    32    1
    17    11    10    1
    18    12    11   ar
    19    12    33    1
    20    13    12   ar
    21    13    34    1
    22    14    13   ar
    23    15    14    1
    24    16    15    1
    25    16    35    1
    26    16    36    1
    27    17    16    1
    28    18    17   ar
    29    18    37    1
    30    19    18   ar
    31    19    38    1
    32    20    19   ar
    33    20    39    1
    34    21    20   ar
    35    21    40    1
    36    22    21   ar
    37    22    17   ar
    38    22    41    1
    39    23    14   ar
    40    23    42    1
    41    24    23   ar
    42    24    11   ar
    43    24    43    1
    44    25     8   ar
    45    25     3   ar
    46    25    44    1
