@<TRIPOS>MOLECULE
mol_473_akc_jexppara201306015
>457.sdf
 89 89 0 0 0
SMALL
GASTEIGER

@<TRIPOS>ATOM
      1 C           0.6793   -2.1019    0.2242 C.3     1  UNL1       -0.0652
      2 C           2.1061   -1.5956    0.3765 C.3     1  UNL1       -0.0545
      3 C           2.2288   -0.2262   -0.2968 C.3     1  UNL1       -0.0375
      4 C           3.6444    0.3485   -0.2119 C.3     1  UNL1        0.0123
      5 N           3.8801    1.6377   -0.9314 N.pl3   1  UNL1       -0.3264
      6 C           2.7276    2.5601   -0.9421 C.3     1  UNL1        0.0123
      7 C           2.7239    3.4695    0.2872 C.3     1  UNL1       -0.0372
      8 C           1.6998    4.5925    0.1602 C.3     1  UNL1       -0.0516
      9 C           0.2869    4.0364    0.1124 C.3     1  UNL1       -0.0530
     10 C          -0.7248    5.1610    0.1233 C.3     1  UNL1       -0.0531
     11 C          -2.1212    4.5722    0.1137 C.3     1  UNL1       -0.0531
     12 C          -3.1310    5.6967    0.1304 C.3     1  UNL1       -0.0531
     13 C          -4.5304    5.1225    0.1225 C.3     1  UNL1       -0.0530
     14 C          -5.5263    6.2601    0.1278 C.3     1  UNL1       -0.0510
     15 C          -6.9364    5.7026    0.1027 C.3     1  UNL1       -0.0290
     16 C          -7.9375    6.8294    0.1361 C.3     1  UNL1        0.0549
     17 O          -7.7191    7.7027   -0.9792 O.3     1  UNL1       -0.3274
     18 P          -8.8337    9.0257   -0.9654 P.3     1  UNL1        0.2127
     19 O         -10.0407    8.0914   -1.0482 O.co2   1  UNL1       -0.4373
     20 O          -8.2559    9.5912    0.3322 O.2     1  UNL1       -0.5172
     21 O          -9.9482   10.3488   -0.9517 O.3     1  UNL1       -0.3221
     22 C         -10.3113   10.7079   -2.2663 C.3     1  UNL1        0.0947
     23 C         -11.2345   11.9105   -2.1829 C.3     1  UNL1       -0.0064
     24 N         -10.5990   13.1525   -1.4871 N.4     1  UNL1        0.2385
     25 C         -10.2443   12.8386   -0.0190 C.3     1  UNL1       -0.0417
     26 C          -9.3414   13.5942   -2.2062 C.3     1  UNL1       -0.0417
     27 C         -11.6264   14.2637   -1.4978 C.3     1  UNL1       -0.0417
     28 C           5.1805    2.0709   -1.2918 C.ar    1  UNL1        0.0908
     29 C           6.3836    1.3249   -1.0537 C.ar    1  UNL1        0.1498
     30 C           7.6736    1.6868   -1.5272 C.ar    1  UNL1       -0.0179
     31 C           7.8670    2.8303   -2.2836 C.ar    1  UNL1        0.0592
     32 C           6.7548    3.6141   -2.5372 C.ar    1  UNL1       -0.0179
     33 C           5.4773    3.2719   -2.0240 C.ar    1  UNL1        0.1498
     34 N           4.5578    4.3721   -2.2574 N.pl3   1  UNL1        0.0583
     35 O           4.5294    5.2737   -1.4152 O.2     1  UNL1       -0.1261
     36 O           3.9888    4.4026   -3.3643 O.2     1  UNL1       -0.1261
     37 C           9.2226    3.2518   -2.7773 C.3     1  UNL1        0.4176
     38 F          10.2283    2.4581   -2.3254 F       1  UNL1       -0.1659
     39 F           9.2996    3.2389   -4.1330 F       1  UNL1       -0.1659
     40 F           9.5320    4.5172   -2.3883 F       1  UNL1       -0.1659
     41 N           6.4653    0.1344   -0.2267 N.pl3   1  UNL1        0.0583
     42 O           6.3679    0.2823    0.9980 O.2     1  UNL1       -0.1261
     43 O           6.7217   -0.9341   -0.8057 O.2     1  UNL1       -0.1261
     44 H           0.5459   -3.0619    0.7296 H       1  UNL1        0.0230
     45 H          -0.0309   -1.3868    0.6532 H       1  UNL1        0.0230
     46 H           0.4303   -2.2315   -0.8342 H       1  UNL1        0.0230
     47 H           2.3553   -1.5168    1.4416 H       1  UNL1        0.0263
     48 H           2.8029   -2.3151   -0.0691 H       1  UNL1        0.0263
     49 H           1.9388   -0.3144   -1.3510 H       1  UNL1        0.0280
     50 H           1.5152    0.4381    0.2012 H       1  UNL1        0.0280
     51 H           3.9034    0.4758    0.8450 H       1  UNL1        0.0464
     52 H           4.2562   -0.4296   -0.6675 H       1  UNL1        0.0464
     53 H           2.6564    3.1052   -1.8807 H       1  UNL1        0.0464
     54 H           1.7870    2.0090   -0.9771 H       1  UNL1        0.0464
     55 H           2.5080    2.8760    1.1834 H       1  UNL1        0.0280
     56 H           3.7087    3.9116    0.4605 H       1  UNL1        0.0280
     57 H           1.8025    5.2680    1.0177 H       1  UNL1        0.0266
     58 H           1.8876    5.1932   -0.7387 H       1  UNL1        0.0266
     59 H           0.1370    3.4387   -0.7940 H       1  UNL1        0.0265
     60 H           0.1186    3.3754    0.9711 H       1  UNL1        0.0265
     61 H          -0.5882    5.7857    1.0139 H       1  UNL1        0.0265
     62 H          -0.5832    5.8050   -0.7536 H       1  UNL1        0.0265
     63 H          -2.2651    3.9497   -0.7784 H       1  UNL1        0.0265
     64 H          -2.2654    3.9245    0.9876 H       1  UNL1        0.0265
     65 H          -2.9853    6.3186    1.0224 H       1  UNL1        0.0265
     66 H          -2.9846    6.3436   -0.7436 H       1  UNL1        0.0265
     67 H          -4.6773    4.4985   -0.7676 H       1  UNL1        0.0265
     68 H          -4.6827    4.4826    1.0000 H       1  UNL1        0.0265
     69 H          -5.3813    6.8835    1.0193 H       1  UNL1        0.0266
     70 H          -5.3518    6.9019   -0.7447 H       1  UNL1        0.0266
     71 H          -7.0796    5.1095   -0.8074 H       1  UNL1        0.0287
     72 H          -7.1003    5.0441    0.9640 H       1  UNL1        0.0287
     73 H          -8.9428    6.4006    0.1042 H       1  UNL1        0.0564
     74 H          -7.8282    7.3824    1.0753 H       1  UNL1        0.0564
     75 H          -9.4127   10.9230   -2.8529 H       1  UNL1        0.0618
     76 H         -10.8314    9.8753   -2.7518 H       1  UNL1        0.0618
     77 H         -11.5287   12.2282   -3.1902 H       1  UNL1        0.0838
     78 H         -12.1346   11.6630   -1.6086 H       1  UNL1        0.0838
     79 H          -9.3453   12.2236    0.0251 H       1  UNL1        0.0778
     80 H         -10.0168   13.7873    0.4764 H       1  UNL1        0.0778
     81 H         -11.1090   12.3639    0.4531 H       1  UNL1        0.0778
     82 H          -9.5922   13.7823   -3.2545 H       1  UNL1        0.0778
     83 H          -8.9750   14.5090   -1.7322 H       1  UNL1        0.0778
     84 H          -8.5820   12.8118   -2.1283 H       1  UNL1        0.0778
     85 H         -11.8726   14.4993   -2.5373 H       1  UNL1        0.0778
     86 H         -12.5167   13.9200   -0.9622 H       1  UNL1        0.0778
     87 H         -11.1986   15.1400   -1.0026 H       1  UNL1        0.0778
     88 H           8.5333    1.0574   -1.2846 H       1  UNL1        0.0646
     89 H           6.8741    4.5321   -3.1189 H       1  UNL1        0.0646
@<TRIPOS>UNITY_ATOM_ATTR
19 1
charge -1
24 1
charge 1
@<TRIPOS>BOND
     1     1    44    1
     2     1    45    1
     3     1    46    1
     4     2     1    1
     5     2    47    1
     6     2    48    1
     7     3     2    1
     8     3    49    1
     9     3    50    1
    10     4     3    1
    11     4    51    1
    12     4    52    1
    13     5     4    1
    14     6     5    1
    15     6    53    1
    16     6    54    1
    17     7     6    1
    18     7    55    1
    19     7    56    1
    20     8     7    1
    21     8    57    1
    22     8    58    1
    23     9     8    1
    24     9    59    1
    25     9    60    1
    26    10     9    1
    27    10    61    1
    28    10    62    1
    29    11    10    1
    30    11    63    1
    31    11    64    1
    32    12    11    1
    33    12    65    1
    34    12    66    1
    35    13    12    1
    36    13    67    1
    37    13    68    1
    38    14    13    1
    39    14    69    1
    40    14    70    1
    41    15    14    1
    42    15    71    1
    43    15    72    1
    44    16    15    1
    45    16    73    1
    46    16    74    1
    47    17    16    1
    48    18    17    1
    49    19    18    1
    50    20    18    2
    51    21    18    1
    52    22    21    1
    53    22    75    1
    54    22    76    1
    55    23    22    1
    56    23    77    1
    57    23    78    1
    58    24    23    1
    59    25    24    1
    60    25    79    1
    61    25    80    1
    62    25    81    1
    63    26    24    1
    64    26    82    1
    65    26    83    1
    66    26    84    1
    67    27    24    1
    68    27    85    1
    69    27    86    1
    70    27    87    1
    71    28     5    1
    72    29    28   ar
    73    30    29   ar
    74    30    88    1
    75    31    30   ar
    76    32    31   ar
    77    32    89    1
    78    33    32   ar
    79    33    28   ar
    80    34    33    1
    81    35    34    2
    82    36    34    2
    83    37    31    1
    84    38    37    1
    85    39    37    1
    86    40    37    1
    87    41    29    1
    88    42    41    2
    89    43    41    2
