@<TRIPOS>MOLECULE
mol_474_akc_147563662012689297
>458.sdf
 28 29 0 0 0
SMALL
GASTEIGER

@<TRIPOS>ATOM
      1 O           3.6572    3.3081    6.1078 O.3     1  UNL1       -0.3950
      2 C           3.4730    4.0797    4.9308 C.3     1  UNL1        0.0456
      3 C           4.4137    3.6234    3.8276 C.3     1  UNL1       -0.0141
      4 C           4.2024    2.1518    3.4539 C.3     1  UNL1        0.0130
      5 N           5.0968    1.7601    2.3691 N.pl3   1  UNL1       -0.3220
      6 C           6.4298    1.7275    2.6193 C.ar    1  UNL1        0.1819
      7 N           6.9994    1.5699    3.7957 N.ar    1  UNL1       -0.1257
      8 N           8.3675    1.7412    3.7522 N.ar    1  UNL1       -0.1391
      9 C           8.7966    2.0121    2.5368 C.ar    1  UNL1        0.1404
     10 S           7.5551    1.9965    1.3485 S.2     1  UNL1       -0.0303
     11 C          10.1790    2.3354    2.2747 C.ar    1  UNL1        0.0526
     12 C          11.1944    2.3907    3.2179 C.ar    1  UNL1       -0.0382
     13 C          12.4479    2.7890    2.6606 C.ar    1  UNL1        0.0241
     14 C          12.3412    3.0182    1.3077 C.ar    1  UNL1        0.3116
     15 S          10.7753    2.7499    0.7173 S.2     1  UNL1       -0.0126
     16 N          13.3912    3.4458    0.4203 N.pl3   1  UNL1        0.0870
     17 O          14.5041    3.6244    0.9345 O.co2   1  UNL1       -0.5756
     18 O          13.1210    3.6079   -0.7758 O.2     1  UNL1        0.0420
     19 H           4.5900    3.3898    6.3767 H       1  UNL1        0.2094
     20 H           2.4290    3.9833    4.6175 H       1  UNL1        0.0557
     21 H           3.6571    5.1305    5.1766 H       1  UNL1        0.0557
     22 H           4.2765    4.2567    2.9429 H       1  UNL1        0.0302
     23 H           5.4456    3.7721    4.1682 H       1  UNL1        0.0302
     24 H           4.3446    1.4939    4.3193 H       1  UNL1        0.0462
     25 H           3.1706    2.0066    3.1130 H       1  UNL1        0.0462
     26 H           4.8201    2.0960    1.4525 H       1  UNL1        0.1480
     27 H          11.0391    2.1678    4.2694 H       1  UNL1        0.0632
     28 H          13.3648    2.9049    3.2288 H       1  UNL1        0.0691
@<TRIPOS>UNITY_ATOM_ATTR
16 1
charge 1
17 1
charge -1
@<TRIPOS>BOND
     1     1    19    1
     2     2     1    1
     3     2    20    1
     4     2    21    1
     5     3     2    1
     6     3    22    1
     7     3    23    1
     8     4     3    1
     9     4    24    1
    10     4    25    1
    11     5     4    1
    12     5    26    1
    13     6     5    1
    14     7     6   ar
    15     8     7   ar
    16     9     8   ar
    17    10     9   ar
    18    10     6   ar
    19    11     9    1
    20    12    11   ar
    21    12    27    1
    22    13    12   ar
    23    13    28    1
    24    14    13   ar
    25    15    14   ar
    26    15    11   ar
    27    16    14    1
    28    17    16    1
    29    18    16    2
