@<TRIPOS>MOLECULE
mol_475_akc_147563662012689297
>459.sdf
 31 32 0 0 0
SMALL
GASTEIGER

@<TRIPOS>ATOM
      1 C           0.9057    3.9648    0.9421 C.3     1  UNL1        0.0364
      2 O           2.3241    3.9200    0.9998 O.3     1  UNL1       -0.3829
      3 C           2.8929    3.4441   -0.2155 C.3     1  UNL1        0.0487
      4 C           4.4106    3.4656   -0.0995 C.3     1  UNL1       -0.0139
      5 C           4.9163    2.6065    1.0645 C.3     1  UNL1        0.0130
      6 N           6.3764    2.5909    1.1035 N.pl3   1  UNL1       -0.3220
      7 C           7.0126    3.7453    1.4257 C.ar    1  UNL1        0.1819
      8 N           6.5225    4.7321    2.1451 N.ar    1  UNL1       -0.1257
      9 N           7.3463    5.8373    2.1665 N.ar    1  UNL1       -0.1391
     10 C           8.4481    5.6496    1.4698 C.ar    1  UNL1        0.1404
     11 S           8.5845    4.0701    0.8096 S.2     1  UNL1       -0.0303
     12 C           9.4030    6.7121    1.2696 C.ar    1  UNL1        0.0526
     13 C           9.2621    8.0213    1.7056 C.ar    1  UNL1       -0.0382
     14 C          10.3579    8.8543    1.3275 C.ar    1  UNL1        0.0241
     15 C          11.3004    8.1454    0.6172 C.ar    1  UNL1        0.3116
     16 S          10.8791    6.5153    0.4120 S.2     1  UNL1       -0.0126
     17 N          12.5283    8.6571    0.0718 N.pl3   1  UNL1        0.0870
     18 O          12.7605    9.8574    0.2709 O.co2   1  UNL1       -0.5756
     19 O          13.2620    7.8809   -0.5545 O.2     1  UNL1        0.0420
     20 H           0.5761    4.6460    0.1520 H       1  UNL1        0.0523
     21 H           0.4997    2.9634    0.7728 H       1  UNL1        0.0523
     22 H           0.5351    4.3358    1.9013 H       1  UNL1        0.0523
     23 H           2.5407    2.4259   -0.4152 H       1  UNL1        0.0560
     24 H           2.5853    4.0939   -1.0426 H       1  UNL1        0.0560
     25 H           4.8551    3.1222   -1.0413 H       1  UNL1        0.0302
     26 H           4.7333    4.5037    0.0465 H       1  UNL1        0.0302
     27 H           4.5126    2.9499    2.0244 H       1  UNL1        0.0462
     28 H           4.5720    1.5743    0.9298 H       1  UNL1        0.0462
     29 H           6.8098    2.0295    0.3788 H       1  UNL1        0.1480
     30 H           8.3983    8.3675    2.2654 H       1  UNL1        0.0632
     31 H          10.4380    9.9101    1.5629 H       1  UNL1        0.0691
@<TRIPOS>UNITY_ATOM_ATTR
17 1
charge 1
18 1
charge -1
@<TRIPOS>BOND
     1     1    20    1
     2     1    21    1
     3     1    22    1
     4     2     1    1
     5     3     2    1
     6     3    23    1
     7     3    24    1
     8     4     3    1
     9     4    25    1
    10     4    26    1
    11     5     4    1
    12     5    27    1
    13     5    28    1
    14     6     5    1
    15     6    29    1
    16     7     6    1
    17     8     7   ar
    18     9     8   ar
    19    10     9   ar
    20    11    10   ar
    21    11     7   ar
    22    12    10    1
    23    13    12   ar
    24    13    30    1
    25    14    13   ar
    26    14    31    1
    27    15    14   ar
    28    16    15   ar
    29    16    12   ar
    30    17    15    1
    31    18    17    1
    32    19    17    2
