@<TRIPOS>MOLECULE
mol_476_akc_cmdc201300176
>460.sdf
 60 63 0 0 0
SMALL
GASTEIGER

@<TRIPOS>ATOM
      1 C           3.8751   -1.7406   -0.5031 C.3     1  UNL1       -0.0613
      2 C           3.1306   -0.5028   -0.0162 C.3     1  UNL1       -0.0305
      3 C           3.2891    0.6466   -0.9809 C.ar    1  UNL1       -0.0475
      4 C           2.3055    0.9210   -1.9332 C.ar    1  UNL1       -0.0566
      5 C           2.5015    1.9240   -2.8882 C.ar    1  UNL1       -0.0376
      6 C           3.7077    2.6379   -2.9350 C.ar    1  UNL1        0.0469
      7 C           4.6734    2.3934   -1.9544 C.ar    1  UNL1       -0.0376
      8 C           4.4602    1.4123   -0.9796 C.ar    1  UNL1       -0.0566
      9 N           3.9676    3.5441   -4.0219 N.ar    1  UNL1       -0.3128
     10 C           4.6437    4.7773   -3.9444 C.ar    1  UNL1        0.0295
     11 C           5.2158    5.3411   -2.6831 C.3     1  UNL1       -0.0234
     12 C           4.5613    5.4046   -5.1850 C.ar    1  UNL1        0.0184
     13 C           5.0688    6.7511   -5.5804 C.3     1  UNL1       -0.0041
     14 N           6.5020    6.7355   -6.0903 N.4     1  UNL1        0.2397
     15 C           6.6138    5.9528   -7.3953 C.3     1  UNL1       -0.0223
     16 C           8.0331    5.9170   -7.9602 C.3     1  UNL1        0.0341
     17 S           8.6620    7.5767   -8.3140 S.3     1  UNL1       -0.1502
     18 C           8.4624    8.2637   -6.6504 C.3     1  UNL1        0.0341
     19 C           7.0152    8.1666   -6.1734 C.3     1  UNL1       -0.0223
     20 C           3.8599    4.5250   -6.0384 C.ar    1  UNL1       -0.0274
     21 C           3.5734    3.3552   -5.3609 C.ar    1  UNL1        0.0545
     22 C           3.0139    2.1291   -5.9705 C.ar    1  UNL1       -0.0011
     23 C           3.4744    0.8509   -5.6317 C.ar    1  UNL1       -0.0516
     24 C           2.9045   -0.2988   -6.1949 C.ar    1  UNL1       -0.0477
     25 C           1.8982   -0.2018   -7.1547 C.ar    1  UNL1        0.0077
     26 S           1.1058   -1.5888   -7.9555 S.3     1  UNL1       -0.1286
     27 C           1.7097   -3.0193   -7.0196 C.3     1  UNL1       -0.0135
     28 C           1.4778    1.0760   -7.5428 C.ar    1  UNL1       -0.0477
     29 C           2.0216    2.2244   -6.9536 C.ar    1  UNL1       -0.0516
     30 H           3.7455   -2.5646    0.2035 H       1  UNL1        0.0233
     31 H           3.5023   -2.0671   -1.4794 H       1  UNL1        0.0233
     32 H           4.9487   -1.5468   -0.6031 H       1  UNL1        0.0233
     33 H           2.0682   -0.7400    0.1159 H       1  UNL1        0.0311
     34 H           3.5053   -0.2066    0.9706 H       1  UNL1        0.0311
     35 H           1.3849    0.3391   -1.9569 H       1  UNL1        0.0621
     36 H           1.7023    2.1076   -3.6024 H       1  UNL1        0.0638
     37 H           5.6399    2.8822   -1.9544 H       1  UNL1        0.0638
     38 H           5.2350    1.2174   -0.2413 H       1  UNL1        0.0621
     39 H           4.5305    5.2228   -1.8389 H       1  UNL1        0.0292
     40 H           6.1791    4.8769   -2.4538 H       1  UNL1        0.0292
     41 H           5.4086    6.4141   -2.7805 H       1  UNL1        0.0292
     42 H           4.4498    7.1881   -6.3741 H       1  UNL1        0.0868
     43 H           5.0370    7.4342   -4.7250 H       1  UNL1        0.0868
     44 H           7.0495    6.2312   -5.3800 H       1  UNL1        0.2037
     45 H           5.9040    6.3929   -8.1063 H       1  UNL1        0.0823
     46 H           6.3148    4.9237   -7.1774 H       1  UNL1        0.0823
     47 H           8.0399    5.3412   -8.8913 H       1  UNL1        0.0429
     48 H           8.7162    5.4209   -7.2623 H       1  UNL1        0.0429
     49 H           9.1365    7.7384   -5.9660 H       1  UNL1        0.0429
     50 H           8.7697    9.3142   -6.6753 H       1  UNL1        0.0429
     51 H           6.9456    8.5799   -5.1612 H       1  UNL1        0.0823
     52 H           6.3336    8.7225   -6.8296 H       1  UNL1        0.0823
     53 H           3.6318    4.6941   -7.0867 H       1  UNL1        0.0643
     54 H           4.2691    0.7196   -4.9010 H       1  UNL1        0.0624
     55 H           3.2734   -1.2618   -5.8535 H       1  UNL1        0.0629
     56 H           2.7939   -3.1170   -7.1184 H       1  UNL1        0.0344
     57 H           1.4348   -2.9385   -5.9644 H       1  UNL1        0.0344
     58 H           1.2513   -3.9257   -7.4251 H       1  UNL1        0.0344
     59 H           0.7101    1.1908   -8.3078 H       1  UNL1        0.0629
     60 H           1.6418    3.1924   -7.2753 H       1  UNL1        0.0624
@<TRIPOS>UNITY_ATOM_ATTR
14 1
charge 1
@<TRIPOS>BOND
     1     1    30    1
     2     1    31    1
     3     1    32    1
     4     2     1    1
     5     2    33    1
     6     2    34    1
     7     3     2    1
     8     4     3   ar
     9     4    35    1
    10     5     4   ar
    11     5    36    1
    12     6     5   ar
    13     7     6   ar
    14     7    37    1
    15     8     7   ar
    16     8     3   ar
    17     8    38    1
    18     9     6    1
    19    10     9   ar
    20    11    10    1
    21    11    39    1
    22    11    40    1
    23    11    41    1
    24    12    10   ar
    25    13    12    1
    26    13    42    1
    27    13    43    1
    28    14    13    1
    29    14    44    1
    30    15    14    1
    31    15    45    1
    32    15    46    1
    33    16    15    1
    34    16    47    1
    35    16    48    1
    36    17    16    1
    37    18    17    1
    38    18    49    1
    39    18    50    1
    40    19    18    1
    41    19    14    1
    42    19    51    1
    43    19    52    1
    44    20    12   ar
    45    20    53    1
    46    21    20   ar
    47    21     9   ar
    48    22    21    1
    49    23    22   ar
    50    23    54    1
    51    24    23   ar
    52    24    55    1
    53    25    24   ar
    54    26    25    1
    55    27    26    1
    56    27    56    1
    57    27    57    1
    58    27    58    1
    59    28    25   ar
    60    28    59    1
    61    29    28   ar
    62    29    22   ar
    63    29    60    1
