@<TRIPOS>MOLECULE
mol_478_akc_s00044_012_0355_9
>462.sdf
 46 48 0 0 0
SMALL
GASTEIGER

@<TRIPOS>ATOM
      1 O           2.6646   -0.1613    0.1519 O.2     1  UNL1       -0.2739
      2 C           1.4517   -0.0478   -0.0011 C.2     1  UNL1        0.2336
      3 C           0.5776   -1.2133   -0.4739 C.3     1  UNL1        0.0915
      4 N          -0.7475   -1.1255    0.1540 N.am    1  UNL1       -0.2883
      5 C          -1.4156   -2.3334    0.6530 C.3     1  UNL1        0.0266
      6 C          -0.6142   -2.9707    1.8033 C.3     1  UNL1       -0.0343
      7 C          -1.2454   -4.2658    2.2972 C.3     1  UNL1       -0.0514
      8 C          -1.4673   -5.2443    1.1499 C.3     1  UNL1       -0.0529
      9 C          -2.3305   -4.6248    0.0545 C.3     1  UNL1       -0.0514
     10 C          -1.7203   -3.3291   -0.4759 C.3     1  UNL1       -0.0343
     11 C          -1.4534    0.0703    0.0091 C.2     1  UNL1        0.2336
     12 O          -2.6659    0.1797    0.1673 O.2     1  UNL1       -0.2739
     13 C          -0.5845    1.2357   -0.4739 C.3     1  UNL1        0.0915
     14 N           0.7502    1.1528    0.1375 N.am    1  UNL1       -0.2883
     15 C           1.4417    2.3700    0.5771 C.3     1  UNL1        0.0266
     16 C           0.6692    3.0723    1.7052 C.3     1  UNL1       -0.0343
     17 C           1.3396    4.3687    2.1413 C.3     1  UNL1       -0.0514
     18 C           1.5740    5.2963    0.9518 C.3     1  UNL1       -0.0529
     19 C           2.4012    4.6102   -0.1309 C.3     1  UNL1       -0.0514
     20 C           1.7500    3.3096   -0.5985 C.3     1  UNL1       -0.0343
     21 H           0.4647   -1.1660   -1.5622 H       1  UNL1        0.0560
     22 H           1.0708   -2.1491   -0.2044 H       1  UNL1        0.0560
     23 H          -2.3810   -2.0273    1.0783 H       1  UNL1        0.0500
     24 H           0.4117   -3.1900    1.4912 H       1  UNL1        0.0283
     25 H          -0.5351   -2.2568    2.6322 H       1  UNL1        0.0283
     26 H          -0.5971   -4.7232    3.0532 H       1  UNL1        0.0266
     27 H          -2.2050   -4.0448    2.7890 H       1  UNL1        0.0266
     28 H          -0.4999   -5.5428    0.7284 H       1  UNL1        0.0265
     29 H          -1.9473   -6.1534    1.5287 H       1  UNL1        0.0265
     30 H          -2.4496   -5.3382   -0.7689 H       1  UNL1        0.0266
     31 H          -3.3338   -4.4232    0.4499 H       1  UNL1        0.0266
     32 H          -2.4073   -2.8714   -1.1986 H       1  UNL1        0.0283
     33 H          -0.8050   -3.5691   -1.0299 H       1  UNL1        0.0283
     34 H          -1.0768    2.1681   -0.1920 H       1  UNL1        0.0560
     35 H          -0.4864    1.1946   -1.5638 H       1  UNL1        0.0560
     36 H           2.4078    2.0661    1.0036 H       1  UNL1        0.0500
     37 H          -0.3538    3.3094    1.3938 H       1  UNL1        0.0283
     38 H           0.5780    2.3969    2.5645 H       1  UNL1        0.0283
     39 H           0.7111    4.8741    2.8831 H       1  UNL1        0.0266
     40 H           2.2957    4.1450    2.6279 H       1  UNL1        0.0266
     41 H           0.6083    5.6065    0.5326 H       1  UNL1        0.0265
     42 H           2.0836    6.2025    1.2867 H       1  UNL1        0.0265
     43 H           2.5258    5.2861   -0.9845 H       1  UNL1        0.0266
     44 H           3.4052    4.3965    0.2564 H       1  UNL1        0.0266
     45 H           2.4124    2.8068   -1.3140 H       1  UNL1        0.0283
     46 H           0.8300    3.5503   -1.1448 H       1  UNL1        0.0283
@<TRIPOS>BOND
     1     2     1    2
     2     3     2    1
     3     3    21    1
     4     3    22    1
     5     4     3    1
     6     5     4    1
     7     5    23    1
     8     6     5    1
     9     6    24    1
    10     6    25    1
    11     7     6    1
    12     7    26    1
    13     7    27    1
    14     8     7    1
    15     8    28    1
    16     8    29    1
    17     9     8    1
    18     9    30    1
    19     9    31    1
    20    10     9    1
    21    10     5    1
    22    10    32    1
    23    10    33    1
    24    11     4   am
    25    12    11    2
    26    13    11    1
    27    13    34    1
    28    13    35    1
    29    14    13    1
    30    14     2   am
    31    15    14    1
    32    15    36    1
    33    16    15    1
    34    16    37    1
    35    16    38    1
    36    17    16    1
    37    17    39    1
    38    17    40    1
    39    18    17    1
    40    18    41    1
    41    18    42    1
    42    19    18    1
    43    19    43    1
    44    19    44    1
    45    20    19    1
    46    20    15    1
    47    20    45    1
    48    20    46    1
