@<TRIPOS>MOLECULE
mol_479_akc_s00044_012_0355_9
>463.sdf
 34 36 0 0 0
SMALL
GASTEIGER

@<TRIPOS>ATOM
      1 CL         -0.6934   -0.6155    2.4533 Cl      1  UNL1       -0.0816
      2 C           0.2600   -0.3416    1.0345 C.ar    1  UNL1        0.0623
      3 C           0.9183    0.8932    0.9594 C.ar    1  UNL1       -0.0416
      4 C           1.6366    1.2415   -0.1832 C.ar    1  UNL1       -0.0603
      5 C           1.6818    0.3670   -1.2637 C.ar    1  UNL1       -0.0599
      6 C           1.0110   -0.8574   -1.2021 C.ar    1  UNL1       -0.0388
      7 C           0.3048   -1.2403   -0.0501 C.ar    1  UNL1        0.0551
      8 N          -0.2928   -2.5362   -0.0410 N.am    1  UNL1       -0.2599
      9 C          -0.1554   -3.3925    1.1345 C.3     1  UNL1        0.0967
     10 C           0.1013   -4.8313    0.6901 C.2     1  UNL1        0.2380
     11 O           0.8485   -5.5747    1.3242 O.2     1  UNL1       -0.2735
     12 N          -0.7023   -5.2338   -0.3868 N.am    1  UNL1       -0.2599
     13 C          -1.7520   -4.3289   -0.8530 C.3     1  UNL1        0.0967
     14 C          -1.1671   -2.9297   -1.0632 C.2     1  UNL1        0.2380
     15 O          -1.5559   -2.2033   -1.9779 O.2     1  UNL1       -0.2735
     16 C          -0.6714   -6.5889   -0.8372 C.ar    1  UNL1        0.0551
     17 C          -1.8058   -7.4182   -0.9342 C.ar    1  UNL1        0.0623
     18 CL         -3.3753   -6.9508   -0.3742 Cl      1  UNL1       -0.0816
     19 C          -1.6827   -8.7349   -1.3994 C.ar    1  UNL1       -0.0416
     20 C          -0.4407   -9.2355   -1.7849 C.ar    1  UNL1       -0.0603
     21 C           0.6874   -8.4273   -1.6936 C.ar    1  UNL1       -0.0599
     22 C           0.5741   -7.1202   -1.2127 C.ar    1  UNL1       -0.0388
     23 H           0.8592    1.5982    1.7849 H       1  UNL1        0.0633
     24 H           2.1462    2.1999   -0.2356 H       1  UNL1        0.0618
     25 H           2.2390    0.6336   -2.1586 H       1  UNL1        0.0618
     26 H           1.0718   -1.5267   -2.0579 H       1  UNL1        0.0637
     27 H          -1.0788   -3.3745    1.7235 H       1  UNL1        0.0564
     28 H           0.7026   -3.0766    1.7366 H       1  UNL1        0.0564
     29 H          -2.1433   -4.6733   -1.8156 H       1  UNL1        0.0564
     30 H          -2.5483   -4.2573   -0.1056 H       1  UNL1        0.0564
     31 H          -2.5533   -9.3852   -1.4420 H       1  UNL1        0.0633
     32 H          -0.3519  -10.2592   -2.1405 H       1  UNL1        0.0618
     33 H           1.6600   -8.8128   -1.9898 H       1  UNL1        0.0618
     34 H           1.4727   -6.5087   -1.1536 H       1  UNL1        0.0637
@<TRIPOS>BOND
     1     2     1    1
     2     3     2   ar
     3     3    23    1
     4     4     3   ar
     5     4    24    1
     6     5     4   ar
     7     5    25    1
     8     6     5   ar
     9     6    26    1
    10     7     6   ar
    11     7     2   ar
    12     8     7    1
    13     9     8    1
    14     9    27    1
    15     9    28    1
    16    10     9    1
    17    11    10    2
    18    12    10   am
    19    13    12    1
    20    13    29    1
    21    13    30    1
    22    14    13    1
    23    14     8   am
    24    15    14    2
    25    16    12    1
    26    17    16   ar
    27    18    17    1
    28    19    17   ar
    29    19    31    1
    30    20    19   ar
    31    20    32    1
    32    21    20   ar
    33    21    33    1
    34    22    21   ar
    35    22    16   ar
    36    22    34    1
