@<TRIPOS>MOLECULE
mol_47_akc_1475636021000005749
>47.sdf
 34 36 0 0 0
SMALL
GASTEIGER

@<TRIPOS>ATOM
      1 C           1.2609    1.6920   -0.9148 C.3     1  UNL1       -0.0190
      2 C           0.3979    0.5836   -0.4514 C.ar    1  UNL1        0.0825
      3 N           0.7745   -0.1688    0.5876 N.ar    1  UNL1       -0.0814
      4 O          -0.2469   -1.0864    0.7736 O.2     1  UNL1       -0.3389
      5 C          -1.2236   -0.8823   -0.1532 C.ar    1  UNL1        0.2280
      6 C          -0.8492    0.1620   -0.9656 C.ar    1  UNL1        0.0231
      7 N          -2.3456   -1.6771   -0.1572 N.am    1  UNL1       -0.2222
      8 C          -3.4867   -1.5554   -1.0306 C.3     1  UNL1        0.0399
      9 C          -4.3072   -2.8034   -0.7410 C.3     1  UNL1        0.0328
     10 N          -3.8329   -3.2111    0.5565 N.am    1  UNL1       -0.2793
     11 C          -4.4860   -4.2158    1.3706 C.3     1  UNL1        0.0412
     12 C          -5.6971   -3.6565    2.0810 C.ar    1  UNL1       -0.0300
     13 C          -6.9744   -4.1906    1.8563 C.ar    1  UNL1       -0.0560
     14 C          -8.0880   -3.6674    2.5197 C.ar    1  UNL1       -0.0475
     15 C          -7.9299   -2.6089    3.4121 C.ar    1  UNL1        0.0179
     16 BR         -9.4393   -1.8954    4.2991 Br      1  UNL1       -0.0503
     17 C          -6.6680   -2.0733    3.6552 C.ar    1  UNL1       -0.0475
     18 C          -5.5558   -2.5989    2.9942 C.ar    1  UNL1       -0.0560
     19 C          -2.6034   -2.6173    0.8619 C.2     1  UNL1        0.3117
     20 O          -1.9346   -2.8846    1.8465 O.2     1  UNL1       -0.2520
     21 H           1.6040    2.2970   -0.0689 H       1  UNL1        0.0294
     22 H           2.1387    1.3009   -1.4388 H       1  UNL1        0.0294
     23 H           0.7197    2.3520   -1.6003 H       1  UNL1        0.0294
     24 H          -1.3971    0.5738   -1.7981 H       1  UNL1        0.0688
     25 H          -3.1894   -1.4813   -2.0808 H       1  UNL1        0.0485
     26 H          -4.0400   -0.6543   -0.7396 H       1  UNL1        0.0485
     27 H          -4.0716   -3.6048   -1.4502 H       1  UNL1        0.0481
     28 H          -5.3829   -2.6128   -0.7414 H       1  UNL1        0.0481
     29 H          -4.7577   -5.0516    0.7163 H       1  UNL1        0.0514
     30 H          -3.7860   -4.6011    2.1205 H       1  UNL1        0.0514
     31 H          -7.1124   -5.0206    1.1669 H       1  UNL1        0.0621
     32 H          -9.0710   -4.0937    2.3370 H       1  UNL1        0.0629
     33 H          -6.5365   -1.2533    4.3560 H       1  UNL1        0.0629
     34 H          -4.5687   -2.1809    3.1960 H       1  UNL1        0.0621
@<TRIPOS>BOND
     1     1    21    1
     2     1    22    1
     3     1    23    1
     4     2     1    1
     5     3     2   ar
     6     4     3   ar
     7     5     4   ar
     8     6     5   ar
     9     6     2   ar
    10     6    24    1
    11     7     5    1
    12     8     7    1
    13     8    25    1
    14     8    26    1
    15     9     8    1
    16     9    27    1
    17     9    28    1
    18    10     9    1
    19    11    10    1
    20    11    29    1
    21    11    30    1
    22    12    11    1
    23    13    12   ar
    24    13    31    1
    25    14    13   ar
    26    14    32    1
    27    15    14   ar
    28    16    15    1
    29    17    15   ar
    30    17    33    1
    31    18    17   ar
    32    18    12   ar
    33    18    34    1
    34    19    10   am
    35    19     7   am
    36    20    19    2
