@<TRIPOS>MOLECULE
mol_480_akc_jm400053v
>464.sdf
 71 76 0 0 0
SMALL
GASTEIGER

@<TRIPOS>ATOM
      1 C           4.9561   -3.1932    0.6566 C.3     1  UNL1       -0.0226
      2 C           4.3374   -1.7964    0.5080 C.3     1  UNL1        0.1223
      3 N           5.0365   -0.8527    1.3459 N.am    1  UNL1       -0.2868
      4 C           4.5415    0.4141    1.5289 C.2     1  UNL1        0.2476
      5 O           5.2717    1.3492    1.8345 O.2     1  UNL1       -0.2701
      6 C           3.0806    0.5629    1.3652 C.ar    1  UNL1        0.0576
      7 C           2.4665    1.8117    1.4760 C.ar    1  UNL1       -0.0478
      8 C           1.0765    1.8936    1.4211 C.ar    1  UNL1       -0.0609
      9 C           0.3152    0.7311    1.2846 C.ar    1  UNL1       -0.0600
     10 C           0.9408   -0.5129    1.1582 C.ar    1  UNL1       -0.0401
     11 C           2.3341   -0.6026    1.1409 C.ar    1  UNL1        0.0411
     12 N           2.9680   -1.8498    1.0171 N.pl3   1  UNL1       -0.3193
     13 C           4.4283   -1.4261   -0.9798 C.ar    1  UNL1       -0.0065
     14 C           3.4128   -1.7149   -1.9060 C.ar    1  UNL1       -0.0532
     15 C           3.5982   -1.4862   -3.2778 C.ar    1  UNL1       -0.0401
     16 C           4.7969   -0.9608   -3.7728 C.ar    1  UNL1        0.0336
     17 N           4.9518   -0.7699   -5.1496 N.pl3   1  UNL1       -0.2835
     18 C           5.8383    0.0314   -5.8745 C.ar    1  UNL1        0.2254
     19 N           6.8694    0.6173   -5.2860 N.ar    1  UNL1       -0.1806
     20 C           7.6055    1.4316   -6.0203 C.ar    1  UNL1        0.2237
     21 N           7.3370    1.6585   -7.2978 N.ar    1  UNL1       -0.1807
     22 C           6.2962    1.0361   -7.8356 C.ar    1  UNL1        0.2237
     23 N           5.5309    0.1966   -7.1510 N.ar    1  UNL1       -0.1806
     24 N           5.9704    1.3046   -9.1444 N.pl3   1  UNL1       -0.2995
     25 C           6.7429    2.2552   -9.9281 C.3     1  UNL1        0.0149
     26 C           5.7939    3.2846  -10.5425 C.3     1  UNL1       -0.0371
     27 C           4.6499    2.6129  -11.3028 C.3     1  UNL1       -0.0502
     28 C           3.9325    1.5788  -10.4349 C.3     1  UNL1       -0.0371
     29 C           4.9151    0.5767   -9.8283 C.3     1  UNL1        0.0149
     30 N           8.6857    2.0529   -5.4387 N.pl3   1  UNL1       -0.2995
     31 C           9.5006    2.9973   -6.1829 C.3     1  UNL1        0.0149
     32 C          10.9659    2.5783   -6.0532 C.3     1  UNL1       -0.0371
     33 C          11.3812    2.4043   -4.5911 C.3     1  UNL1       -0.0502
     34 C          10.4156    1.4925   -3.8327 C.3     1  UNL1       -0.0371
     35 C           8.9640    1.9363   -4.0162 C.3     1  UNL1        0.0149
     36 C           5.7911   -0.6540   -2.8457 C.ar    1  UNL1       -0.0401
     37 C           5.6139   -0.8683   -1.4801 C.ar    1  UNL1       -0.0532
     38 H           4.4457   -3.9283    0.0247 H       1  UNL1        0.0270
     39 H           6.0163   -3.1959    0.3758 H       1  UNL1        0.0270
     40 H           4.8941   -3.5525    1.6939 H       1  UNL1        0.0270
     41 H           6.0413   -0.9024    1.3938 H       1  UNL1        0.1514
     42 H           3.0671    2.7067    1.6159 H       1  UNL1        0.0626
     43 H           0.5863    2.8596    1.5080 H       1  UNL1        0.0618
     44 H          -0.7701    0.7925    1.2802 H       1  UNL1        0.0618
     45 H           0.3305   -1.4069    1.0661 H       1  UNL1        0.0636
     46 H           2.3951   -2.5575    0.5759 H       1  UNL1        0.1484
     47 H           2.4616   -2.1283   -1.5835 H       1  UNL1        0.0622
     48 H           2.7857   -1.7264   -3.9594 H       1  UNL1        0.0636
     49 H           4.1793   -1.0286   -5.7445 H       1  UNL1        0.1550
     50 H           7.2765    1.7169  -10.7207 H       1  UNL1        0.0464
     51 H           7.5016    2.7946   -9.3510 H       1  UNL1        0.0464
     52 H           6.3485    3.9455  -11.2169 H       1  UNL1        0.0280
     53 H           5.3743    3.9135   -9.7471 H       1  UNL1        0.0280
     54 H           3.9351    3.3711  -11.6396 H       1  UNL1        0.0266
     55 H           5.0480    2.1221  -12.2001 H       1  UNL1        0.0266
     56 H           3.3958    2.0961   -9.6294 H       1  UNL1        0.0280
     57 H           3.1844    1.0513  -11.0334 H       1  UNL1        0.0280
     58 H           4.3566   -0.1095   -9.1817 H       1  UNL1        0.0464
     59 H           5.3604   -0.0360  -10.6218 H       1  UNL1        0.0464
     60 H           9.3590    4.0031   -5.7675 H       1  UNL1        0.0464
     61 H           9.2477    3.0599   -7.2467 H       1  UNL1        0.0464
     62 H          11.6078    3.3256   -6.5345 H       1  UNL1        0.0280
     63 H          11.1174    1.6310   -6.5841 H       1  UNL1        0.0280
     64 H          12.3938    1.9884   -4.5430 H       1  UNL1        0.0266
     65 H          11.4118    3.3854   -4.1022 H       1  UNL1        0.0266
     66 H          10.5285    0.4638   -4.1980 H       1  UNL1        0.0280
     67 H          10.6717    1.4850   -2.7670 H       1  UNL1        0.0280
     68 H           8.3186    1.2268   -3.4930 H       1  UNL1        0.0464
     69 H           8.8071    2.9096   -3.5344 H       1  UNL1        0.0464
     70 H           6.7488   -0.2617   -3.1622 H       1  UNL1        0.0636
     71 H           6.4368   -0.6032   -0.8202 H       1  UNL1        0.0622
@<TRIPOS>BOND
     1     1    38    1
     2     1    39    1
     3     1    40    1
     4     2     1    1
     5     3     2    1
     6     3    41    1
     7     4     3   am
     8     5     4    2
     9     6     4    1
    10     7     6   ar
    11     7    42    1
    12     8     7   ar
    13     8    43    1
    14     9     8   ar
    15     9    44    1
    16    10     9   ar
    17    10    45    1
    18    11    10   ar
    19    11     6   ar
    20    12    11    1
    21    12     2    1
    22    12    46    1
    23    13     2    1
    24    14    13   ar
    25    14    47    1
    26    15    14   ar
    27    15    48    1
    28    16    15   ar
    29    17    16    1
    30    17    49    1
    31    18    17    1
    32    19    18   ar
    33    20    19   ar
    34    21    20   ar
    35    22    21   ar
    36    23    22   ar
    37    23    18   ar
    38    24    22    1
    39    25    24    1
    40    25    50    1
    41    25    51    1
    42    26    25    1
    43    26    52    1
    44    26    53    1
    45    27    26    1
    46    27    54    1
    47    27    55    1
    48    28    27    1
    49    28    56    1
    50    28    57    1
    51    29    28    1
    52    29    24    1
    53    29    58    1
    54    29    59    1
    55    30    20    1
    56    31    30    1
    57    31    60    1
    58    31    61    1
    59    32    31    1
    60    32    62    1
    61    32    63    1
    62    33    32    1
    63    33    64    1
    64    33    65    1
    65    34    33    1
    66    34    66    1
    67    34    67    1
    68    35    34    1
    69    35    30    1
    70    35    68    1
    71    35    69    1
    72    36    16   ar
    73    36    70    1
    74    37    36   ar
    75    37    13   ar
    76    37    71    1
