@<TRIPOS>MOLECULE
mol_481_akc_jmm0058115_0
>465.sdf
 43 45 0 0 0
SMALL
GASTEIGER

@<TRIPOS>ATOM
      1 O           2.5735    1.8941    1.8209 O.3     1  UNL1       -0.3815
      2 C           2.3794    0.5894    2.3728 C.3     1  UNL1        0.1232
      3 C           3.2529   -0.4723    1.6174 C.3     1  UNL1        0.0081
      4 C           2.8721   -0.8024    0.1704 C.3     1  UNL1       -0.0068
      5 C           3.2213    0.2947   -0.8280 C.3     1  UNL1       -0.0431
      6 C           4.6934    0.6803   -0.7404 C.3     1  UNL1       -0.0124
      7 C           5.1282    1.0223    0.6725 C.3     1  UNL1       -0.0333
      8 N           4.7262   -0.0673    1.6214 N.4     1  UNL1        0.2312
      9 C           0.8931    0.2707    2.4726 C.ar    1  UNL1       -0.0026
     10 C           0.3572   -0.5820    3.4829 C.ar    1  UNL1        0.0068
     11 C           1.1492   -1.2637    4.4398 C.ar    1  UNL1       -0.0522
     12 C           0.5737   -2.0694    5.4193 C.ar    1  UNL1       -0.0605
     13 C          -0.8033   -2.2079    5.4669 C.ar    1  UNL1       -0.0480
     14 C          -1.6158   -1.5430    4.5324 C.ar    1  UNL1        0.0807
     15 C          -1.0512   -0.7384    3.5434 C.ar    1  UNL1        0.0836
     16 N          -1.8662   -0.1173    2.6800 N.ar    1  UNL1       -0.2421
     17 C          -1.3683    0.6900    1.7108 C.ar    1  UNL1        0.1446
     18 C           0.0010    0.8812    1.5724 C.ar    1  UNL1       -0.0252
     19 C          -2.3244    1.4333    0.7797 C.3     1  UNL1        0.4342
     20 F          -3.6411    1.2630    1.0659 F       1  UNL1       -0.1644
     21 F          -2.1020    2.7804    0.8030 F       1  UNL1       -0.1644
     22 F          -2.1608    1.0606   -0.5220 F       1  UNL1       -0.1644
     23 C          -3.1166   -1.6838    4.6077 C.3     1  UNL1        0.4194
     24 F          -3.5110   -2.5144    5.6193 F       1  UNL1       -0.1658
     25 F          -3.7557   -0.5061    4.8465 F       1  UNL1       -0.1658
     26 F          -3.6667   -2.2127    3.4807 F       1  UNL1       -0.1658
     27 H           2.0164    2.5170    2.3292 H       1  UNL1        0.2105
     28 H           2.7761    0.6780    3.3912 H       1  UNL1        0.0701
     29 H           3.2210   -1.4049    2.1932 H       1  UNL1        0.0880
     30 H           1.8079   -1.0521    0.0958 H       1  UNL1        0.0321
     31 H           3.4117   -1.7128   -0.1253 H       1  UNL1        0.0321
     32 H           3.0014   -0.0561   -1.8434 H       1  UNL1        0.0269
     33 H           2.5915    1.1746   -0.6600 H       1  UNL1        0.0269
     34 H           5.3060   -0.1496   -1.1150 H       1  UNL1        0.0317
     35 H           4.8884    1.5338   -1.3992 H       1  UNL1        0.0317
     36 H           6.2187    1.0974    0.7348 H       1  UNL1        0.0814
     37 H           4.7143    1.9679    1.0256 H       1  UNL1        0.0814
     38 H           5.2953   -0.8977    1.4078 H       1  UNL1        0.2017
     39 H           5.0007    0.2264    2.5674 H       1  UNL1        0.2017
     40 H           2.2309   -1.1808    4.4571 H       1  UNL1        0.0624
     41 H           1.1948   -2.5818    6.1512 H       1  UNL1        0.0618
     42 H          -1.2528   -2.8301    6.2415 H       1  UNL1        0.0624
     43 H           0.3581    1.5361    0.7791 H       1  UNL1        0.0642
@<TRIPOS>UNITY_ATOM_ATTR
8 1
charge 1
@<TRIPOS>BOND
     1     1    27    1
     2     4     3    1
     3     4    30    1
     4     4    31    1
     5     5     4    1
     6     5    32    1
     7     5    33    1
     8     6     5    1
     9     6    34    1
    10     6    35    1
    11     7     6    1
    12     7    36    1
    13     7    37    1
    14     8     7    1
    15     8     3    1
    16     8    38    1
    17     8    39    1
    18     9     2    1
    19    10     9   ar
    20    11    10   ar
    21    11    40    1
    22    12    11   ar
    23    12    41    1
    24    13    12   ar
    25    13    42    1
    26    14    13   ar
    27    15    14   ar
    28    15    10   ar
    29    16    15   ar
    30    17    16   ar
    31    18    17   ar
    32    18     9   ar
    33    18    43    1
    34    19    17    1
    35    20    19    1
    36    21    19    1
    37    22    19    1
    38    23    14    1
    39    24    23    1
    40    25    23    1
    41    26    23    1
    42     2    28    1
    43     2     1    1
    44     3    29    1
    45     3     2    1
