@<TRIPOS>MOLECULE
mol_482_akc_jmm0058115_0
>466.sdf
 49 50 0 0 0
SMALL
GASTEIGER

@<TRIPOS>ATOM
      1 C           9.6544   -6.6824    4.8054 C.3     1  UNL1       -0.0245
      2 C           8.6758   -7.1168    3.7333 C.3     1  UNL1       -0.0348
      3 N           9.0913   -6.6674    2.3454 N.4     1  UNL1        0.2348
      4 C          10.4914   -7.0789    1.9202 C.3     1  UNL1       -0.0348
      5 C          10.6404   -8.5793    1.7418 C.3     1  UNL1       -0.0245
      6 C           8.0496   -7.0008    1.2919 C.3     1  UNL1       -0.0319
      7 C           6.7113   -6.2930    1.5318 C.3     1  UNL1       -0.0109
      8 C           6.7362   -4.7565    1.6065 C.3     1  UNL1       -0.0300
      9 C           7.0881   -4.0048    0.3080 C.3     1  UNL1        0.0180
     10 C           6.1823   -4.4197   -0.8564 C.3     1  UNL1       -0.0467
     11 N           8.4933   -4.2665   -0.0559 N.pl3   1  UNL1       -0.3407
     12 C           9.4459   -3.2133    0.0756 C.ar    1  UNL1        0.0380
     13 C          10.5995   -3.1707   -0.7736 C.ar    1  UNL1        0.0213
     14 C          10.8002   -3.9970   -1.9104 C.ar    1  UNL1       -0.0494
     15 C          11.9694   -3.9287   -2.6678 C.ar    1  UNL1       -0.0426
     16 C          12.9637   -3.0368   -2.3013 C.ar    1  UNL1        0.0430
     17 CL         14.4390   -2.9924   -3.1814 Cl      1  UNL1       -0.0835
     18 C          12.7719   -2.1849   -1.2175 C.ar    1  UNL1       -0.0173
     19 C          11.6102   -2.2234   -0.4632 C.ar    1  UNL1        0.0741
     20 N          11.5021   -1.3594    0.5477 N.ar    1  UNL1       -0.2548
     21 C          10.3976   -1.3888    1.3079 C.ar    1  UNL1        0.0300
     22 C           9.3780   -2.3064    1.1372 C.ar    1  UNL1       -0.0221
     23 H           9.1939   -6.8086    5.7915 H       1  UNL1        0.0281
     24 H          10.5613   -7.2935    4.7926 H       1  UNL1        0.0281
     25 H           9.9314   -5.6296    4.6961 H       1  UNL1        0.0281
     26 H           8.5381   -8.2023    3.7179 H       1  UNL1        0.0812
     27 H           7.7152   -6.6438    3.9499 H       1  UNL1        0.0812
     28 H           9.1423   -5.6382    2.3524 H       1  UNL1        0.2033
     29 H          10.7077   -6.5537    0.9832 H       1  UNL1        0.0812
     30 H          11.1873   -6.6991    2.6735 H       1  UNL1        0.0812
     31 H          10.2653   -9.1444    2.5992 H       1  UNL1        0.0281
     32 H          10.1186   -8.9255    0.8440 H       1  UNL1        0.0281
     33 H          11.6989   -8.8328    1.6189 H       1  UNL1        0.0281
     34 H           8.4676   -6.7440    0.3149 H       1  UNL1        0.0814
     35 H           7.9033   -8.0866    1.3176 H       1  UNL1        0.0814
     36 H           6.0104   -6.6136    0.7532 H       1  UNL1        0.0317
     37 H           6.2624   -6.6691    2.4586 H       1  UNL1        0.0317
     38 H           5.7318   -4.4339    1.9125 H       1  UNL1        0.0285
     39 H           7.4030   -4.4357    2.4148 H       1  UNL1        0.0285
     40 H           6.9106   -2.9342    0.4657 H       1  UNL1        0.0495
     41 H           6.4410   -3.8613   -1.7628 H       1  UNL1        0.0247
     42 H           6.2842   -5.4818   -1.1013 H       1  UNL1        0.0247
     43 H           5.1325   -4.2179   -0.6211 H       1  UNL1        0.0247
     44 H           8.5321   -4.6038   -1.0167 H       1  UNL1        0.1464
     45 H          10.0395   -4.6938   -2.2516 H       1  UNL1        0.0625
     46 H          12.0964   -4.5668   -3.5385 H       1  UNL1        0.0632
     47 H          13.5480   -1.4702   -0.9492 H       1  UNL1        0.0653
     48 H          10.3591   -0.6437    2.0959 H       1  UNL1        0.0830
     49 H           8.5490   -2.2810    1.8330 H       1  UNL1        0.0651
@<TRIPOS>UNITY_ATOM_ATTR
3 1
charge 1
@<TRIPOS>BOND
     1     1    23    1
     2     1    24    1
     3     1    25    1
     4     2     1    1
     5     2    26    1
     6     2    27    1
     7     3     2    1
     8     3    28    1
     9     4     3    1
    10     4    29    1
    11     4    30    1
    12     5     4    1
    13     5    31    1
    14     5    32    1
    15     5    33    1
    16     6     3    1
    17     6    34    1
    18     6    35    1
    19     7     6    1
    20     7    36    1
    21     7    37    1
    22     8     7    1
    23     8    38    1
    24     8    39    1
    25    10     9    1
    26    10    41    1
    27    10    42    1
    28    10    43    1
    29    11     9    1
    30    11    44    1
    31    12    11    1
    32    13    12   ar
    33    14    13   ar
    34    14    45    1
    35    15    14   ar
    36    15    46    1
    37    16    15   ar
    38    17    16    1
    39    18    16   ar
    40    18    47    1
    41    19    18   ar
    42    19    13   ar
    43    20    19   ar
    44    21    20   ar
    45    21    48    1
    46    22    21   ar
    47    22    12   ar
    48    22    49    1
    49     9    40    1
    50     9     8    1
