@<TRIPOS>MOLECULE
mol_484_akc_cbdd12123
>468.sdf
 24 26 0 0 0
SMALL
GASTEIGER

@<TRIPOS>ATOM
      1 N           1.2573   -0.5067   -0.1454 N.pl3   1  UNL1       -0.3375
      2 C           2.5566   -0.1779   -0.0779 C.ar    1  UNL1        0.1568
      3 N           3.5222   -1.0595   -0.0332 N.ar    1  UNL1       -0.2244
      4 C           4.7627   -0.4191   -0.0070 C.ar    1  UNL1        0.0917
      5 C           4.6921    0.9753   -0.0030 C.ar    1  UNL1        0.0863
      6 S           3.0419    1.4601   -0.0324 S.2     1  UNL1       -0.0488
      7 C           5.8490    1.7584    0.0175 C.ar    1  UNL1        0.1750
      8 O           5.7878    3.1346    0.0213 O.3     1  UNL1       -0.5025
      9 C           7.1044    1.1390    0.0257 C.ar    1  UNL1        0.1674
     10 O           8.1688    2.0122    0.0347 O.3     1  UNL1       -0.5029
     11 C           7.2404   -0.2628    0.0214 C.ar    1  UNL1        0.0293
     12 C           6.0527   -1.0416    0.0100 C.ar    1  UNL1        0.0124
     13 C           6.1252   -2.4507    0.0078 C.ar    1  UNL1       -0.0518
     14 C           7.3597   -3.0982    0.0135 C.ar    1  UNL1       -0.0611
     15 C           8.5320   -2.3526    0.0214 C.ar    1  UNL1       -0.0611
     16 C           8.4778   -0.9546    0.0261 C.ar    1  UNL1       -0.0504
     17 H           1.0140   -1.4596    0.0991 H       1  UNL1        0.1442
     18 H           0.5691    0.1909    0.1087 H       1  UNL1        0.1442
     19 H           6.7233    3.4211    0.0263 H       1  UNL1        0.2923
     20 H           8.9976    1.5096    0.0173 H       1  UNL1        0.2923
     21 H           5.2135   -3.0462   -0.0006 H       1  UNL1        0.0624
     22 H           7.4038   -4.1839    0.0097 H       1  UNL1        0.0618
     23 H           9.4956   -2.8565    0.0225 H       1  UNL1        0.0618
     24 H           9.4257   -0.4272    0.0333 H       1  UNL1        0.0625
@<TRIPOS>BOND
     1     1    17    1
     2     1    18    1
     3     2     1    1
     4     3     2   ar
     5     4     3   ar
     6     5     4   ar
     7     6     5   ar
     8     6     2   ar
     9     7     5   ar
    10     8     7    1
    11     8    19    1
    12     9     7   ar
    13    10     9    1
    14    10    20    1
    15    11     9   ar
    16    12    11   ar
    17    12     4   ar
    18    13    12   ar
    19    13    21    1
    20    14    13   ar
    21    14    22    1
    22    15    14   ar
    23    15    23    1
    24    16    15   ar
    25    16    11   ar
    26    16    24    1
