@<TRIPOS>MOLECULE
mol_485_akc_jbmcl201303055
>469.sdf
 64 68 0 0 0
SMALL
GASTEIGER

@<TRIPOS>ATOM
      1 C           0.4722   -0.4235    0.3516 C.3     1  UNL1       -0.0432
      2 C           1.0833    0.8824   -0.0810 C.2     1  UNL1       -0.0692
      3 C           2.3463    0.9413   -0.5441 C.2     1  UNL1       -0.0844
      4 C           3.0207    2.2001   -1.0041 C.3     1  UNL1       -0.0340
      5 C           2.2254    3.4758   -0.7164 C.3     1  UNL1       -0.0436
      6 C           0.6994    3.2910   -0.8987 C.3     1  UNL1       -0.0247
      7 C           0.3824    2.9670   -2.3795 C.3     1  UNL1       -0.0590
      8 C          -0.0080    4.6261   -0.5763 C.3     1  UNL1       -0.0590
      9 C           0.1953    2.1194    0.0249 C.3     1  UNL1        0.0034
     10 C           0.1176    2.5274    1.4855 C.2     1  UNL1       -0.0747
     11 C          -1.0160    2.5460    2.2025 C.2     1  UNL1       -0.0422
     12 C          -1.0586    3.0032    3.6079 C.2     1  UNL1        0.0614
     13 N          -2.1525    3.0015    4.3028 N.2     1  UNL1       -0.1837
     14 N          -1.8549    3.5270    5.5292 N.pl3   1  UNL1       -0.2165
     15 C          -0.4543    3.9392    5.6530 C.3     1  UNL1        0.0766
     16 C           0.1657    3.4778    4.3374 C.3     1  UNL1        0.0157
     17 C          -0.2679    5.4343    5.8740 C.ar    1  UNL1       -0.0247
     18 C           0.8430    5.8809    6.6086 C.ar    1  UNL1       -0.0547
     19 C           1.0081    7.2356    6.9148 C.ar    1  UNL1       -0.0359
     20 C           0.0607    8.1728    6.4858 C.ar    1  UNL1        0.0671
     21 C          -1.0227    7.7444    5.7038 C.ar    1  UNL1       -0.0359
     22 C          -1.1793    6.3880    5.3963 C.ar    1  UNL1       -0.0547
     23 N           0.1628    9.5378    6.8574 N.ar    1  UNL1       -0.2203
     24 C           1.1339   10.1562    7.6093 C.ar    1  UNL1        0.1199
     25 N           0.8417   11.4230    7.7965 N.ar    1  UNL1       -0.2224
     26 C          -0.3357   11.5566    7.1253 C.ar    1  UNL1        0.1384
     27 N          -0.7811   10.4540    6.5221 N.ar    1  UNL1       -0.1536
     28 C          -2.7407    3.3789    6.5990 C.ar    1  UNL1        0.0522
     29 C          -3.9511    2.6825    6.4397 C.ar    1  UNL1       -0.0389
     30 C          -4.8663    2.5382    7.4881 C.ar    1  UNL1       -0.0600
     31 C          -4.5959    3.1033    8.7285 C.ar    1  UNL1       -0.0616
     32 C          -3.4087    3.8004    8.9188 C.ar    1  UNL1       -0.0600
     33 C          -2.4930    3.9295    7.8672 C.ar    1  UNL1       -0.0389
     34 H           0.3227   -0.4377    1.4358 H       1  UNL1        0.0275
     35 H          -0.4957   -0.5748   -0.1368 H       1  UNL1        0.0275
     36 H           1.1064   -1.2778    0.0911 H       1  UNL1        0.0275
     37 H           2.9407    0.0325   -0.6141 H       1  UNL1        0.0572
     38 H           4.0044    2.2782   -0.5268 H       1  UNL1        0.0308
     39 H           3.2021    2.1169   -2.0825 H       1  UNL1        0.0308
     40 H           2.4387    3.7966    0.3118 H       1  UNL1        0.0274
     41 H           2.5972    4.2827   -1.3608 H       1  UNL1        0.0274
     42 H          -0.6999    2.9056   -2.5417 H       1  UNL1        0.0235
     43 H           0.7718    3.7486   -3.0422 H       1  UNL1        0.0235
     44 H           0.8127    2.0163   -2.7079 H       1  UNL1        0.0235
     45 H           0.2912    5.4083   -1.2841 H       1  UNL1        0.0235
     46 H          -1.0969    4.5211   -0.6391 H       1  UNL1        0.0235
     47 H           0.2409    4.9936    0.4249 H       1  UNL1        0.0235
     48 H          -0.8107    1.8451   -0.3231 H       1  UNL1        0.0393
     49 H           1.0600    2.8242    1.9342 H       1  UNL1        0.0579
     50 H          -1.9693    2.2441    1.7816 H       1  UNL1        0.0633
     51 H           0.0178    3.3919    6.4800 H       1  UNL1        0.0573
     52 H           0.6882    4.2633    3.7847 H       1  UNL1        0.0351
     53 H           0.8347    2.6247    4.4959 H       1  UNL1        0.0351
     54 H           1.5764    5.1667    6.9799 H       1  UNL1        0.0622
     55 H           1.8692    7.5136    7.5150 H       1  UNL1        0.0639
     56 H          -1.7723    8.4500    5.3476 H       1  UNL1        0.0639
     57 H          -2.0468    6.0764    4.8145 H       1  UNL1        0.0622
     58 H           2.0093    9.6538    7.9923 H       1  UNL1        0.1048
     59 H          -0.8855   12.4868    7.0756 H       1  UNL1        0.1066
     60 H          -4.1898    2.2353    5.4772 H       1  UNL1        0.0637
     61 H          -5.7891    1.9891    7.3250 H       1  UNL1        0.0618
     62 H          -5.3098    3.0054    9.5413 H       1  UNL1        0.0618
     63 H          -3.1932    4.2567    9.8812 H       1  UNL1        0.0618
     64 H          -1.5894    4.4970    8.0628 H       1  UNL1        0.0637
@<TRIPOS>BOND
     1     1    34    1
     2     1    35    1
     3     1    36    1
     4     2     1    1
     5     3     2    2
     6     3    37    1
     7     4     3    1
     8     4    38    1
     9     4    39    1
    10     5     4    1
    11     5    40    1
    12     5    41    1
    13     6     5    1
    14     7     6    1
    15     7    42    1
    16     7    43    1
    17     7    44    1
    18     8     6    1
    19     8    45    1
    20     8    46    1
    21     8    47    1
    22     9     6    1
    23     9     2    1
    24     9    48    1
    25    10     9    1
    26    10    49    1
    27    11    10    2
    28    11    50    1
    29    12    11    1
    30    13    12    2
    31    14    13    1
    32    15    14    1
    33    16    15    1
    34    16    12    1
    35    16    52    1
    36    16    53    1
    37    18    17   ar
    38    18    54    1
    39    19    18   ar
    40    19    55    1
    41    20    19   ar
    42    21    20   ar
    43    21    56    1
    44    22    21   ar
    45    22    17   ar
    46    22    57    1
    47    23    20    1
    48    24    23   ar
    49    24    58    1
    50    25    24   ar
    51    26    25   ar
    52    26    59    1
    53    27    26   ar
    54    27    23   ar
    55    28    14    1
    56    29    28   ar
    57    29    60    1
    58    30    29   ar
    59    30    61    1
    60    31    30   ar
    61    31    62    1
    62    32    31   ar
    63    32    63    1
    64    33    32   ar
    65    33    28   ar
    66    33    64    1
    67    15    17    1
    68    15    51    1
