@<TRIPOS>MOLECULE
mol_488_akc_s00044_012_0213_9
>472.sdf
 39 42 0 0 0
SMALL
GASTEIGER

@<TRIPOS>ATOM
      1 C          -1.9132   -2.6565   -1.3388 C.3     1  UNL1       -0.0046
      2 C          -2.2499   -1.2189   -1.0204 C.ar    1  UNL1        0.1281
      3 N          -3.3185   -0.7199   -1.5630 N.ar    1  UNL1       -0.2322
      4 C          -3.6486    0.6131   -1.2773 C.ar    1  UNL1        0.0783
      5 C          -4.8217    1.1450   -1.8195 C.ar    1  UNL1       -0.0355
      6 C          -5.1964    2.4646   -1.5499 C.ar    1  UNL1       -0.0597
      7 C          -4.4015    3.2653   -0.7289 C.ar    1  UNL1       -0.0609
      8 C          -3.2201    2.7523   -0.1941 C.ar    1  UNL1       -0.0473
      9 C          -2.8505    1.4344   -0.4799 C.ar    1  UNL1        0.0664
     10 C          -1.5803    0.8772    0.0165 C.ar    1  UNL1        0.2789
     11 O          -0.7326    1.6122    0.5156 O.2     1  UNL1       -0.2653
     12 N          -1.4076   -0.4873   -0.2076 N.ar    1  UNL1       -0.2097
     13 N          -0.1956   -1.0441    0.2290 N.am    1  UNL1       -0.2168
     14 C           0.0622   -1.1281    1.5929 C.2     1  UNL1        0.2592
     15 O          -0.8005   -1.0509    2.4625 O.2     1  UNL1       -0.2716
     16 C           1.5439   -1.3731    1.8881 C.3     1  UNL1        0.1625
     17 N           2.2469   -1.8719    0.6379 N.pl3   1  UNL1       -0.3263
     18 C           3.3626   -1.0075    0.5060 C.ar    1  UNL1        0.0387
     19 C           4.3350   -1.1211   -0.4717 C.ar    1  UNL1       -0.0401
     20 C           5.3687   -0.1771   -0.5005 C.ar    1  UNL1       -0.0600
     21 C           5.4183    0.8670    0.4400 C.ar    1  UNL1       -0.0610
     22 C           4.4329    0.9834    1.4214 C.ar    1  UNL1       -0.0494
     23 C           3.4232    0.0380    1.4205 C.ar    1  UNL1        0.0406
     24 C           2.3016   -0.1292    2.3261 C.2     1  UNL1        0.1940
     25 O           2.0967    0.5929    3.2864 O.2     1  UNL1       -0.2895
     26 H          -1.6735   -2.7296   -2.4047 H       1  UNL1        0.0308
     27 H          -2.7905   -3.2802   -1.1415 H       1  UNL1        0.0308
     28 H          -1.0749   -3.0527   -0.7651 H       1  UNL1        0.0308
     29 H          -5.4452    0.5241   -2.4584 H       1  UNL1        0.0639
     30 H          -6.1110    2.8654   -1.9801 H       1  UNL1        0.0618
     31 H          -4.6985    4.2882   -0.5114 H       1  UNL1        0.0618
     32 H          -2.5930    3.3743    0.4412 H       1  UNL1        0.0626
     33 H           0.6095   -0.9287   -0.3820 H       1  UNL1        0.1759
     34 H           1.6368   -2.1444    2.6612 H       1  UNL1        0.0679
     35 H           2.5642   -2.8382    0.7339 H       1  UNL1        0.1472
     36 H           4.2983   -1.9159   -1.2102 H       1  UNL1        0.0636
     37 H           6.1420   -0.2500   -1.2632 H       1  UNL1        0.0618
     38 H           6.2317    1.5888    0.3996 H       1  UNL1        0.0618
     39 H           4.4557    1.7789    2.1589 H       1  UNL1        0.0625
@<TRIPOS>BOND
     1     1    26    1
     2     1    27    1
     3     1    28    1
     4     2     1    1
     5     3     2   ar
     6     4     3   ar
     7     5     4   ar
     8     5    29    1
     9     6     5   ar
    10     6    30    1
    11     7     6   ar
    12     7    31    1
    13     8     7   ar
    14     8    32    1
    15     9     8   ar
    16     9     4   ar
    17    10     9   ar
    18    11    10    2
    19    12    10   ar
    20    12     2   ar
    21    13    12    1
    22    13    33    1
    23    14    13   am
    24    15    14    2
    25    16    14    1
    26    16    34    1
    27    17    16    1
    28    17    35    1
    29    18    17    1
    30    19    18   ar
    31    19    36    1
    32    20    19   ar
    33    20    37    1
    34    21    20   ar
    35    21    38    1
    36    22    21   ar
    37    22    39    1
    38    23    22   ar
    39    23    18   ar
    40    24    23    1
    41    24    16    1
    42    25    24    2
