@<TRIPOS>MOLECULE
mol_489_akc_s00044_012_0213_9
>473.sdf
 40 43 0 0 0
SMALL
GASTEIGER

@<TRIPOS>ATOM
      1 C           1.0409   -5.2422    1.0429 C.3     1  UNL1       -0.0044
      2 C           2.3579   -5.0687    0.3258 C.ar    1  UNL1        0.1320
      3 N           3.0782   -6.1466    0.2280 N.ar    1  UNL1       -0.2320
      4 C           4.3966   -6.0382   -0.2204 C.ar    1  UNL1        0.0783
      5 C           5.2096   -7.1741   -0.1871 C.ar    1  UNL1       -0.0355
      6 C           6.5769   -7.0800   -0.4594 C.ar    1  UNL1       -0.0597
      7 C           7.1415   -5.8458   -0.7725 C.ar    1  UNL1       -0.0609
      8 C           6.3325   -4.7118   -0.8455 C.ar    1  UNL1       -0.0473
      9 C           4.9601   -4.8177   -0.5770 C.ar    1  UNL1        0.0667
     10 C           4.0822   -3.6345   -0.5993 C.ar    1  UNL1        0.2822
     11 O           4.5481   -2.5611   -0.9789 O.2     1  UNL1       -0.2651
     12 N           2.7607   -3.8303   -0.1532 N.ar    1  UNL1       -0.1797
     13 N           2.1042   -2.6467    0.1099 N.2     1  UNL1       -0.1364
     14 C           0.9164   -2.3397   -0.3181 C.ar    1  UNL1        0.1989
     15 S          -0.1665   -3.3842   -1.2685 S.2     1  UNL1       -0.0542
     16 C          -1.5200   -2.3630   -0.8702 C.ar    1  UNL1        0.0174
     17 C          -1.1572   -1.2017   -0.2861 C.ar    1  UNL1        0.1094
     18 N          -2.0933   -0.2327    0.0222 N.pl3   1  UNL1       -0.3437
     19 N           0.2394   -1.1333   -0.0658 N.ar    1  UNL1       -0.2752
     20 C           0.9593    0.0868    0.1409 C.ar    1  UNL1        0.0502
     21 C           0.4908    1.1037    0.9873 C.ar    1  UNL1       -0.0377
     22 C           1.1688    2.3238    1.1054 C.ar    1  UNL1       -0.0598
     23 C           2.3449    2.5446    0.3962 C.ar    1  UNL1       -0.0616
     24 C           2.8524    1.5411   -0.4245 C.ar    1  UNL1       -0.0598
     25 C           2.1662    0.3290   -0.5482 C.ar    1  UNL1       -0.0377
     26 H           0.3118   -5.6867    0.3591 H       1  UNL1        0.0308
     27 H           1.1771   -5.9506    1.8669 H       1  UNL1        0.0308
     28 H           0.6596   -4.3150    1.4691 H       1  UNL1        0.0308
     29 H           4.7776   -8.1304    0.0904 H       1  UNL1        0.0639
     30 H           7.2022   -7.9679   -0.3995 H       1  UNL1        0.0618
     31 H           8.2113   -5.7641   -0.9496 H       1  UNL1        0.0618
     32 H           6.7727   -3.7443   -1.0790 H       1  UNL1        0.0626
     33 H          -2.5351   -2.6456   -1.1157 H       1  UNL1        0.0728
     34 H          -1.7504    0.6991   -0.1986 H       1  UNL1        0.1437
     35 H          -3.0066   -0.3941   -0.3923 H       1  UNL1        0.1437
     36 H          -0.4035    0.9516    1.5868 H       1  UNL1        0.0638
     37 H           0.7798    3.0991    1.7595 H       1  UNL1        0.0618
     38 H           2.8740    3.4889    0.4869 H       1  UNL1        0.0618
     39 H           3.7765    1.6943   -0.9718 H       1  UNL1        0.0618
     40 H           2.5899   -0.4205   -1.2146 H       1  UNL1        0.0638
@<TRIPOS>BOND
     1     1    26    1
     2     1    27    1
     3     1    28    1
     4     2     1    1
     5     3     2   ar
     6     4     3   ar
     7     5     4   ar
     8     5    29    1
     9     6     5   ar
    10     6    30    1
    11     7     6   ar
    12     7    31    1
    13     8     7   ar
    14     8    32    1
    15     9     8   ar
    16     9     4   ar
    17    10     9   ar
    18    11    10    2
    19    12    10   ar
    20    12     2   ar
    21    13    12    1
    22    14    13    2
    23    15    14   ar
    24    16    15   ar
    25    16    33    1
    26    17    16   ar
    27    18    17    1
    28    18    34    1
    29    18    35    1
    30    19    17   ar
    31    19    14   ar
    32    20    19    1
    33    21    20   ar
    34    21    36    1
    35    22    21   ar
    36    22    37    1
    37    23    22   ar
    38    23    38    1
    39    24    23   ar
    40    24    39    1
    41    25    24   ar
    42    25    20   ar
    43    25    40    1
