@<TRIPOS>MOLECULE
mol_490_akc_cbdd12112
>474.sdf
 33 35 0 0 0
SMALL
GASTEIGER

@<TRIPOS>ATOM
      1 O           1.9904    0.1829    0.2910 O.3     1  UNL1       -0.5067
      2 C           0.7474    0.0074   -0.2414 C.ar    1  UNL1        0.1175
      3 C           0.0853   -1.2113   -0.1476 C.ar    1  UNL1       -0.0115
      4 C          -1.1918   -1.3388   -0.7068 C.ar    1  UNL1       -0.0020
      5 C          -1.9256   -2.6169   -0.6100 C.2     1  UNL1        0.0528
      6 N          -1.3769   -3.6579   -0.0720 N.2     1  UNL1       -0.1899
      7 N          -2.1393   -4.7814   -0.0150 N.pl3   1  UNL1       -0.2371
      8 C          -1.4620   -6.0323    0.0369 C.ar    1  UNL1        0.0589
      9 C          -2.1776   -7.2555    0.1494 C.ar    1  UNL1        0.0230
     10 C          -3.5907   -7.3560    0.2080 C.ar    1  UNL1       -0.0494
     11 C          -4.2221   -8.5962    0.3104 C.ar    1  UNL1       -0.0426
     12 C          -3.4518   -9.7490    0.3604 C.ar    1  UNL1        0.0430
     13 CL         -4.2169  -11.2845    0.4886 Cl      1  UNL1       -0.0835
     14 C          -2.0638   -9.6691    0.3151 C.ar    1  UNL1       -0.0173
     15 C          -1.4151   -8.4490    0.2168 C.ar    1  UNL1        0.0742
     16 N          -0.0763   -8.4677    0.1992 N.ar    1  UNL1       -0.2548
     17 C           0.5723   -7.2897    0.1399 C.ar    1  UNL1        0.0301
     18 C          -0.0645   -6.0703    0.0753 C.ar    1  UNL1       -0.0204
     19 C          -1.7926   -0.2570   -1.3575 C.ar    1  UNL1       -0.0529
     20 C          -1.1130    0.9600   -1.4437 C.ar    1  UNL1       -0.0577
     21 C           0.1581    1.0917   -0.8826 C.ar    1  UNL1       -0.0201
     22 H           2.2698   -0.6471    0.7127 H       1  UNL1        0.2921
     23 H           0.5440   -2.0568    0.3562 H       1  UNL1        0.0660
     24 H          -2.9508   -2.6429   -1.0205 H       1  UNL1        0.0851
     25 H          -3.0211   -4.8197   -0.5204 H       1  UNL1        0.1744
     26 H          -4.2147   -6.4671    0.1934 H       1  UNL1        0.0625
     27 H          -5.3068   -8.6537    0.3571 H       1  UNL1        0.0632
     28 H          -1.4649  -10.5753    0.3648 H       1  UNL1        0.0653
     29 H           1.6562   -7.3531    0.1443 H       1  UNL1        0.0830
     30 H           0.5251   -5.1616    0.0319 H       1  UNL1        0.0652
     31 H          -2.7814   -0.3473   -1.7988 H       1  UNL1        0.0624
     32 H          -1.5716    1.8082   -1.9461 H       1  UNL1        0.0619
     33 H           0.6892    2.0381   -0.9434 H       1  UNL1        0.0654
@<TRIPOS>BOND
     1     1    22    1
     2     2     1    1
     3     3     2   ar
     4     3    23    1
     5     4     3   ar
     6     5     4    1
     7     5    24    1
     8     6     5    2
     9     7     6    1
    10     7    25    1
    11     8     7    1
    12     9     8   ar
    13    10     9   ar
    14    10    26    1
    15    11    10   ar
    16    11    27    1
    17    12    11   ar
    18    13    12    1
    19    14    12   ar
    20    14    28    1
    21    15    14   ar
    22    15     9   ar
    23    16    15   ar
    24    17    16   ar
    25    17    29    1
    26    18    17   ar
    27    18     8   ar
    28    18    30    1
    29    19     4   ar
    30    19    31    1
    31    20    19   ar
    32    20    32    1
    33    21    20   ar
    34    21     2   ar
    35    21    33    1
