@<TRIPOS>MOLECULE
mol_491_akc_jejmech201301001
>475.sdf
 53 55 0 0 0
SMALL
GASTEIGER

@<TRIPOS>ATOM
      1 C          -1.5200    3.5317   -1.0220 C.3     1  UNL1        0.0493
      2 C          -0.6206    3.9624    0.1675 C.3     1  UNL1       -0.0156
      3 N          -1.3479    4.2741    1.4927 N.4     1  UNL1        0.2438
      4 C          -2.4948    5.3059    1.3094 C.3     1  UNL1        0.0094
      5 C          -2.3436    6.6612    2.0775 C.3     1  UNL1        0.0078
      6 N          -2.6684    6.6295    3.5518 N.4     1  UNL1        0.2351
      7 C          -1.6027    6.3982    4.5973 C.3     1  UNL1        0.0099
      8 C          -0.1866    6.2563    4.0860 C.ar    1  UNL1        0.0861
      9 C           0.6822    7.3320    4.0345 C.ar    1  UNL1       -0.0352
     10 C           1.9472    7.1337    3.4852 C.ar    1  UNL1       -0.0580
     11 C           2.3317    5.8666    3.0478 C.ar    1  UNL1       -0.0352
     12 C           1.4224    4.8229    3.1411 C.ar    1  UNL1        0.0861
     13 C           1.7892    3.4346    2.6457 C.3     1  UNL1        0.0099
     14 N           0.7999    2.2870    2.8463 N.4     1  UNL1        0.2351
     15 C          -0.6424    2.4276    3.2570 C.3     1  UNL1        0.0078
     16 C          -1.7109    2.9968    2.2491 C.3     1  UNL1        0.0094
     17 N           0.1445    5.0363    3.5677 N.ar    1  UNL1       -0.2459
     18 N          -1.0728    4.1715   -2.2652 N.pl3   1  UNL1       -0.3376
     19 C          -1.5988    5.4729   -2.4411 C.ar    1  UNL1        0.0456
     20 C          -0.9825    6.5888   -1.8666 C.ar    1  UNL1        0.0484
     21 N          -1.5527    7.8043   -1.7386 N.ar    1  UNL1       -0.2614
     22 C          -2.7280    7.9801   -2.3890 C.ar    1  UNL1        0.0277
     23 C          -3.4003    6.9587   -3.0464 C.ar    1  UNL1       -0.0419
     24 C          -2.8394    5.6820   -3.0357 C.ar    1  UNL1       -0.0379
     25 H          -2.5870    3.6999   -0.8422 H       1  UNL1        0.0514
     26 H          -1.4113    2.4460   -1.1498 H       1  UNL1        0.0514
     27 H           0.0808    3.1505    0.3807 H       1  UNL1        0.0830
     28 H          -0.0163    4.8489   -0.0387 H       1  UNL1        0.0830
     29 H          -0.6592    4.7578    2.0892 H       1  UNL1        0.2038
     30 H          -2.5220    5.5654    0.2529 H       1  UNL1        0.0868
     31 H          -3.4388    4.8061    1.5548 H       1  UNL1        0.0868
     32 H          -3.0828    7.3520    1.6547 H       1  UNL1        0.0867
     33 H          -1.3625    7.1183    1.9317 H       1  UNL1        0.0867
     34 H          -3.5066    6.0704    3.7679 H       1  UNL1        0.2019
     35 H          -3.0046    7.5896    3.7639 H       1  UNL1        0.2019
     36 H          -1.8859    5.4673    5.0995 H       1  UNL1        0.0882
     37 H          -1.6848    7.2076    5.3349 H       1  UNL1        0.0882
     38 H           0.4116    8.3185    4.4072 H       1  UNL1        0.0637
     39 H           2.6458    7.9695    3.4138 H       1  UNL1        0.0619
     40 H           3.3343    5.7280    2.6438 H       1  UNL1        0.0637
     41 H           2.7207    3.1061    3.1205 H       1  UNL1        0.0882
     42 H           1.9609    3.4826    1.5661 H       1  UNL1        0.0882
     43 H           1.2217    1.7733    3.6417 H       1  UNL1        0.2019
     44 H           0.9177    1.6022    2.0824 H       1  UNL1        0.2019
     45 H          -0.6662    2.9585    4.2129 H       1  UNL1        0.0867
     46 H          -0.9587    1.4033    3.4949 H       1  UNL1        0.0867
     47 H          -1.9828    2.2439    1.5030 H       1  UNL1        0.0868
     48 H          -2.6082    3.2272    2.8334 H       1  UNL1        0.0868
     49 H          -1.3547    3.6145   -3.0844 H       1  UNL1        0.1463
     50 H           0.0217    6.5279   -1.4724 H       1  UNL1        0.0848
     51 H          -3.1237    8.9910   -2.3803 H       1  UNL1        0.0829
     52 H          -4.3342    7.1570   -3.5605 H       1  UNL1        0.0633
     53 H          -3.3753    4.8683   -3.5286 H       1  UNL1        0.0637
@<TRIPOS>UNITY_ATOM_ATTR
3 1
charge 1
6 1
charge 1
14 1
charge 1
@<TRIPOS>BOND
     1     1    25    1
     2     1    26    1
     3     2     1    1
     4     2    27    1
     5     2    28    1
     6     3     2    1
     7     3    29    1
     8     4     3    1
     9     4    30    1
    10     4    31    1
    11     5     4    1
    12     5    32    1
    13     5    33    1
    14     6     5    1
    15     6    34    1
    16     6    35    1
    17     7     6    1
    18     7    36    1
    19     7    37    1
    20     8     7    1
    21     9     8   ar
    22     9    38    1
    23    10     9   ar
    24    10    39    1
    25    11    10   ar
    26    11    40    1
    27    12    11   ar
    28    13    12    1
    29    13    41    1
    30    13    42    1
    31    14    13    1
    32    14    43    1
    33    14    44    1
    34    15    14    1
    35    15    45    1
    36    15    46    1
    37    16    15    1
    38    16     3    1
    39    16    47    1
    40    16    48    1
    41    17    12   ar
    42    17     8   ar
    43    18     1    1
    44    18    49    1
    45    19    18    1
    46    20    19   ar
    47    20    50    1
    48    21    20   ar
    49    22    21   ar
    50    22    51    1
    51    23    22   ar
    52    23    52    1
    53    24    23   ar
    54    24    19   ar
    55    24    53    1
