@<TRIPOS>MOLECULE
mol_493_akc_s_0032_1328258
>477.sdf
 26 28 0 0 0
SMALL
GASTEIGER

@<TRIPOS>ATOM
      1 C           1.2202   -2.4997    0.0964 C.3     1  UNL1       -0.0334
      2 C           0.3147   -1.3288   -0.0678 C.ar    1  UNL1       -0.0127
      3 C           0.5877   -0.1051   -0.6397 C.ar    1  UNL1       -0.0512
      4 C          -0.5519    0.7525   -0.6440 C.ar    1  UNL1       -0.0462
      5 C          -1.6660    0.1646   -0.0730 C.ar    1  UNL1        0.0262
      6 S          -1.2986   -1.4156    0.4895 S.2     1  UNL1       -0.0930
      7 C          -2.9917    0.7203    0.0595 C.ar    1  UNL1        0.0265
      8 C          -3.9037    0.5040    1.0747 C.ar    1  UNL1       -0.0458
      9 C          -5.1301    1.2036    0.8700 C.ar    1  UNL1       -0.0458
     10 C          -5.1369    1.9355   -0.3024 C.ar    1  UNL1        0.0265
     11 S          -3.6432    1.7717   -1.1286 S.2     1  UNL1       -0.0872
     12 C          -6.2015    2.7598   -0.8252 C.ar    1  UNL1        0.0259
     13 C          -6.5184    2.9980   -2.1509 C.ar    1  UNL1       -0.0464
     14 C          -7.6238    3.8861   -2.3045 C.ar    1  UNL1       -0.0541
     15 C          -8.1213    4.3007   -1.0919 C.ar    1  UNL1       -0.0237
     16 S          -7.2712    3.6092    0.2191 S.2     1  UNL1       -0.0961
     17 H           1.3225   -2.7705    1.1522 H       1  UNL1        0.0283
     18 H           0.8332   -3.3656   -0.4513 H       1  UNL1        0.0283
     19 H           2.2197   -2.2784   -0.2922 H       1  UNL1        0.0283
     20 H           1.5542    0.1637   -1.0484 H       1  UNL1        0.0626
     21 H          -0.5471    1.7555   -1.0540 H       1  UNL1        0.0629
     22 H          -3.7070   -0.1247    1.9349 H       1  UNL1        0.0629
     23 H          -5.9693    1.1556    1.5533 H       1  UNL1        0.0629
     24 H          -5.9856    2.5534   -2.9836 H       1  UNL1        0.0629
     25 H          -8.0294    4.2046   -3.2572 H       1  UNL1        0.0623
     26 H          -8.9465    4.9752   -0.9081 H       1  UNL1        0.0693
@<TRIPOS>BOND
     1     1    17    1
     2     1    18    1
     3     1    19    1
     4     2     1    1
     5     3     2   ar
     6     3    20    1
     7     4     3   ar
     8     4    21    1
     9     5     4   ar
    10     6     5   ar
    11     6     2   ar
    12     7     5    1
    13     8     7   ar
    14     8    22    1
    15     9     8   ar
    16     9    23    1
    17    10     9   ar
    18    11    10   ar
    19    11     7   ar
    20    12    10    1
    21    13    12   ar
    22    13    24    1
    23    14    13   ar
    24    14    25    1
    25    15    14   ar
    26    15    26    1
    27    16    15   ar
    28    16    12   ar
