@<TRIPOS>MOLECULE
mol_494_akc_s_0032_1328258
>478.sdf
 33 34 0 0 0
SMALL
GASTEIGER

@<TRIPOS>ATOM
      1 C           5.0837   -2.3766   -1.4941 C.3     1  UNL1        0.0332
      2 C           4.6100   -1.1765   -0.7302 C.2     1  UNL1        0.3040
      3 O           3.9707   -1.2395    0.3092 O.2     1  UNL1       -0.2512
      4 O           4.9844   -0.0258   -1.3523 O.3     1  UNL1       -0.4639
      5 C           4.6392    1.1695   -0.6358 C.3     1  UNL1        0.1032
      6 C           5.1891    2.3867   -1.3737 C.3     1  UNL1        0.0438
      7 C           6.7091    2.3867   -1.3737 C.1     1  UNL1       -0.0931
      8 C           8.0129    2.3867   -1.3737 C.1     1  UNL1       -0.0590
      9 C           9.4278    2.4042   -1.4484 C.ar    1  UNL1        0.0625
     10 C          10.2795    2.8756   -0.4784 C.ar    1  UNL1       -0.0386
     11 C          11.6469    2.7177   -0.8569 C.ar    1  UNL1       -0.0452
     12 C          11.7843    2.1317   -2.1031 C.ar    1  UNL1        0.0271
     13 S          10.2560    1.8306   -2.8165 S.2     1  UNL1       -0.0794
     14 C          12.9857    1.7308   -2.7846 C.ar    1  UNL1        0.0262
     15 C          13.2207    1.7343   -4.1456 C.ar    1  UNL1       -0.0462
     16 C          14.4623    1.1260   -4.4855 C.ar    1  UNL1       -0.0512
     17 C          15.1469    0.6905   -3.3713 C.ar    1  UNL1       -0.0127
     18 C          16.4413   -0.0421   -3.3205 C.3     1  UNL1       -0.0334
     19 S          14.3188    1.0808   -1.9291 S.2     1  UNL1       -0.0930
     20 H           5.6877   -3.0050   -0.8347 H       1  UNL1        0.0342
     21 H           4.2209   -2.9323   -1.8683 H       1  UNL1        0.0342
     22 H           5.7050   -2.0794   -2.3442 H       1  UNL1        0.0342
     23 H           3.5457    1.2453   -0.5863 H       1  UNL1        0.0707
     24 H           5.0473    1.1235    0.3813 H       1  UNL1        0.0707
     25 H           4.8481    2.3846   -2.4151 H       1  UNL1        0.0431
     26 H           4.8359    3.3061   -0.8950 H       1  UNL1        0.0431
     27 H           9.9480    3.2966    0.4625 H       1  UNL1        0.0635
     28 H          12.4851    3.0052   -0.2311 H       1  UNL1        0.0629
     29 H          12.5165    2.1171   -4.8759 H       1  UNL1        0.0629
     30 H          14.8164    0.9900   -5.5000 H       1  UNL1        0.0626
     31 H          16.3757   -0.9557   -3.9209 H       1  UNL1        0.0283
     32 H          17.2439    0.5813   -3.7256 H       1  UNL1        0.0283
     33 H          16.7154   -0.3328   -2.3013 H       1  UNL1        0.0283
@<TRIPOS>BOND
     1     1    20    1
     2     1    21    1
     3     1    22    1
     4     2     1    1
     5     3     2    2
     6     4     2    1
     7     5     4    1
     8     5    23    1
     9     5    24    1
    10     6     5    1
    11     6    25    1
    12     6    26    1
    13     7     6    1
    14     8     7    3
    15     9     8    1
    16    10     9   ar
    17    10    27    1
    18    11    10   ar
    19    11    28    1
    20    12    11   ar
    21    13    12   ar
    22    13     9   ar
    23    14    12    1
    24    15    14   ar
    25    15    29    1
    26    16    15   ar
    27    16    30    1
    28    17    16   ar
    29    18    17    1
    30    18    31    1
    31    18    32    1
    32    18    33    1
    33    19    17   ar
    34    19    14   ar
