@<TRIPOS>MOLECULE
mol_495_akc_s0074_02762013000100010
>479.sdf
 56 57 0 0 0
SMALL
GASTEIGER

@<TRIPOS>ATOM
      1 C           6.5011    0.7721    4.3050 C.3     1  UNL1       -0.0619
      2 C           6.7709   -0.2666    3.2006 C.3     1  UNL1       -0.0338
      3 C           5.4598   -0.7960    2.5397 C.3     1  UNL1       -0.0494
      4 C           4.5445   -1.4043    3.6059 C.3     1  UNL1       -0.0458
      5 C           3.1341   -2.0005    3.3093 C.3     1  UNL1       -0.0145
      6 C           3.1755   -3.1310    2.2810 C.2     1  UNL1       -0.0730
      7 C           3.4994   -2.9021    0.9932 C.2     1  UNL1       -0.0992
      8 C           2.7380   -4.5268    2.6422 C.3     1  UNL1       -0.0314
      9 C           2.5460   -4.7709    4.1329 C.3     1  UNL1       -0.0450
     10 C           1.6115   -3.6983    4.7064 C.3     1  UNL1       -0.0193
     11 C           2.3578   -2.3144    4.7136 C.3     1  UNL1       -0.0217
     12 C           3.3291   -2.1867    5.9252 C.3     1  UNL1       -0.0587
     13 C           1.2340   -1.2661    4.9160 C.3     1  UNL1       -0.0468
     14 C           0.4999   -1.4440    6.2451 C.3     1  UNL1       -0.0515
     15 C           0.0615   -2.8767    6.5841 C.3     1  UNL1       -0.0372
     16 C           0.8943   -4.0928    6.0532 C.3     1  UNL1        0.0681
     17 C           1.8730   -4.6604    7.1237 C.3     1  UNL1       -0.0491
     18 C          -0.1768   -5.2206    5.9451 C.2     1  UNL1        0.3110
     19 O          -0.4845   -5.6871    4.7269 O.3     1  UNL1       -0.4802
     20 O          -0.7680   -5.6620    6.9239 O.2     1  UNL1       -0.2504
     21 C           7.7201    0.3219    2.1433 C.3     1  UNL1        0.0473
     22 C           9.1100    0.5669    2.6972 C.2     1  UNL1        0.3049
     23 O           9.7603    1.5699    2.0662 O.3     1  UNL1       -0.4806
     24 O           9.6299   -0.0766    3.5988 O.2     1  UNL1       -0.2510
     25 H           6.0389    0.3085    5.1829 H       1  UNL1        0.0233
     26 H           7.4244    1.2376    4.6634 H       1  UNL1        0.0233
     27 H           5.8395    1.5673    3.9465 H       1  UNL1        0.0233
     28 H           7.2697   -1.1240    3.6739 H       1  UNL1        0.0303
     29 H           4.9425    0.0202    2.0221 H       1  UNL1        0.0268
     30 H           5.7362   -1.5482    1.7948 H       1  UNL1        0.0268
     31 H           5.1385   -2.1624    4.1302 H       1  UNL1        0.0271
     32 H           4.3476   -0.5656    4.2748 H       1  UNL1        0.0271
     33 H           2.5651   -1.1943    2.8208 H       1  UNL1        0.0351
     34 H           3.7672   -1.9163    0.6283 H       1  UNL1        0.0534
     35 H           3.5030   -3.7015    0.2562 H       1  UNL1        0.0534
     36 H           3.4481   -5.2636    2.2479 H       1  UNL1        0.0310
     37 H           1.7782   -4.7179    2.1390 H       1  UNL1        0.0310
     38 H           3.5187   -4.7686    4.6353 H       1  UNL1        0.0271
     39 H           2.1266   -5.7745    4.2631 H       1  UNL1        0.0271
     40 H           0.7971   -3.5734    3.9763 H       1  UNL1        0.0317
     41 H           3.7992   -1.2023    5.9908 H       1  UNL1        0.0235
     42 H           2.8305   -2.2413    6.8871 H       1  UNL1        0.0235
     43 H           4.1090   -2.9527    5.9081 H       1  UNL1        0.0235
     44 H           0.5058   -1.3366    4.0961 H       1  UNL1        0.0271
     45 H           1.6462   -0.2504    4.8679 H       1  UNL1        0.0271
     46 H          -0.3874   -0.7974    6.2422 H       1  UNL1        0.0266
     47 H           1.1192   -1.0523    7.0603 H       1  UNL1        0.0266
     48 H          -0.0454   -2.9518    7.6752 H       1  UNL1        0.0276
     49 H          -0.9634   -2.9661    6.1959 H       1  UNL1        0.0276
     50 H           1.3471   -5.1645    7.9429 H       1  UNL1        0.0240
     51 H           2.5442   -5.4108    6.6927 H       1  UNL1        0.0240
     52 H           2.4887   -3.9183    7.6250 H       1  UNL1        0.0240
     53 H           7.8311   -0.3659    1.2992 H       1  UNL1        0.0380
     54 H           7.3013    1.2630    1.7706 H       1  UNL1        0.0380
     55 H          -0.0317   -5.2974    3.9627 H       1  UNL1        0.2951
     56 H           9.2466    1.9934    1.3556 H       1  UNL1        0.2951
@<TRIPOS>BOND
     1     1    25    1
     2     1    26    1
     3     1    27    1
     4     2     1    1
     5     2    28    1
     6     3     2    1
     7     3    29    1
     8     3    30    1
     9     4     3    1
    10     4    31    1
    11     4    32    1
    12     6     5    1
    13     7     6    2
    14     7    34    1
    15     7    35    1
    16     8     6    1
    17     8    36    1
    18     8    37    1
    19     9     8    1
    20     9    38    1
    21     9    39    1
    22    10     9    1
    23    10    40    1
    24    11    10    1
    25    11     5    1
    26    11    12    1
    27    12    41    1
    28    12    42    1
    29    12    43    1
    30    13    11    1
    31    13    44    1
    32    13    45    1
    33    14    13    1
    34    14    46    1
    35    14    47    1
    36    15    14    1
    37    15    48    1
    38    15    49    1
    39    16    15    1
    40    16    10    1
    41    16    17    1
    42    17    50    1
    43    17    51    1
    44    17    52    1
    45    18    16    1
    46    19    18    1
    47    20    18    2
    48    21     2    1
    49    21    53    1
    50    21    54    1
    51    22    21    1
    52    23    22    1
    53    24    22    2
    54     5    33    1
    55     5     4    1
    56    19    55    1
    57    23    56    1
