@<TRIPOS>MOLECULE
mol_496_akc_s0074_02762013000100010
>480.sdf
 52 55 0 0 0
SMALL
GASTEIGER

@<TRIPOS>ATOM
      1 C           0.4731   -2.2225    0.9535 C.3     1  UNL1       -0.0590
      2 C           0.6725   -0.6888    0.7573 C.3     1  UNL1       -0.0249
      3 C           1.4248   -0.2150    2.0511 C.3     1  UNL1       -0.0470
      4 C           2.8460    0.2682    1.8497 C.3     1  UNL1       -0.0515
      5 C           2.8959    1.2566    0.7040 C.3     1  UNL1       -0.0372
      6 C           2.6569    0.5826   -0.6554 C.3     1  UNL1        0.0681
      7 C           2.4763    1.7312   -1.6752 C.3     1  UNL1       -0.0491
      8 C           1.5125   -0.5125   -0.5857 C.3     1  UNL1       -0.0198
      9 C           0.6160   -0.5605   -1.8424 C.3     1  UNL1       -0.0482
     10 C          -0.5372    0.4284   -1.7980 C.3     1  UNL1       -0.0465
     11 C          -1.4823    0.1249   -0.6434 C.3     1  UNL1       -0.0217
     12 C          -2.2887   -1.1604   -0.9071 C.3     1  UNL1       -0.0403
     13 C          -3.4062   -1.0433    0.1153 C.3     1  UNL1       -0.0196
     14 C          -2.8111   -1.2664    1.5126 C.3     1  UNL1       -0.0462
     15 C          -1.6893   -0.2817    1.8829 C.3     1  UNL1       -0.0487
     16 C          -0.7172    0.0810    0.7165 C.3     1  UNL1       -0.0294
     17 C          -3.8270    0.3784   -0.1671 C.2     1  UNL1       -0.0730
     18 C          -5.0887    0.8010   -0.3144 C.2     1  UNL1       -0.0992
     19 C          -2.6169    1.1929   -0.5578 C.3     1  UNL1       -0.0258
     20 C           3.9150   -0.1442   -1.1748 C.2     1  UNL1        0.3110
     21 O           4.9917   -0.0970   -0.3688 O.3     1  UNL1       -0.4802
     22 O           3.9973   -0.7463   -2.2415 O.2     1  UNL1       -0.2504
     23 H           1.4445   -2.7197    1.0757 H       1  UNL1        0.0235
     24 H          -0.0123   -2.7008    0.1030 H       1  UNL1        0.0235
     25 H          -0.1023   -2.4600    1.8528 H       1  UNL1        0.0235
     26 H           0.8774    0.6105    2.5261 H       1  UNL1        0.0271
     27 H           1.4376   -1.0024    2.8163 H       1  UNL1        0.0271
     28 H           3.1824    0.7660    2.7680 H       1  UNL1        0.0266
     29 H           3.5167   -0.5798    1.6869 H       1  UNL1        0.0266
     30 H           2.1340    2.0315    0.8731 H       1  UNL1        0.0276
     31 H           3.8596    1.7829    0.7185 H       1  UNL1        0.0276
     32 H           1.6441    2.3866   -1.4148 H       1  UNL1        0.0240
     33 H           3.3759    2.3605   -1.7056 H       1  UNL1        0.0240
     34 H           2.3373    1.3734   -2.7030 H       1  UNL1        0.0240
     35 H           2.0708   -1.4589   -0.6561 H       1  UNL1        0.0317
     36 H           0.2118   -1.5739   -1.9537 H       1  UNL1        0.0269
     37 H           1.2036   -0.4085   -2.7532 H       1  UNL1        0.0269
     38 H          -0.1800    1.4566   -1.7078 H       1  UNL1        0.0271
     39 H          -1.0796    0.3867   -2.7508 H       1  UNL1        0.0271
     40 H          -1.7249   -2.0847   -0.7966 H       1  UNL1        0.0276
     41 H          -2.7000   -1.1629   -1.9268 H       1  UNL1        0.0276
     42 H          -4.2031   -1.7669   -0.0846 H       1  UNL1        0.0346
     43 H          -2.4117   -2.2884    1.5563 H       1  UNL1        0.0271
     44 H          -3.5993   -1.2172    2.2727 H       1  UNL1        0.0271
     45 H          -1.1542   -0.6515    2.7639 H       1  UNL1        0.0268
     46 H          -2.1685    0.6469    2.2226 H       1  UNL1        0.0268
     47 H          -0.4275    1.1291    0.8979 H       1  UNL1        0.0312
     48 H          -5.3038    1.8130   -0.6447 H       1  UNL1        0.0534
     49 H          -5.9316    0.1362   -0.1571 H       1  UNL1        0.0534
     50 H          -2.4051    1.9652    0.1913 H       1  UNL1        0.0315
     51 H          -2.7833    1.6873   -1.5209 H       1  UNL1        0.0315
     52 H           5.6678   -0.6130   -0.8489 H       1  UNL1        0.2951
@<TRIPOS>BOND
     1     1    23    1
     2     1    24    1
     3     1    25    1
     4     2     1    1
     5     3     2    1
     6     3    26    1
     7     3    27    1
     8     4     3    1
     9     4    28    1
    10     4    29    1
    11     5     4    1
    12     5    30    1
    13     5    31    1
    14     6     5    1
    15     6     7    1
    16     7    32    1
    17     7    33    1
    18     7    34    1
    19     8     6    1
    20     8     2    1
    21     8    35    1
    22     9     8    1
    23     9    36    1
    24     9    37    1
    25    10     9    1
    26    10    38    1
    27    10    39    1
    28    11    10    1
    29    12    11    1
    30    12    40    1
    31    12    41    1
    32    13    12    1
    33    13    42    1
    34    14    13    1
    35    14    43    1
    36    14    44    1
    37    15    14    1
    38    15    45    1
    39    15    46    1
    40    16    15    1
    41    16     2    1
    42    16    11    1
    43    16    47    1
    44    17    13    1
    45    18    17    2
    46    18    48    1
    47    18    49    1
    48    19    17    1
    49    19    11    1
    50    19    50    1
    51    19    51    1
    52    20     6    1
    53    21    20    1
    54    22    20    2
    55    21    52    1
