@<TRIPOS>MOLECULE
mol_497_akc_journalpone0051864
>481.sdf
 70 72 0 0 0
SMALL
GASTEIGER

@<TRIPOS>ATOM
      1 C           1.3167    2.6400    1.6454 C.3     1  UNL1       -0.0494
      2 C           2.3022    2.2038    0.5729 C.3     1  UNL1        0.0093
      3 N           2.9829    0.9607    0.9486 N.pl3   1  UNL1       -0.3304
      4 C           2.2498   -0.2954    0.7672 C.3     1  UNL1        0.0093
      5 C           1.9710   -0.9547    2.1120 C.3     1  UNL1       -0.0494
      6 C           4.3257    0.9735    1.3117 C.ar    1  UNL1        0.0297
      7 C           4.8777    2.0345    2.0461 C.ar    1  UNL1       -0.0401
      8 C           6.2336    2.0624    2.4127 C.ar    1  UNL1       -0.0523
      9 C           7.0872    1.0223    2.0429 C.ar    1  UNL1       -0.0172
     10 C           6.5611   -0.0479    1.3205 C.ar    1  UNL1       -0.0523
     11 C           5.2014   -0.0697    0.9718 C.ar    1  UNL1       -0.0401
     12 C           8.5413    1.0973    2.3201 C.2     1  UNL1       -0.0115
     13 C           9.0680    0.6690    3.5002 C.2     1  UNL1       -0.0613
     14 C          10.5487    0.7786    3.8528 C.3     1  UNL1       -0.0306
     15 C          11.1298   -0.5401    4.3672 C.3     1  UNL1       -0.0467
     16 C          10.3319   -1.1275    5.5394 C.3     1  UNL1       -0.0433
     17 C          10.5284   -0.3129    6.8218 C.3     1  UNL1       -0.0624
     18 C           8.8530   -1.2470    5.1499 C.3     1  UNL1       -0.0467
     19 C           8.2486    0.0644    4.6293 C.3     1  UNL1       -0.0306
     20 C           9.4415    1.6700    1.2910 C.ar    1  UNL1       -0.0172
     21 C          10.0233    0.8417    0.3321 C.ar    1  UNL1       -0.0523
     22 C          10.9231    1.3686   -0.6014 C.ar    1  UNL1       -0.0401
     23 C          11.2603    2.7312   -0.6206 C.ar    1  UNL1        0.0297
     24 C          10.6264    3.5512    0.3263 C.ar    1  UNL1       -0.0401
     25 C           9.7347    3.0337    1.2760 C.ar    1  UNL1       -0.0523
     26 N          12.1989    3.2416   -1.5078 N.pl3   1  UNL1       -0.3304
     27 C          11.9939    4.5528   -2.1263 C.3     1  UNL1        0.0093
     28 C          12.9333    5.5944   -1.5385 C.3     1  UNL1       -0.0494
     29 C          13.3242    2.4281   -1.9766 C.3     1  UNL1        0.0093
     30 C          14.2943    2.1277   -0.8405 C.3     1  UNL1       -0.0494
     31 H           0.8174    3.5664    1.3448 H       1  UNL1        0.0245
     32 H           0.5442    1.8818    1.8079 H       1  UNL1        0.0245
     33 H           1.8182    2.8170    2.6019 H       1  UNL1        0.0245
     34 H           1.7611    2.0492   -0.3685 H       1  UNL1        0.0461
     35 H           3.0125    3.0141    0.3671 H       1  UNL1        0.0461
     36 H           1.2871   -0.1050    0.2768 H       1  UNL1        0.0461
     37 H           2.7781   -0.9846    0.1012 H       1  UNL1        0.0461
     38 H           2.8937   -1.1573    2.6646 H       1  UNL1        0.0245
     39 H           1.3432   -0.3123    2.7382 H       1  UNL1        0.0245
     40 H           1.4466   -1.9039    1.9674 H       1  UNL1        0.0245
     41 H           4.2527    2.8618    2.3691 H       1  UNL1        0.0636
     42 H           6.6152    2.9109    2.9749 H       1  UNL1        0.0624
     43 H           7.2035   -0.8632    1.0021 H       1  UNL1        0.0624
     44 H           4.8596   -0.9129    0.3806 H       1  UNL1        0.0636
     45 H          11.1679    1.0970    3.0098 H       1  UNL1        0.0310
     46 H          10.6631    1.5598    4.6145 H       1  UNL1        0.0310
     47 H          11.1417   -1.2685    3.5455 H       1  UNL1        0.0271
     48 H          12.1747   -0.3880    4.6623 H       1  UNL1        0.0271
     49 H          10.7159   -2.1349    5.7393 H       1  UNL1        0.0298
     50 H          10.2072    0.7269    6.7135 H       1  UNL1        0.0232
     51 H           9.9597   -0.7526    7.6478 H       1  UNL1        0.0232
     52 H          11.5845   -0.3055    7.1130 H       1  UNL1        0.0232
     53 H           8.7576   -2.0146    4.3702 H       1  UNL1        0.0271
     54 H           8.2700   -1.6036    6.0077 H       1  UNL1        0.0271
     55 H           8.1907    0.7924    5.4467 H       1  UNL1        0.0310
     56 H           7.2162   -0.1449    4.3325 H       1  UNL1        0.0310
     57 H           9.7958   -0.2209    0.3126 H       1  UNL1        0.0624
     58 H          11.3435    0.6837   -1.3300 H       1  UNL1        0.0636
     59 H          10.8558    4.6116    0.3749 H       1  UNL1        0.0636
     60 H           9.2942    3.6987    2.0138 H       1  UNL1        0.0624
     61 H          12.1762    4.4754   -3.2054 H       1  UNL1        0.0461
     62 H          10.9546    4.8906   -2.0301 H       1  UNL1        0.0461
     63 H          12.7689    5.7233   -0.4645 H       1  UNL1        0.0245
     64 H          13.9811    5.3123   -1.6833 H       1  UNL1        0.0245
     65 H          12.7743    6.5618   -2.0251 H       1  UNL1        0.0245
     66 H          12.9820    1.5016   -2.4499 H       1  UNL1        0.0461
     67 H          13.8777    2.9663   -2.7566 H       1  UNL1        0.0461
     68 H          14.6677    3.0532   -0.3898 H       1  UNL1        0.0245
     69 H          13.8236    1.5381   -0.0478 H       1  UNL1        0.0245
     70 H          15.1522    1.5601   -1.2144 H       1  UNL1        0.0245
@<TRIPOS>BOND
     1     1    31    1
     2     1    32    1
     3     1    33    1
     4     2     1    1
     5     2    34    1
     6     2    35    1
     7     3     2    1
     8     4     3    1
     9     4    36    1
    10     4    37    1
    11     5     4    1
    12     5    38    1
    13     5    39    1
    14     5    40    1
    15     6     3    1
    16     7     6   ar
    17     7    41    1
    18     8     7   ar
    19     8    42    1
    20     9     8   ar
    21    10     9   ar
    22    10    43    1
    23    11    10   ar
    24    11     6   ar
    25    11    44    1
    26    12     9    1
    27    13    12    2
    28    14    13    1
    29    14    45    1
    30    14    46    1
    31    15    14    1
    32    15    47    1
    33    15    48    1
    34    16    15    1
    35    16    49    1
    36    17    16    1
    37    17    50    1
    38    17    51    1
    39    17    52    1
    40    18    16    1
    41    18    53    1
    42    18    54    1
    43    19    18    1
    44    19    13    1
    45    19    55    1
    46    19    56    1
    47    20    12    1
    48    21    20   ar
    49    21    57    1
    50    22    21   ar
    51    22    58    1
    52    23    22   ar
    53    24    23   ar
    54    24    59    1
    55    25    24   ar
    56    25    20   ar
    57    25    60    1
    58    26    23    1
    59    27    26    1
    60    27    61    1
    61    27    62    1
    62    28    27    1
    63    28    63    1
    64    28    64    1
    65    28    65    1
    66    29    26    1
    67    29    66    1
    68    29    67    1
    69    30    29    1
    70    30    68    1
    71    30    69    1
    72    30    70    1
