@<TRIPOS>MOLECULE
mol_498_akc_journalpone0051864
>482.sdf
 88 91 0 0 0
SMALL
GASTEIGER

@<TRIPOS>ATOM
      1 C          16.9891   -5.7547    2.6233 C.3     1  UNL1       -0.0494
      2 C          16.7019   -5.0639    3.9544 C.3     1  UNL1        0.0093
      3 N          16.3025   -3.6517    3.7876 N.pl3   1  UNL1       -0.3304
      4 C          17.3599   -2.7355    3.2631 C.3     1  UNL1        0.0093
      5 C          18.7363   -2.8900    3.8949 C.3     1  UNL1       -0.0494
      6 C          14.9892   -3.4568    3.2900 C.ar    1  UNL1        0.0297
      7 C          13.8337   -4.1141    3.7713 C.ar    1  UNL1       -0.0401
      8 C          12.5239   -3.9749    3.1730 C.ar    1  UNL1       -0.0522
      9 C          12.3252   -3.1759    2.0515 C.ar    1  UNL1       -0.0166
     10 C          13.5041   -2.5254    1.6262 C.ar    1  UNL1       -0.0522
     11 C          14.7588   -2.6093    2.2330 C.ar    1  UNL1       -0.0401
     12 C          11.0695   -3.1593    1.1507 C.2     1  UNL1       -0.0030
     13 C          11.1570   -3.7474   -0.2661 C.ar    1  UNL1       -0.0166
     14 C          12.2897   -3.6410   -1.0921 C.ar    1  UNL1       -0.0522
     15 C          12.2161   -3.8781   -2.4677 C.ar    1  UNL1       -0.0401
     16 C          11.0420   -4.3277   -3.0659 C.ar    1  UNL1        0.0297
     17 C           9.9551   -4.5817   -2.2227 C.ar    1  UNL1       -0.0401
     18 C          10.0084   -4.2951   -0.8526 C.ar    1  UNL1       -0.0522
     19 N          11.0087   -4.5509   -4.4308 N.pl3   1  UNL1       -0.3304
     20 C          10.4120   -5.7778   -4.9637 C.3     1  UNL1        0.0093
     21 C          11.1146   -7.0098   -4.4032 C.3     1  UNL1       -0.0494
     22 C          11.2575   -3.4350   -5.3465 C.3     1  UNL1        0.0093
     23 C          10.0379   -2.5273   -5.4459 C.3     1  UNL1       -0.0494
     24 C          10.0375   -2.2247    1.2025 C.2     1  UNL1       -0.0084
     25 C           9.1669   -1.5882    2.5901 C.2     1  UNL1       -0.0472
     26 C           9.7250   -0.4567    2.0812 C.2     1  UNL1        0.0107
     27 C           8.9325    0.4167    1.1222 C.2     1  UNL1        0.2160
     28 C           9.3194   -0.0520   -0.4422 C.ar    1  UNL1        0.1183
     29 C           9.6256    1.0896   -1.2961 C.ar    1  UNL1        0.1596
     30 C          10.9574    1.4792   -1.4082 C.ar    1  UNL1        0.0045
     31 C          11.9306    0.6783   -0.8643 C.ar    1  UNL1       -0.0551
     32 C          11.5724   -0.5437   -0.2792 C.ar    1  UNL1       -0.0528
     33 C          10.2717   -1.0769   -0.1408 C.ar    1  UNL1        0.0023
     34 N           8.5898    1.8391   -2.1572 N.pl3   1  UNL1       -0.3825
     35 C           7.6278    0.8382   -2.7904 C.3     1  UNL1        0.0812
     36 C           7.8952    2.9260   -1.3649 C.3     1  UNL1        0.0812
     37 C           9.2688    2.5583   -3.3654 C.3     1  UNL1        0.0812
     38 N           7.6432    0.8947    1.3974 N.2     1  UNL1       -0.2331
     39 C           7.3411    1.5481    2.7155 C.3     1  UNL1        0.1352
     40 C           6.4361    0.2847    0.7349 C.3     1  UNL1        0.1352
     41 H          17.3312   -6.7783    2.7995 H       1  UNL1        0.0245
     42 H          16.0942   -5.7992    1.9952 H       1  UNL1        0.0245
     43 H          17.7696   -5.2387    2.0550 H       1  UNL1        0.0245
     44 H          15.9463   -5.6329    4.5080 H       1  UNL1        0.0461
     45 H          17.6002   -5.1153    4.5823 H       1  UNL1        0.0461
     46 H          17.4855   -2.8740    2.1805 H       1  UNL1        0.0461
     47 H          17.0496   -1.6961    3.4365 H       1  UNL1        0.0461
     48 H          18.6898   -2.8471    4.9857 H       1  UNL1        0.0245
     49 H          19.2122   -3.8302    3.5979 H       1  UNL1        0.0245
     50 H          19.3939   -2.0839    3.5471 H       1  UNL1        0.0245
     51 H          13.9228   -4.7771    4.6280 H       1  UNL1        0.0636
     52 H          11.7099   -4.5700    3.5793 H       1  UNL1        0.0624
     53 H          13.6062   -1.9984    0.6951 H       1  UNL1        0.0624
     54 H          15.5595   -2.0521    1.7506 H       1  UNL1        0.0636
     55 H          13.2577   -3.3298   -0.7321 H       1  UNL1        0.0624
     56 H          13.1115   -3.7418   -3.0726 H       1  UNL1        0.0636
     57 H           9.0338   -4.9851   -2.6364 H       1  UNL1        0.0636
     58 H           9.1145   -4.4795   -0.2488 H       1  UNL1        0.0624
     59 H           9.3364   -5.8133   -4.7583 H       1  UNL1        0.0461
     60 H          10.5210   -5.7995   -6.0541 H       1  UNL1        0.0461
     61 H          12.1988   -6.9420   -4.5445 H       1  UNL1        0.0245
     62 H          10.9265   -7.1282   -3.3310 H       1  UNL1        0.0245
     63 H          10.7566   -7.9129   -4.9046 H       1  UNL1        0.0245
     64 H          12.1253   -2.8438   -5.0320 H       1  UNL1        0.0461
     65 H          11.5031   -3.8164   -6.3447 H       1  UNL1        0.0461
     66 H           9.1470   -3.0895   -5.7441 H       1  UNL1        0.0245
     67 H           9.8240   -2.0427   -4.4871 H       1  UNL1        0.0245
     68 H          10.2088   -1.7401   -6.1876 H       1  UNL1        0.0245
     69 H           8.1462   -1.9490    2.4757 H       1  UNL1        0.0626
     70 H           9.1671    0.1581    1.4061 H       1  UNL1        0.0683
     71 H          11.2917    2.3919   -1.8893 H       1  UNL1        0.0681
     72 H          12.9723    1.0053   -0.8455 H       1  UNL1        0.0620
     73 H          12.3597   -0.9467    0.3055 H       1  UNL1        0.0624
     74 H           7.0823    0.3172   -2.0049 H       1  UNL1        0.0931
     75 H           6.9204    1.3907   -3.4165 H       1  UNL1        0.0931
     76 H           8.2074    0.1346   -3.3969 H       1  UNL1        0.0931
     77 H           7.3273    3.5579   -2.0549 H       1  UNL1        0.0931
     78 H           7.2032    2.4702   -0.6649 H       1  UNL1        0.0931
     79 H           8.6457    3.5202   -0.8342 H       1  UNL1        0.0931
     80 H           9.8373    3.4173   -2.9927 H       1  UNL1        0.0931
     81 H           9.8987    1.8421   -3.9001 H       1  UNL1        0.0931
     82 H           8.4775    2.9309   -4.0244 H       1  UNL1        0.0931
     83 H           6.5330    2.2664    2.5520 H       1  UNL1        0.0988
     84 H           7.0338    0.7724    3.4201 H       1  UNL1        0.0988
     85 H           8.2379    2.0656    3.0643 H       1  UNL1        0.0988
     86 H           6.7518   -0.4984    0.0409 H       1  UNL1        0.0988
     87 H           5.8182   -0.1763    1.5107 H       1  UNL1        0.0988
     88 H           5.8765    1.0668    0.2238 H       1  UNL1        0.0988
@<TRIPOS>UNITY_ATOM_ATTR
34 1
charge 1
38 1
charge 1
@<TRIPOS>BOND
     1     1    41    1
     2     1    42    1
     3     1    43    1
     4     2     1    1
     5     2    44    1
     6     2    45    1
     7     3     2    1
     8     4     3    1
     9     4    46    1
    10     4    47    1
    11     5     4    1
    12     5    48    1
    13     5    49    1
    14     5    50    1
    15     6     3    1
    16     7     6   ar
    17     7    51    1
    18     8     7   ar
    19     8    52    1
    20     9     8   ar
    21    10     9   ar
    22    10    53    1
    23    11    10   ar
    24    11     6   ar
    25    11    54    1
    26    12     9    1
    27    13    12    1
    28    14    13   ar
    29    14    55    1
    30    15    14   ar
    31    15    56    1
    32    16    15   ar
    33    17    16   ar
    34    17    57    1
    35    18    17   ar
    36    18    13   ar
    37    18    58    1
    38    19    16    1
    39    20    19    1
    40    20    59    1
    41    20    60    1
    42    21    20    1
    43    21    61    1
    44    21    62    1
    45    21    63    1
    46    22    19    1
    47    22    64    1
    48    22    65    1
    49    23    22    1
    50    23    66    1
    51    23    67    1
    52    23    68    1
    53    24    12    2
    54    25    24    1
    55    25    69    1
    56    26    25    2
    57    26    70    1
    58    27    26    1
    59    28    27    1
    60    29    28   ar
    61    30    29   ar
    62    30    71    1
    63    31    30   ar
    64    31    72    1
    65    32    31   ar
    66    32    73    1
    67    33    32   ar
    68    33    24    1
    69    33    28   ar
    70    34    29    1
    71    35    34    1
    72    35    74    1
    73    35    75    1
    74    35    76    1
    75    36    34    1
    76    36    77    1
    77    36    78    1
    78    36    79    1
    79    37    34    1
    80    37    80    1
    81    37    81    1
    82    37    82    1
    83    38    27    2
    84    39    38    1
    85    39    83    1
    86    39    84    1
    87    39    85    1
    88    40    38    1
    89    40    86    1
    90    40    87    1
    91    40    88    1
