@<TRIPOS>MOLECULE
mol_49_akc_jejmech201502038
>49.sdf
 64 68 0 0 0
SMALL
GASTEIGER

@<TRIPOS>ATOM
      1 C           5.1018   -0.2871   -3.8442 C.3     1  UNL1        0.0131
      2 C           4.1078   -1.0309   -2.9746 C.2     1  UNL1        0.2225
      3 O           4.0749   -2.2656   -3.0390 O.2     1  UNL1       -0.2752
      4 N           3.2765   -0.2478   -2.1606 N.am    1  UNL1       -0.2180
      5 C           2.7139    0.9392   -2.6214 C.2     1  UNL1        0.1870
      6 N           2.4481    1.9624   -1.8698 N.2     1  UNL1       -0.1526
      7 N           1.7535    2.9357   -2.5652 N.am    1  UNL1       -0.1730
      8 C           1.3394    2.5954   -3.9294 C.3     1  UNL1        0.1300
      9 S           2.2229    1.0465   -4.2869 S.3     1  UNL1       -0.0587
     10 C           1.6984    3.6585   -4.9153 C.ar    1  UNL1        0.0310
     11 C           2.7405    4.5617   -4.8245 C.ar    1  UNL1        0.0377
     12 N           2.5474    5.5124   -5.7950 N.ar    1  UNL1       -0.2389
     13 N           1.5386    5.1597   -6.6303 N.ar    1  UNL1       -0.1660
     14 C           1.0187    4.0275   -6.1217 C.ar    1  UNL1        0.0989
     15 C          -0.1041    3.3449   -6.7914 C.ar    1  UNL1        0.0025
     16 C          -0.1901    1.9463   -6.8154 C.ar    1  UNL1       -0.0523
     17 C          -1.2483    1.2844   -7.4436 C.ar    1  UNL1       -0.0582
     18 C          -2.2360    2.0092   -8.1060 C.ar    1  UNL1       -0.0504
     19 C          -3.3400    1.2980   -8.8306 C.3     1  UNL1       -0.0397
     20 C          -2.1508    3.4067   -8.1159 C.ar    1  UNL1       -0.0582
     21 C          -1.0982    4.0678   -7.4619 C.ar    1  UNL1       -0.0523
     22 C           3.2580    6.7403   -5.9345 C.ar    1  UNL1        0.0654
     23 C           4.3440    7.0397   -5.0952 C.ar    1  UNL1       -0.0360
     24 C           5.0119    8.2631   -5.2092 C.ar    1  UNL1       -0.0568
     25 C           4.6100    9.2047   -6.1593 C.ar    1  UNL1       -0.0503
     26 C           5.3136   10.5265   -6.2661 C.3     1  UNL1       -0.0397
     27 C           3.5268    8.9079   -6.9936 C.ar    1  UNL1       -0.0568
     28 C           2.8553    7.6816   -6.8896 C.ar    1  UNL1       -0.0360
     29 C           1.2017    4.0202   -1.8982 C.2     1  UNL1        0.2330
     30 C           1.6478    4.2508   -0.4730 C.3     1  UNL1        0.0141
     31 O           0.4093    4.7993   -2.4289 O.2     1  UNL1       -0.2741
     32 C           2.7487   -0.8258   -0.9326 C.ar    1  UNL1        0.0432
     33 C           3.4050   -1.8848   -0.2825 C.ar    1  UNL1       -0.0399
     34 C           2.8834   -2.4648    0.8812 C.ar    1  UNL1       -0.0600
     35 C           1.6984   -1.9908    1.4323 C.ar    1  UNL1       -0.0616
     36 C           1.0309   -0.9413    0.8164 C.ar    1  UNL1       -0.0600
     37 C           1.5471   -0.3710   -0.3531 C.ar    1  UNL1       -0.0399
     38 H           6.1094   -0.6411   -3.6044 H       1  UNL1        0.0323
     39 H           4.8902   -0.5046   -4.8961 H       1  UNL1        0.0323
     40 H           5.0909    0.7925   -3.6862 H       1  UNL1        0.0323
     41 H           0.2579    2.4185   -3.9085 H       1  UNL1        0.0692
     42 H           3.5106    4.6513   -4.0756 H       1  UNL1        0.0834
     43 H           0.5842    1.3273   -6.3866 H       1  UNL1        0.0624
     44 H          -1.2741    0.1965   -7.4281 H       1  UNL1        0.0620
     45 H          -4.3157    1.6275   -8.4610 H       1  UNL1        0.0278
     46 H          -3.2712    1.4944   -9.9057 H       1  UNL1        0.0278
     47 H          -3.2788    0.2139   -8.6866 H       1  UNL1        0.0278
     48 H          -2.8988    3.9943   -8.6444 H       1  UNL1        0.0620
     49 H          -1.0532    5.1546   -7.4940 H       1  UNL1        0.0624
     50 H           4.7002    6.3511   -4.3386 H       1  UNL1        0.0639
     51 H           5.8467    8.4718   -4.5441 H       1  UNL1        0.0621
     52 H           5.6594   10.6891   -7.2916 H       1  UNL1        0.0278
     53 H           4.6382   11.3379   -5.9769 H       1  UNL1        0.0278
     54 H           6.1898   10.5672   -5.6105 H       1  UNL1        0.0278
     55 H           3.1889    9.6344   -7.7304 H       1  UNL1        0.0621
     56 H           2.0091    7.4857   -7.5451 H       1  UNL1        0.0639
     57 H           2.4434    5.0008   -0.4637 H       1  UNL1        0.0323
     58 H           0.7945    4.6226    0.1029 H       1  UNL1        0.0323
     59 H           2.0019    3.3444    0.0205 H       1  UNL1        0.0323
     60 H           4.3394   -2.2913   -0.6626 H       1  UNL1        0.0636
     61 H           3.4064   -3.2940    1.3518 H       1  UNL1        0.0618
     62 H           1.2931   -2.4426    2.3336 H       1  UNL1        0.0618
     63 H           0.0990   -0.5675    1.2345 H       1  UNL1        0.0618
     64 H           0.9511    0.4173   -0.8021 H       1  UNL1        0.0636
@<TRIPOS>BOND
     1     1    38    1
     2     1    39    1
     3     1    40    1
     4     2     1    1
     5     3     2    2
     6     4     2   am
     7     5     4    1
     8     6     5    2
     9     7     6    1
    10     8     7    1
    11     8    41    1
    12     9     8    1
    13     9     5    1
    14    10     8    1
    15    11    10   ar
    16    11    42    1
    17    12    11   ar
    18    13    12   ar
    19    14    13   ar
    20    14    10   ar
    21    15    14    1
    22    16    15   ar
    23    16    43    1
    24    17    16   ar
    25    17    44    1
    26    18    17   ar
    27    19    18    1
    28    19    45    1
    29    19    46    1
    30    19    47    1
    31    20    18   ar
    32    20    48    1
    33    21    20   ar
    34    21    15   ar
    35    21    49    1
    36    22    12    1
    37    23    22   ar
    38    23    50    1
    39    24    23   ar
    40    24    51    1
    41    25    24   ar
    42    26    25    1
    43    26    52    1
    44    26    53    1
    45    26    54    1
    46    27    25   ar
    47    27    55    1
    48    28    27   ar
    49    28    22   ar
    50    28    56    1
    51    29     7   am
    52    30    29    1
    53    30    57    1
    54    30    58    1
    55    30    59    1
    56    31    29    2
    57    32     4    1
    58    33    32   ar
    59    33    60    1
    60    34    33   ar
    61    34    61    1
    62    35    34   ar
    63    35    62    1
    64    36    35   ar
    65    36    63    1
    66    37    36   ar
    67    37    32   ar
    68    37    64    1
