@<TRIPOS>MOLECULE
mol_501_akc_journalpntd0002494
>485.sdf
 41 43 0 0 0
SMALL
GASTEIGER

@<TRIPOS>ATOM
      1 C           3.2606    8.5028   -0.8677 C.3     1  UNL1       -0.0620
      2 C           1.8021    7.9705   -0.9106 C.3     1  UNL1       -0.0370
      3 C           1.8821    6.4665   -0.6310 C.3     1  UNL1       -0.0122
      4 C           0.5825    5.7156   -0.8352 C.3     1  UNL1        0.1106
      5 C          -0.3736    5.8883    0.3267 C.3     1  UNL1        0.0280
      6 C          -1.1891    7.1598    0.1633 C.3     1  UNL1       -0.0345
      7 C          -0.5100    8.5005    0.5319 C.3     1  UNL1        0.0001
      8 C           0.9281    8.8652    0.0160 C.3     1  UNL1       -0.0281
      9 C           0.8043   10.2867   -0.6213 C.3     1  UNL1       -0.0207
     10 C          -0.5621   10.8437   -0.2660 C.3     1  UNL1        0.0819
     11 C          -1.4276    9.6078   -0.0698 C.3     1  UNL1        0.0867
     12 O          -2.5586    9.8877    0.7476 O.3     1  UNL1       -0.3887
     13 O          -0.5001   11.6384    0.9078 O.3     1  UNL1       -0.3892
     14 C          -0.4666    8.5844    2.0864 C.3     1  UNL1       -0.0568
     15 C          -1.1252    4.6100    0.1986 C.2     1  UNL1        0.0361
     16 C          -2.3808    4.2909    0.5431 C.2     1  UNL1       -0.0883
     17 C          -0.2325    3.6253   -0.4643 C.2     1  UNL1        0.3353
     18 O          -0.4214    2.4335   -0.5716 O.2     1  UNL1       -0.2453
     19 O           0.8531    4.3116   -0.9062 O.3     1  UNL1       -0.4575
     20 H           3.3734    9.3925   -1.4947 H       1  UNL1        0.0233
     21 H           3.5603    8.7698    0.1534 H       1  UNL1        0.0233
     22 H           3.9825    7.7598   -1.2220 H       1  UNL1        0.0233
     23 H           1.4457    8.0797   -1.9440 H       1  UNL1        0.0302
     24 H           2.6062    6.0251   -1.3314 H       1  UNL1        0.0304
     25 H           2.2949    6.2690    0.3654 H       1  UNL1        0.0304
     26 H           0.1362    6.0021   -1.7984 H       1  UNL1        0.0740
     27 H           0.1552    5.8681    1.2884 H       1  UNL1        0.0387
     28 H          -2.0969    7.0767    0.7776 H       1  UNL1        0.0278
     29 H          -1.5608    7.1978   -0.8697 H       1  UNL1        0.0278
     30 H           1.5383    9.0067    0.9202 H       1  UNL1        0.0310
     31 H           1.6098   10.9383   -0.2638 H       1  UNL1        0.0294
     32 H           0.8842   10.2203   -1.7122 H       1  UNL1        0.0294
     33 H          -0.9590   11.4758   -1.0677 H       1  UNL1        0.0619
     34 H          -1.7891    9.2902   -1.0567 H       1  UNL1        0.0624
     35 H          -3.2922   10.1488    0.1641 H       1  UNL1        0.2099
     36 H          -1.4030   11.6191    1.2826 H       1  UNL1        0.2099
     37 H          -0.1732    9.5812    2.4330 H       1  UNL1        0.0236
     38 H           0.2648    7.8754    2.4944 H       1  UNL1        0.0236
     39 H          -1.4343    8.3520    2.5431 H       1  UNL1        0.0236
     40 H          -3.0402    5.0025    1.0317 H       1  UNL1        0.0540
     41 H          -2.7770    3.2972    0.3588 H       1  UNL1        0.0540
@<TRIPOS>BOND
     1     1    20    1
     2     1    21    1
     3     1    22    1
     4     3     2    1
     5     4     3    1
     6     5     4    1
     7     6     5    1
     8     7     6    1
     9     8     7    1
    10     8     2    1
    11     9     8    1
    12    10     9    1
    13    11    10    1
    14    11     7    1
    15    12    35    1
    16    13    36    1
    17    14    37    1
    18    14    38    1
    19    14    39    1
    20    15     5    1
    21    16    40    1
    22    16    41    1
    23    17    15    1
    24    19    17    1
    25    19     4    1
    26     2     1    1
    27     2    23    1
    28     3    24    1
    29     3    25    1
    30     4    26    1
    31     5    27    1
    32     6    28    1
    33     6    29    1
    34     7    14    1
    35     8    30    1
    36     9    31    1
    37     9    32    1
    38    16    15    2
    39    18    17    2
    40    10    13    1
    41    10    33    1
    42    11    12    1
    43    11    34    1
