@<TRIPOS>MOLECULE
mol_502_akc_s0717_97072013000200014
>486.sdf
 67 70 0 0 0
SMALL
GASTEIGER

@<TRIPOS>ATOM
      1 C          -1.1759   -7.8206   -4.5266 C.3     1  UNL1       -0.0223
      2 C           0.2653   -7.4218   -4.5989 C.ar    1  UNL1        0.0391
      3 N           0.7104   -6.6464   -3.5896 N.ar    1  UNL1       -0.2482
      4 C           1.9961   -6.2186   -3.5281 C.ar    1  UNL1        0.1127
      5 C           2.4948   -5.4051   -2.4795 C.ar    1  UNL1        0.1463
      6 O           1.7830   -4.9150   -1.3904 O.3     1  UNL1       -0.4898
      7 C           0.4366   -5.3718   -1.2995 C.3     1  UNL1        0.0897
      8 C          -0.2703   -4.8684   -0.0456 C.3     1  UNL1       -0.0186
      9 C          -1.7381   -5.3273   -0.0274 C.3     1  UNL1       -0.0500
     10 C          -1.8786   -6.8519   -0.0448 C.3     1  UNL1       -0.0530
     11 C          -3.3338   -7.3139   -0.0707 C.3     1  UNL1       -0.0531
     12 C          -3.3787   -8.8422   -0.0923 C.3     1  UNL1       -0.0530
     13 C          -4.8107   -9.3784   -0.1079 C.3     1  UNL1       -0.0500
     14 C          -4.8792  -10.9130   -0.0989 C.3     1  UNL1       -0.0186
     15 C          -4.1749  -11.5400    1.1037 C.3     1  UNL1        0.0897
     16 O          -4.7511  -11.0222    2.3044 O.3     1  UNL1       -0.4898
     17 C          -4.1910  -11.4323    3.4969 C.ar    1  UNL1        0.1463
     18 C          -2.8373  -11.7362    3.7140 C.ar    1  UNL1        0.1127
     19 N          -1.9148  -11.6517    2.7334 N.ar    1  UNL1       -0.2482
     20 C          -0.6208  -11.9504    2.9567 C.ar    1  UNL1        0.0391
     21 C           0.2843  -11.8195    1.7724 C.3     1  UNL1       -0.0223
     22 C          -0.1720  -12.3560    4.1972 C.ar    1  UNL1       -0.0401
     23 C          -1.0955  -12.4395    5.2343 C.ar    1  UNL1       -0.0508
     24 C          -2.4421  -12.1239    5.0132 C.ar    1  UNL1        0.0040
     25 C          -3.3845  -12.1799    6.0567 C.ar    1  UNL1       -0.0523
     26 C          -4.7136  -11.8437    5.8292 C.ar    1  UNL1       -0.0576
     27 C          -5.1147  -11.4642    4.5530 C.ar    1  UNL1       -0.0178
     28 C           3.8363   -4.9978   -2.4615 C.ar    1  UNL1       -0.0178
     29 C           4.7030   -5.3770   -3.4795 C.ar    1  UNL1       -0.0576
     30 C           4.2315   -6.1682   -4.5219 C.ar    1  UNL1       -0.0523
     31 C           2.8923   -6.5923   -4.5521 C.ar    1  UNL1        0.0040
     32 C           2.4173   -7.3950   -5.6018 C.ar    1  UNL1       -0.0508
     33 C           1.0931   -7.8153   -5.6294 C.ar    1  UNL1       -0.0401
     34 H          -1.3587   -8.3840   -3.6052 H       1  UNL1        0.0292
     35 H          -1.8068   -6.9254   -4.5157 H       1  UNL1        0.0292
     36 H          -1.4745   -8.4419   -5.3750 H       1  UNL1        0.0292
     37 H          -0.1333   -5.0004   -2.1588 H       1  UNL1        0.0696
     38 H           0.4578   -6.4638   -1.2523 H       1  UNL1        0.0696
     39 H           0.2554   -5.2242    0.8482 H       1  UNL1        0.0298
     40 H          -0.2250   -3.7736   -0.0125 H       1  UNL1        0.0298
     41 H          -2.2287   -4.9237    0.8655 H       1  UNL1        0.0266
     42 H          -2.2594   -4.9054   -0.8960 H       1  UNL1        0.0266
     43 H          -1.3938   -7.2718   -0.9321 H       1  UNL1        0.0265
     44 H          -1.3671   -7.2714    0.8302 H       1  UNL1        0.0265
     45 H          -3.8619   -6.9355    0.8115 H       1  UNL1        0.0265
     46 H          -3.8376   -6.9147   -0.9586 H       1  UNL1        0.0265
     47 H          -2.8384   -9.2204   -0.9695 H       1  UNL1        0.0265
     48 H          -2.8441   -9.2020    0.7934 H       1  UNL1        0.0265
     49 H          -5.3594   -8.9816    0.7540 H       1  UNL1        0.0266
     50 H          -5.3235   -9.0132   -1.0055 H       1  UNL1        0.0266
     51 H          -5.9333  -11.2112   -0.0965 H       1  UNL1        0.0298
     52 H          -4.4276  -11.3058   -1.0182 H       1  UNL1        0.0298
     53 H          -4.2821  -12.6302    1.0799 H       1  UNL1        0.0696
     54 H          -3.1227  -11.2894    0.9926 H       1  UNL1        0.0696
     55 H          -0.0667  -12.4768    0.9693 H       1  UNL1        0.0292
     56 H           0.2661  -10.7872    1.4058 H       1  UNL1        0.0292
     57 H           1.3171  -12.0852    2.0097 H       1  UNL1        0.0292
     58 H           0.8725  -12.6003    4.3641 H       1  UNL1        0.0636
     59 H          -0.7544  -12.7486    6.2203 H       1  UNL1        0.0625
     60 H          -3.0782  -12.4757    7.0593 H       1  UNL1        0.0624
     61 H          -5.4362  -11.8744    6.6414 H       1  UNL1        0.0619
     62 H          -6.1519  -11.1968    4.3675 H       1  UNL1        0.0655
     63 H           4.1985   -4.3804   -1.6431 H       1  UNL1        0.0655
     64 H           5.7406   -5.0547   -3.4604 H       1  UNL1        0.0619
     65 H           4.9176   -6.4552   -5.3164 H       1  UNL1        0.0624
     66 H           3.0818   -7.6982   -6.4086 H       1  UNL1        0.0625
     67 H           0.7246   -8.4366   -6.4398 H       1  UNL1        0.0636
@<TRIPOS>BOND
     1     1    34    1
     2     1    35    1
     3     1    36    1
     4     2     1    1
     5     3     2   ar
     6     4     3   ar
     7     5     4   ar
     8     6     5    1
     9     7     6    1
    10     7    37    1
    11     7    38    1
    12     8     7    1
    13     8    39    1
    14     8    40    1
    15     9     8    1
    16     9    41    1
    17     9    42    1
    18    10     9    1
    19    10    43    1
    20    10    44    1
    21    11    10    1
    22    11    45    1
    23    11    46    1
    24    12    11    1
    25    12    47    1
    26    12    48    1
    27    13    12    1
    28    13    49    1
    29    13    50    1
    30    14    13    1
    31    14    51    1
    32    14    52    1
    33    15    14    1
    34    15    53    1
    35    15    54    1
    36    16    15    1
    37    17    16    1
    38    18    17   ar
    39    19    18   ar
    40    20    19   ar
    41    21    20    1
    42    21    55    1
    43    21    56    1
    44    21    57    1
    45    22    20   ar
    46    22    58    1
    47    23    22   ar
    48    23    59    1
    49    24    23   ar
    50    24    18   ar
    51    25    24   ar
    52    25    60    1
    53    26    25   ar
    54    26    61    1
    55    27    26   ar
    56    27    17   ar
    57    27    62    1
    58    28     5   ar
    59    28    63    1
    60    29    28   ar
    61    29    64    1
    62    30    29   ar
    63    30    65    1
    64    31    30   ar
    65    31     4   ar
    66    32    31   ar
    67    32    66    1
    68    33    32   ar
    69    33     2   ar
    70    33    67    1
