@<TRIPOS>MOLECULE
mol_503_akc_0103_505320130166
>487.sdf
 69 70 0 0 0
SMALL
GASTEIGER

@<TRIPOS>ATOM
      1 C           3.0487   -0.8487    1.0061 C.3     1  UNL1       -0.0438
      2 C           2.4270    0.0470   -0.0387 C.2     1  UNL1       -0.0762
      3 C           0.9036    0.0405   -0.0372 C.3     1  UNL1       -0.0286
      4 C           0.2754    0.9402   -1.1053 C.3     1  UNL1       -0.0303
      5 C          -1.2251    0.9498   -1.1478 C.2     1  UNL1       -0.0740
      6 C          -1.9139    1.7328   -2.0120 C.2     1  UNL1        0.0294
      7 C          -1.2644    2.6291   -3.0355 C.3     1  UNL1       -0.0332
      8 C          -3.4015    1.7260   -2.0909 C.2     1  UNL1        0.3322
      9 O          -4.0279    1.3734   -0.9545 O.3     1  UNL1       -0.4774
     10 O          -4.0087    2.0615   -3.0975 O.2     1  UNL1       -0.2455
     11 C           3.1623    0.7843   -0.8966 C.2     1  UNL1       -0.0847
     12 C           4.6555    0.8029   -0.9209 C.3     1  UNL1       -0.0308
     13 C           5.2537    1.7314   -1.9802 C.3     1  UNL1       -0.0286
     14 C           6.7687    1.7648   -1.9855 C.2     1  UNL1       -0.0762
     15 C           7.5559    0.8845   -1.0413 C.3     1  UNL1       -0.0438
     16 C           7.4110    2.5438   -2.8802 C.2     1  UNL1       -0.0849
     17 C           8.9046    2.5393   -3.0266 C.3     1  UNL1       -0.0309
     18 C           9.5138    3.8658   -3.4793 C.3     1  UNL1       -0.0097
     19 C          11.0687    3.8170   -3.5080 C.3     1  UNL1        0.1085
     20 C          11.5642    5.1871   -4.0061 C.3     1  UNL1       -0.0249
     21 C          11.5494    2.6511   -4.3892 C.3     1  UNL1       -0.0091
     22 C          13.0623    2.5718   -4.4134 C.3     1  UNL1       -0.0205
     23 C          13.6138    2.7387   -3.0283 C.ar    1  UNL1       -0.0018
     24 C          12.8261    3.2418   -1.9790 C.ar    1  UNL1        0.1276
     25 O          11.5189    3.6308   -2.1490 O.3     1  UNL1       -0.4854
     26 C          13.3616    3.3657   -0.6858 C.ar    1  UNL1       -0.0050
     27 C          12.5233    3.8552    0.4613 C.3     1  UNL1       -0.0361
     28 C          14.7062    3.0302   -0.4695 C.ar    1  UNL1       -0.0138
     29 C          15.4901    2.5709   -1.5210 C.ar    1  UNL1        0.1176
     30 O          16.7971    2.2800   -1.2632 O.3     1  UNL1       -0.5067
     31 C          14.9556    2.4157   -2.7940 C.ar    1  UNL1       -0.0135
     32 H           2.7408   -0.5318    2.0076 H       1  UNL1        0.0274
     33 H           2.7329   -1.8854    0.8520 H       1  UNL1        0.0274
     34 H           4.1425   -0.8427    0.9901 H       1  UNL1        0.0274
     35 H           0.5623   -0.9916   -0.1840 H       1  UNL1        0.0313
     36 H           0.5579    0.3577    0.9552 H       1  UNL1        0.0313
     37 H           0.6154    1.9692   -0.9308 H       1  UNL1        0.0311
     38 H           0.6319    0.6091   -2.0900 H       1  UNL1        0.0311
     39 H          -1.7256    0.2526   -0.4835 H       1  UNL1        0.0577
     40 H          -1.5414    2.3160   -4.0479 H       1  UNL1        0.0280
     41 H          -1.5812    3.6662   -2.8886 H       1  UNL1        0.0280
     42 H          -0.1720    2.6206   -2.9940 H       1  UNL1        0.0280
     43 H           2.6903    1.4158   -1.6435 H       1  UNL1        0.0572
     44 H           5.0070    1.1253    0.0665 H       1  UNL1        0.0310
     45 H           4.9967   -0.2205   -1.1196 H       1  UNL1        0.0310
     46 H           4.9071    1.4064   -2.9716 H       1  UNL1        0.0313
     47 H           4.8726    2.7507   -1.8288 H       1  UNL1        0.0313
     48 H           8.2212    0.2225   -1.6065 H       1  UNL1        0.0274
     49 H           8.1494    1.5023   -0.3583 H       1  UNL1        0.0274
     50 H           6.9541    0.2315   -0.4114 H       1  UNL1        0.0274
     51 H           6.8442    3.1463   -3.5819 H       1  UNL1        0.0572
     52 H           9.3869    2.2550   -2.0872 H       1  UNL1        0.0309
     53 H           9.1275    1.7612   -3.7636 H       1  UNL1        0.0309
     54 H           9.1298    4.1224   -4.4754 H       1  UNL1        0.0306
     55 H           9.1859    4.6560   -2.7905 H       1  UNL1        0.0306
     56 H          11.2903    5.3521   -5.0528 H       1  UNL1        0.0268
     57 H          11.1335    5.9944   -3.4023 H       1  UNL1        0.0268
     58 H          12.6491    5.2969   -3.9126 H       1  UNL1        0.0268
     59 H          11.2025    1.6981   -3.9703 H       1  UNL1        0.0307
     60 H          11.1512    2.7246   -5.4072 H       1  UNL1        0.0307
     61 H          13.3584    1.5973   -4.8213 H       1  UNL1        0.0316
     62 H          13.4761    3.3471   -5.0677 H       1  UNL1        0.0316
     63 H          12.1353    4.8569    0.2525 H       1  UNL1        0.0279
     64 H          11.6884    3.1697    0.6400 H       1  UNL1        0.0279
     65 H          13.1065    3.9133    1.3872 H       1  UNL1        0.0279
     66 H          15.1518    3.1333    0.5163 H       1  UNL1        0.0658
     67 H          17.2211    2.0063   -2.0929 H       1  UNL1        0.2921
     68 H          15.5680    2.0447   -3.6101 H       1  UNL1        0.0658
     69 H          -3.4426    1.3030   -0.1804 H       1  UNL1        0.2954
@<TRIPOS>BOND
     1     1    32    1
     2     1    33    1
     3     1    34    1
     4     2     1    1
     5     3     2    1
     6     3    35    1
     7     3    36    1
     8     4     3    1
     9     4    37    1
    10     4    38    1
    11     5     4    1
    12     5    39    1
    13     6     5    2
    14     7     6    1
    15     7    40    1
    16     7    41    1
    17     7    42    1
    18     8     6    1
    19     9     8    1
    20    10     8    2
    21    11     2    2
    22    11    43    1
    23    12    11    1
    24    12    44    1
    25    12    45    1
    26    13    12    1
    27    13    46    1
    28    13    47    1
    29    14    13    1
    30    15    14    1
    31    15    48    1
    32    15    49    1
    33    15    50    1
    34    16    14    2
    35    16    51    1
    36    17    16    1
    37    17    52    1
    38    17    53    1
    39    18    17    1
    40    18    54    1
    41    18    55    1
    42    19    18    1
    43    20    19    1
    44    20    56    1
    45    20    57    1
    46    20    58    1
    47    21    19    1
    48    21    59    1
    49    21    60    1
    50    22    21    1
    51    22    61    1
    52    22    62    1
    53    23    22    1
    54    24    23   ar
    55    25    24    1
    56    25    19    1
    57    26    24   ar
    58    27    26    1
    59    27    63    1
    60    27    64    1
    61    27    65    1
    62    28    26   ar
    63    28    66    1
    64    29    28   ar
    65    30    29    1
    66    30    67    1
    67    31    29   ar
    68    31    23   ar
    69    31    68    1
    70     9    69    1
