@<TRIPOS>MOLECULE
mol_504_akc_jchemphyslip201305002
>488.sdf
 52 51 0 0 0
SMALL
GASTEIGER

@<TRIPOS>ATOM
      1 C           1.0243    0.0244   -0.0992 C.3     1  UNL1       -0.0653
      2 C           2.5401    0.0205   -0.0940 C.3     1  UNL1       -0.0559
      3 C           3.0627   -0.8358    1.0493 C.3     1  UNL1       -0.0533
      4 C           4.5827   -0.8415    1.0569 C.3     1  UNL1       -0.0531
      5 C           5.0966   -1.7002    2.2002 C.3     1  UNL1       -0.0531
      6 C           6.6152   -1.7039    2.2051 C.3     1  UNL1       -0.0531
      7 C           7.1264   -2.5622    3.3478 C.3     1  UNL1       -0.0531
      8 C           8.6438   -2.5654    3.3521 C.3     1  UNL1       -0.0531
      9 C           9.1542   -3.4235    4.4945 C.3     1  UNL1       -0.0531
     10 C          10.6713   -3.4266    4.4986 C.3     1  UNL1       -0.0531
     11 C          11.1822   -4.2861    5.6395 C.3     1  UNL1       -0.0531
     12 C          12.6992   -4.2906    5.6422 C.3     1  UNL1       -0.0530
     13 C          13.2105   -5.1516    6.7818 C.3     1  UNL1       -0.0522
     14 C          14.7279   -5.1562    6.7877 C.3     1  UNL1       -0.0422
     15 C          15.2324   -6.0182    7.9252 C.3     1  UNL1        0.0097
     16 C          16.7524   -6.0198    7.9240 C.1     1  UNL1       -0.0907
     17 C          18.0563   -6.0211    7.9230 C.1     1  UNL1        0.0154
     18 C          19.5142   -5.9777    7.8740 C.2     1  UNL1        0.3829
     19 O          20.1499   -6.7873    8.7326 O.3     1  UNL1       -0.4713
     20 O          20.0807   -5.2395    7.0890 O.2     1  UNL1       -0.2352
     21 H           0.6496    0.6403   -0.9215 H       1  UNL1        0.0230
     22 H           0.6363   -0.9916   -0.2225 H       1  UNL1        0.0230
     23 H           0.6363    0.4286    0.8411 H       1  UNL1        0.0230
     24 H           2.9117   -0.3665   -1.0507 H       1  UNL1        0.0263
     25 H           2.9118    1.0475    0.0082 H       1  UNL1        0.0263
     26 H           2.6900   -0.4500    2.0066 H       1  UNL1        0.0265
     27 H           2.6900   -1.8629    0.9484 H       1  UNL1        0.0265
     28 H           4.9598   -1.2294    0.1031 H       1  UNL1        0.0265
     29 H           4.9597    0.1827    1.1636 H       1  UNL1        0.0265
     30 H           4.7226   -1.3141    3.1560 H       1  UNL1        0.0265
     31 H           4.7226   -2.7257    2.0956 H       1  UNL1        0.0265
     32 H           6.9914   -2.0911    1.2506 H       1  UNL1        0.0265
     33 H           6.9914   -0.6793    2.3111 H       1  UNL1        0.0265
     34 H           6.7513   -2.1754    4.3030 H       1  UNL1        0.0265
     35 H           6.7513   -3.5874    3.2424 H       1  UNL1        0.0265
     36 H           9.0196   -2.9525    2.3972 H       1  UNL1        0.0265
     37 H           9.0196   -1.5405    3.4578 H       1  UNL1        0.0265
     38 H           8.7787   -3.0366    5.4495 H       1  UNL1        0.0265
     39 H           8.7786   -4.4485    4.3888 H       1  UNL1        0.0265
     40 H          11.0468   -3.8123    3.5429 H       1  UNL1        0.0265
     41 H          11.0469   -2.4017    4.6055 H       1  UNL1        0.0265
     42 H          10.8074   -3.8997    6.5953 H       1  UNL1        0.0265
     43 H          10.8051   -5.3108    5.5332 H       1  UNL1        0.0265
     44 H          13.0735   -4.6757    4.6856 H       1  UNL1        0.0265
     45 H          13.0757   -3.2658    5.7497 H       1  UNL1        0.0265
     46 H          12.8340   -4.7674    7.7379 H       1  UNL1        0.0266
     47 H          12.8338   -6.1763    6.6732 H       1  UNL1        0.0266
     48 H          15.1067   -5.5361    5.8303 H       1  UNL1        0.0274
     49 H          15.1068   -4.1317    6.8945 H       1  UNL1        0.0274
     50 H          14.8809   -5.6372    8.8907 H       1  UNL1        0.0397
     51 H          14.8787   -7.0501    7.8211 H       1  UNL1        0.0397
     52 H          19.5707   -7.3250    9.3047 H       1  UNL1        0.2961
@<TRIPOS>BOND
     1     1    21    1
     2     1    22    1
     3     1    23    1
     4     2     1    1
     5     2    24    1
     6     2    25    1
     7     3     2    1
     8     3    26    1
     9     3    27    1
    10     4     3    1
    11     4    28    1
    12     4    29    1
    13     5     4    1
    14     5    30    1
    15     5    31    1
    16     6     5    1
    17     6    32    1
    18     6    33    1
    19     7     6    1
    20     7    34    1
    21     7    35    1
    22     8     7    1
    23     8    36    1
    24     8    37    1
    25     9     8    1
    26     9    38    1
    27     9    39    1
    28    10     9    1
    29    10    40    1
    30    10    41    1
    31    11    10    1
    32    11    42    1
    33    11    43    1
    34    12    11    1
    35    12    44    1
    36    12    45    1
    37    13    12    1
    38    13    46    1
    39    13    47    1
    40    14    13    1
    41    14    48    1
    42    14    49    1
    43    15    14    1
    44    15    50    1
    45    15    51    1
    46    16    15    1
    47    17    16    3
    48    18    17    1
    49    19    18    1
    50    20    18    2
    51    19    52    1
