@<TRIPOS>MOLECULE
mol_505_akc_s0102_695x2013005000022
>489.sdf
 43 45 0 0 0
SMALL
GASTEIGER

@<TRIPOS>ATOM
      1 O           1.4124    0.4915    0.6552 O.2     1  UNL1       -0.2706
      2 C           2.4632    0.1283    0.1361 C.2     1  UNL1        0.2394
      3 C           3.1780   -1.0828    0.6253 C.2     1  UNL1        0.0003
      4 C           2.5156   -2.0444    1.2892 C.2     1  UNL1       -0.0571
      5 C           3.1852   -3.1803    1.8861 C.2     1  UNL1       -0.0655
      6 C           2.5473   -4.1176    2.6066 C.2     1  UNL1       -0.0837
      7 C           3.2625   -5.2360    3.3209 C.3     1  UNL1       -0.0305
      8 C           2.4863   -6.5586    3.2923 C.3     1  UNL1       -0.0241
      9 C           3.2172   -7.6488    4.0465 C.ar    1  UNL1       -0.0434
     10 C           3.0136   -7.8187    5.4262 C.ar    1  UNL1       -0.0130
     11 C           3.7300   -8.8036    6.0746 C.ar    1  UNL1        0.1665
     12 C           4.6220   -9.6084    5.4084 C.ar    1  UNL1        0.1662
     13 O           5.2266  -10.5082    6.2307 O.3     1  UNL1       -0.4526
     14 C           4.6397  -10.1513    7.4989 C.3     1  UNL1        0.2332
     15 O           3.6603   -9.0958    7.4027 O.3     1  UNL1       -0.4526
     16 C           4.8469   -9.4751    4.0571 C.ar    1  UNL1       -0.0159
     17 C           4.1392   -8.4813    3.3718 C.ar    1  UNL1       -0.0549
     18 N           3.0692    0.8095   -0.8965 N.am    1  UNL1       -0.2980
     19 C           2.5155    2.0514   -1.4022 C.3     1  UNL1        0.0150
     20 C           2.9318    2.0717   -2.8633 C.3     1  UNL1       -0.0357
     21 C           4.2936    1.3893   -2.8414 C.3     1  UNL1       -0.0357
     22 C           4.1659    0.3458   -1.7361 C.3     1  UNL1        0.0150
     23 H           4.2491   -1.1210    0.4946 H       1  UNL1        0.0669
     24 H           1.4377   -1.9616    1.4242 H       1  UNL1        0.0619
     25 H           4.2678   -3.2314    1.7838 H       1  UNL1        0.0614
     26 H           1.4695   -4.0563    2.7432 H       1  UNL1        0.0572
     27 H           4.2609   -5.3862    2.8902 H       1  UNL1        0.0311
     28 H           3.4103   -4.9275    4.3634 H       1  UNL1        0.0311
     29 H           1.4902   -6.4246    3.7348 H       1  UNL1        0.0316
     30 H           2.3146   -6.8810    2.2577 H       1  UNL1        0.0316
     31 H           2.3184   -7.1946    5.9792 H       1  UNL1        0.0658
     32 H           4.1608  -11.0392    7.9274 H       1  UNL1        0.1166
     33 H           5.4395   -9.8248    8.1740 H       1  UNL1        0.1166
     34 H           5.5550  -10.1167    3.5426 H       1  UNL1        0.0655
     35 H           4.3089   -8.3528    2.3045 H       1  UNL1        0.0621
     36 H           2.9925    2.8694   -0.8493 H       1  UNL1        0.0465
     37 H           1.4325    2.1151   -1.2645 H       1  UNL1        0.0465
     38 H           2.2285    1.4791   -3.4601 H       1  UNL1        0.0281
     39 H           2.9690    3.0828   -3.2782 H       1  UNL1        0.0281
     40 H           4.5548    0.9418   -3.8049 H       1  UNL1        0.0281
     41 H           5.0723    2.1166   -2.5842 H       1  UNL1        0.0281
     42 H           3.9109   -0.6410   -2.1353 H       1  UNL1        0.0465
     43 H           5.0844    0.2712   -1.1472 H       1  UNL1        0.0465
@<TRIPOS>BOND
     1     2     1    2
     2     3     2    1
     3     3    23    1
     4     4     3    2
     5     4    24    1
     6     5     4    1
     7     5    25    1
     8     6     5    2
     9     6    26    1
    10     7     6    1
    11     7    27    1
    12     7    28    1
    13     8     7    1
    14     8    29    1
    15     8    30    1
    16     9     8    1
    17    10     9   ar
    18    10    31    1
    19    11    10   ar
    20    12    11   ar
    21    13    12    1
    22    14    13    1
    23    14    32    1
    24    14    33    1
    25    15    14    1
    26    15    11    1
    27    16    12   ar
    28    16    34    1
    29    17    16   ar
    30    17     9   ar
    31    17    35    1
    32    18     2   am
    33    19    18    1
    34    19    36    1
    35    19    37    1
    36    20    19    1
    37    20    38    1
    38    20    39    1
    39    21    20    1
    40    21    40    1
    41    21    41    1
    42    22    21    1
    43    22    18    1
    44    22    42    1
    45    22    43    1
