@<TRIPOS>MOLECULE
mol_508_akc_jbmcl201210110
>492.sdf
 66 69 0 0 0
SMALL
GASTEIGER

@<TRIPOS>ATOM
      1 C           1.3866    1.2194   -0.3795 C.3     1  UNL1        0.0790
      2 O           2.2997    0.1985    0.0131 O.3     1  UNL1       -0.4915
      3 C           2.9580   -0.4452   -1.0022 C.ar    1  UNL1        0.1615
      4 C           3.1644    0.1518   -2.2498 C.ar    1  UNL1       -0.0160
      5 C           3.8606   -0.5128   -3.2572 C.ar    1  UNL1       -0.0530
      6 C           4.4154   -1.7780   -3.0366 C.ar    1  UNL1       -0.0211
      7 C           4.2325   -2.3670   -1.7760 C.ar    1  UNL1       -0.0113
      8 C           3.4977   -1.7207   -0.7657 C.ar    1  UNL1        0.1618
      9 O           3.4307   -2.4436    0.4003 O.3     1  UNL1       -0.4914
     10 C           2.2453   -2.2908    1.1728 C.3     1  UNL1        0.0790
     11 C           5.1717   -2.5147   -4.1328 C.3     1  UNL1        0.0767
     12 C           4.2221   -3.3662   -4.9747 C.3     1  UNL1        0.0157
     13 C           4.4420   -2.7759   -6.3404 C.2     1  UNL1        0.0616
     14 C           3.7667   -3.3106   -7.5494 C.2     1  UNL1       -0.0386
     15 C           2.9422   -4.3708   -7.5174 C.2     1  UNL1       -0.0564
     16 C           2.3038   -4.9576   -8.6967 C.2     1  UNL1       -0.0427
     17 C           3.0268   -5.5008   -9.7088 C.2     1  UNL1       -0.0689
     18 C           4.5329   -5.6475   -9.7299 C.3     1  UNL1       -0.0432
     19 C           2.3902   -6.0779  -10.9560 C.3     1  UNL1       -0.0314
     20 C           0.9128   -5.7515  -11.1199 C.3     1  UNL1       -0.0486
     21 C           0.1920   -5.9168   -9.7933 C.3     1  UNL1       -0.0436
     22 C           0.7535   -4.9725   -8.6951 C.3     1  UNL1       -0.0099
     23 C           0.1676   -5.4789   -7.3554 C.3     1  UNL1       -0.0558
     24 C           0.2259   -3.5416   -8.9392 C.3     1  UNL1       -0.0558
     25 N           5.2848   -1.7869   -6.3897 N.2     1  UNL1       -0.1837
     26 N           5.7661   -1.6112   -5.1219 N.pl3   1  UNL1       -0.2165
     27 C           6.7908   -0.7027   -4.8566 C.ar    1  UNL1        0.0522
     28 C           6.9841    0.4245   -5.6716 C.ar    1  UNL1       -0.0389
     29 C           7.9815    1.3670   -5.3958 C.ar    1  UNL1       -0.0600
     30 C           8.8290    1.1848   -4.3078 C.ar    1  UNL1       -0.0616
     31 C           8.6690    0.0708   -3.4910 C.ar    1  UNL1       -0.0600
     32 C           7.6532   -0.8524   -3.7587 C.ar    1  UNL1       -0.0389
     33 H           1.9155    2.1053   -0.7466 H       1  UNL1        0.0660
     34 H           0.6751    0.8470   -1.1257 H       1  UNL1        0.0660
     35 H           0.8180    1.5214    0.5037 H       1  UNL1        0.0660
     36 H           2.8168    1.1548   -2.4727 H       1  UNL1        0.0655
     37 H           3.9902   -0.0116   -4.2155 H       1  UNL1        0.0622
     38 H           4.6552   -3.3477   -1.5646 H       1  UNL1        0.0659
     39 H           2.2848   -1.3852    1.7831 H       1  UNL1        0.0660
     40 H           1.3450   -2.3201    0.5489 H       1  UNL1        0.0660
     41 H           2.1922   -3.1372    1.8656 H       1  UNL1        0.0660
     42 H           5.9426   -3.1585   -3.6913 H       1  UNL1        0.0573
     43 H           4.5214   -4.4188   -4.9665 H       1  UNL1        0.0351
     44 H           3.1698   -3.2790   -4.6874 H       1  UNL1        0.0351
     45 H           4.0211   -2.8132   -8.4774 H       1  UNL1        0.0636
     46 H           2.6941   -4.8531   -6.5770 H       1  UNL1        0.0621
     47 H           4.7985   -6.7005   -9.8841 H       1  UNL1        0.0275
     48 H           4.9572   -5.0634  -10.5521 H       1  UNL1        0.0275
     49 H           5.0268   -5.3372   -8.8066 H       1  UNL1        0.0275
     50 H           2.9205   -5.7166  -11.8455 H       1  UNL1        0.0310
     51 H           2.5152   -7.1680  -10.9316 H       1  UNL1        0.0310
     52 H           0.4722   -6.4169  -11.8716 H       1  UNL1        0.0269
     53 H           0.7922   -4.7305  -11.4992 H       1  UNL1        0.0269
     54 H           0.2906   -6.9637   -9.4733 H       1  UNL1        0.0274
     55 H          -0.8815   -5.7416   -9.9384 H       1  UNL1        0.0274
     56 H           0.3746   -4.7926   -6.5271 H       1  UNL1        0.0238
     57 H          -0.9229   -5.5784   -7.4178 H       1  UNL1        0.0238
     58 H           0.5749   -6.4618   -7.0912 H       1  UNL1        0.0238
     59 H          -0.8688   -3.5333   -8.9971 H       1  UNL1        0.0238
     60 H           0.5128   -2.8620   -8.1294 H       1  UNL1        0.0238
     61 H           0.6069   -3.1182   -9.8734 H       1  UNL1        0.0238
     62 H           6.3212    0.5921   -6.5178 H       1  UNL1        0.0637
     63 H           8.0888    2.2430   -6.0297 H       1  UNL1        0.0618
     64 H           9.6129    1.9073   -4.0978 H       1  UNL1        0.0618
     65 H           9.3296   -0.0841   -2.6432 H       1  UNL1        0.0618
     66 H           7.5618   -1.7065   -3.0955 H       1  UNL1        0.0637
@<TRIPOS>BOND
     1     1    33    1
     2     1    34    1
     3     1    35    1
     4     2     1    1
     5     3     2    1
     6     4     3   ar
     7     4    36    1
     8     5     4   ar
     9     5    37    1
    10     6     5   ar
    11     7     6   ar
    12     7    38    1
    13     8     7   ar
    14     8     3   ar
    15     9     8    1
    16    10     9    1
    17    10    39    1
    18    10    40    1
    19    10    41    1
    20    11     6    1
    21    11    42    1
    22    12    11    1
    23    12    43    1
    24    12    44    1
    25    13    12    1
    26    14    13    1
    27    14    45    1
    28    15    14    2
    29    15    46    1
    30    16    15    1
    31    17    16    2
    32    18    17    1
    33    18    47    1
    34    18    48    1
    35    18    49    1
    36    19    17    1
    37    19    50    1
    38    19    51    1
    39    20    19    1
    40    20    52    1
    41    20    53    1
    42    21    20    1
    43    21    54    1
    44    21    55    1
    45    22    21    1
    46    22    16    1
    47    23    22    1
    48    23    56    1
    49    23    57    1
    50    23    58    1
    51    24    22    1
    52    24    59    1
    53    24    60    1
    54    24    61    1
    55    25    13    2
    56    26    25    1
    57    26    11    1
    58    27    26    1
    59    28    27   ar
    60    28    62    1
    61    29    28   ar
    62    29    63    1
    63    30    29   ar
    64    30    64    1
    65    31    30   ar
    66    31    65    1
    67    32    31   ar
    68    32    27   ar
    69    32    66    1
