@<TRIPOS>MOLECULE
mol_509_akc_jejmech201210047
>493.sdf
 33 34 0 0 0
SMALL
GASTEIGER

@<TRIPOS>ATOM
      1 C           1.1312   -0.1997   -0.1401 C.3     1  UNL1        0.0790
      2 O           2.5349   -0.0242   -0.0897 O.3     1  UNL1       -0.4914
      3 C           3.0870    1.2262   -0.1043 C.ar    1  UNL1        0.1619
      4 C           2.4664    2.4824   -0.1330 C.ar    1  UNL1        0.1585
      5 O           1.1220    2.7099   -0.1566 O.3     1  UNL1       -0.5033
      6 C           3.2332    3.6498   -0.1479 C.ar    1  UNL1       -0.0159
      7 C           4.6249    3.5840   -0.1422 C.ar    1  UNL1       -0.0494
      8 C           5.2591    2.3404   -0.1330 C.ar    1  UNL1       -0.0018
      9 C           6.7387    2.2712   -0.1624 C.2     1  UNL1        0.0529
     10 N           7.4177    3.3702   -0.1788 N.2     1  UNL1       -0.1874
     11 N           8.7726    3.2994   -0.2201 N.am    1  UNL1       -0.2014
     12 C           9.4889    4.4891   -0.2408 C.2     1  UNL1        0.2914
     13 O           8.9685    5.6051   -0.2094 O.2     1  UNL1       -0.2664
     14 C          10.9431    4.3394   -0.3032 C.ar    1  UNL1        0.2442
     15 N          11.5240    3.1297   -0.3525 N.ar    1  UNL1        0.0024
     16 O          12.8983    3.3573   -0.4104 O.2     1  UNL1       -0.0984
     17 N          13.1097    4.7751   -0.3915 N.ar    1  UNL1        0.0538
     18 O          14.2949    5.1716   -0.4388 O.co2   1  UNL1       -0.5775
     19 C          11.9192    5.3669   -0.3234 C.ar    1  UNL1        0.2787
     20 C          11.8341    6.8348   -0.2868 C.3     1  UNL1        0.0291
     21 C           4.4944    1.1708   -0.1104 C.ar    1  UNL1       -0.0077
     22 H           0.6704    0.1176    0.8004 H       1  UNL1        0.0660
     23 H           0.6863    0.2994   -1.0057 H       1  UNL1        0.0660
     24 H           0.9337   -1.2717   -0.2411 H       1  UNL1        0.0660
     25 H           0.6780    2.0435    0.3832 H       1  UNL1        0.2923
     26 H           2.7460    4.6217   -0.1616 H       1  UNL1        0.0655
     27 H           5.2020    4.5040   -0.1534 H       1  UNL1        0.0625
     28 H           7.2131    1.2761   -0.1734 H       1  UNL1        0.0851
     29 H           9.2605    2.4102   -0.2534 H       1  UNL1        0.1776
     30 H          12.3748    7.2319    0.5788 H       1  UNL1        0.0339
     31 H          12.2681    7.2711   -1.1925 H       1  UNL1        0.0339
     32 H          10.8047    7.1922   -0.2157 H       1  UNL1        0.0339
     33 H           4.9826    0.1989   -0.1082 H       1  UNL1        0.0662
@<TRIPOS>UNITY_ATOM_ATTR
17 1
charge 1
18 1
charge -1
@<TRIPOS>BOND
     1     1    22    1
     2     1    23    1
     3     1    24    1
     4     2     1    1
     5     3     2    1
     6     4     3   ar
     7     5     4    1
     8     5    25    1
     9     6     4   ar
    10     6    26    1
    11     7     6   ar
    12     7    27    1
    13     8     7   ar
    14     9     8    1
    15     9    28    1
    16    10     9    2
    17    11    10    1
    18    11    29    1
    19    12    11   am
    20    13    12    2
    21    14    12    1
    22    15    14   ar
    23    16    15   ar
    24    17    16   ar
    25    18    17    1
    26    19    17   ar
    27    19    14   ar
    28    20    19    1
    29    20    30    1
    30    20    31    1
    31    20    32    1
    32    21     8   ar
    33    21     3   ar
    34    21    33    1
