@<TRIPOS>MOLECULE
mol_50_akc_jejmech201502038
>50.sdf
 57 61 0 0 0
SMALL
GASTEIGER

@<TRIPOS>ATOM
      1 C          -7.0754   -1.9773  -13.3887 C.3     1  UNL1       -0.0397
      2 C          -7.2941   -1.0745  -12.2091 C.ar    1  UNL1       -0.0503
      3 C          -7.0964   -1.5357  -10.9029 C.ar    1  UNL1       -0.0568
      4 C          -7.2631   -0.6786   -9.8089 C.ar    1  UNL1       -0.0360
      5 C          -7.6271    0.6589  -10.0116 C.ar    1  UNL1        0.0654
      6 C          -7.8416    1.1183  -11.3196 C.ar    1  UNL1       -0.0360
      7 C          -7.6699    0.2582  -12.4079 C.ar    1  UNL1       -0.0568
      8 N          -7.7663    1.5637   -8.9198 N.ar    1  UNL1       -0.2387
      9 C          -7.5098    1.3323   -7.5925 C.ar    1  UNL1        0.0405
     10 C          -7.7997    2.4909   -6.9025 C.ar    1  UNL1        0.0405
     11 C          -7.6939    2.5864   -5.4663 C.2     1  UNL1        0.0607
     12 N          -8.4370    3.4181   -4.8171 N.2     1  UNL1       -0.1547
     13 N          -8.2373    3.3547   -3.4484 N.2     1  UNL1       -0.1262
     14 C          -9.1221    3.9568   -2.7131 C.2     1  UNL1        0.1894
     15 S          -8.7417    4.0941   -1.0065 S.3     1  UNL1       -0.0786
     16 C         -10.1682    5.1251   -0.6692 C.3     1  UNL1        0.0784
     17 C         -10.9056    5.2973   -1.9678 C.2     1  UNL1        0.2359
     18 O         -11.9372    5.9644   -2.0185 O.2     1  UNL1       -0.2739
     19 N         -10.3158    4.5915   -3.0063 N.am    1  UNL1       -0.2169
     20 C         -10.9872    4.5010   -4.2552 C.ar    1  UNL1        0.0432
     21 C         -11.4164    5.6593   -4.9149 C.ar    1  UNL1       -0.0399
     22 C         -12.0168    5.5731   -6.1720 C.ar    1  UNL1       -0.0600
     23 C         -12.2216    4.3301   -6.7678 C.ar    1  UNL1       -0.0616
     24 C         -11.8491    3.1684   -6.0969 C.ar    1  UNL1       -0.0600
     25 C         -11.2424    3.2526   -4.8425 C.ar    1  UNL1       -0.0399
     26 C          -8.1956    3.4255   -7.9137 C.ar    1  UNL1        0.1017
     27 N          -8.1753    2.8338   -9.1225 N.ar    1  UNL1       -0.1657
     28 C          -8.5589    4.8515   -7.8257 C.ar    1  UNL1        0.0028
     29 C          -8.0811    5.6809   -6.8061 C.ar    1  UNL1       -0.0522
     30 C          -8.4499    7.0286   -6.7346 C.ar    1  UNL1       -0.0582
     31 C          -9.2734    7.5924   -7.7126 C.ar    1  UNL1       -0.0504
     32 C          -9.6855    9.0317   -7.6339 C.3     1  UNL1       -0.0397
     33 C          -9.7347    6.7828   -8.7546 C.ar    1  UNL1       -0.0582
     34 C          -9.3787    5.4271   -8.8084 C.ar    1  UNL1       -0.0522
     35 H          -7.9520   -1.9633  -14.0446 H       1  UNL1        0.0278
     36 H          -6.1976   -1.6489  -13.9529 H       1  UNL1        0.0278
     37 H          -6.9116   -3.0128  -13.0749 H       1  UNL1        0.0278
     38 H          -6.8057   -2.5695  -10.7265 H       1  UNL1        0.0621
     39 H          -7.1019   -1.0917   -8.8187 H       1  UNL1        0.0639
     40 H          -8.1272    2.1516  -11.5106 H       1  UNL1        0.0639
     41 H          -7.8246    0.6403  -13.4154 H       1  UNL1        0.0621
     42 H          -7.1716    0.3719   -7.2333 H       1  UNL1        0.0837
     43 H          -6.9967    1.8993   -4.9525 H       1  UNL1        0.0855
     44 H          -9.8653    6.1017   -0.2821 H       1  UNL1        0.0476
     45 H         -10.8183    4.6185    0.0493 H       1  UNL1        0.0476
     46 H         -11.2343    6.6417   -4.4877 H       1  UNL1        0.0636
     47 H         -12.2892    6.4812   -6.7031 H       1  UNL1        0.0618
     48 H         -12.6541    4.2700   -7.7628 H       1  UNL1        0.0618
     49 H         -12.0095    2.1986   -6.5597 H       1  UNL1        0.0618
     50 H         -10.9507    2.3355   -4.3375 H       1  UNL1        0.0636
     51 H          -7.4120    5.3009   -6.0390 H       1  UNL1        0.0624
     52 H          -8.0862    7.6305   -5.9049 H       1  UNL1        0.0620
     53 H          -9.5025    9.5320   -8.5901 H       1  UNL1        0.0278
     54 H         -10.7487    9.1057   -7.3847 H       1  UNL1        0.0278
     55 H          -9.1170    9.5681   -6.8667 H       1  UNL1        0.0278
     56 H         -10.3790    7.1939   -9.5281 H       1  UNL1        0.0620
     57 H          -9.7615    4.8191   -9.6265 H       1  UNL1        0.0624
@<TRIPOS>BOND
     1     1    35    1
     2     1    36    1
     3     1    37    1
     4     2     1    1
     5     3     2   ar
     6     3    38    1
     7     4     3   ar
     8     4    39    1
     9     5     4   ar
    10     6     5   ar
    11     6    40    1
    12     7     6   ar
    13     7     2   ar
    14     7    41    1
    15     8     5    1
    16     9     8   ar
    17     9    42    1
    18    10     9   ar
    19    11    10    1
    20    11    43    1
    21    12    11    2
    22    13    12    1
    23    14    13    2
    24    15    14    1
    25    16    15    1
    26    16    44    1
    27    16    45    1
    28    17    16    1
    29    18    17    2
    30    19    17   am
    31    19    14    1
    32    20    19    1
    33    21    20   ar
    34    21    46    1
    35    22    21   ar
    36    22    47    1
    37    23    22   ar
    38    23    48    1
    39    24    23   ar
    40    24    49    1
    41    25    24   ar
    42    25    20   ar
    43    25    50    1
    44    26    10   ar
    45    27    26   ar
    46    27     8   ar
    47    28    26    1
    48    29    28   ar
    49    29    51    1
    50    30    29   ar
    51    30    52    1
    52    31    30   ar
    53    32    31    1
    54    32    53    1
    55    32    54    1
    56    32    55    1
    57    33    31   ar
    58    33    56    1
    59    34    33   ar
    60    34    28   ar
    61    34    57    1
