@<TRIPOS>MOLECULE
mol_510_akc_journalpntd0001987
>494.sdf
 46 48 0 0 0
SMALL
GASTEIGER

@<TRIPOS>ATOM
      1 C           2.8756   -1.1307    1.8441 C.3     1  UNL1       -0.0433
      2 N           4.3655   -1.0583    1.6862 N.4     1  UNL1        0.2309
      3 C           4.9643   -2.4326    1.5115 C.3     1  UNL1       -0.0433
      4 C           4.8094   -0.1288    0.5795 C.3     1  UNL1       -0.0309
      5 C           4.5344    1.3491    0.8655 C.3     1  UNL1        0.0036
      6 C           5.1894    1.9358    2.1246 C.3     1  UNL1        0.0221
      7 N           6.6544    1.8415    2.0551 N.pl3   1  UNL1       -0.2994
      8 C           7.3156    0.7061    2.5527 C.ar    1  UNL1        0.0372
      9 C           6.9887    0.2287    3.8418 C.ar    1  UNL1       -0.0401
     10 C           7.6296   -0.8688    4.4131 C.ar    1  UNL1       -0.0600
     11 C           8.6275   -1.5205    3.7071 C.ar    1  UNL1       -0.0614
     12 C           8.9821   -1.0636    2.4406 C.ar    1  UNL1       -0.0568
     13 C           8.3467    0.0489    1.8477 C.ar    1  UNL1       -0.0257
     14 C           8.8817    0.4470    0.4796 C.3     1  UNL1       -0.0219
     15 C           8.1399    1.4806   -0.3680 C.3     1  UNL1       -0.0219
     16 C           8.0581    2.8181    0.3084 C.ar    1  UNL1       -0.0257
     17 C           8.7202    3.9299   -0.2334 C.ar    1  UNL1       -0.0568
     18 C           8.6682    5.1649    0.4100 C.ar    1  UNL1       -0.0614
     19 C           7.9502    5.3010    1.5934 C.ar    1  UNL1       -0.0600
     20 C           7.2705    4.2037    2.1240 C.ar    1  UNL1       -0.0401
     21 C           7.3115    2.9526    1.4883 C.ar    1  UNL1        0.0372
     22 H           2.6510   -1.8271    2.6557 H       1  UNL1        0.0777
     23 H           2.5057   -0.1375    2.1065 H       1  UNL1        0.0777
     24 H           2.4419   -1.4763    0.9019 H       1  UNL1        0.0777
     25 H           4.7720   -0.7137    2.5655 H       1  UNL1        0.2028
     26 H           4.6290   -2.8397    0.5539 H       1  UNL1        0.0777
     27 H           6.0527   -2.3372    1.5387 H       1  UNL1        0.0777
     28 H           4.6292   -3.0578    2.3433 H       1  UNL1        0.0777
     29 H           5.8722   -0.3134    0.4192 H       1  UNL1        0.0815
     30 H           4.2864   -0.4433   -0.3311 H       1  UNL1        0.0815
     31 H           4.8726    1.9233   -0.0070 H       1  UNL1        0.0332
     32 H           3.4531    1.5172    0.9222 H       1  UNL1        0.0332
     33 H           4.8646    2.9801    2.2173 H       1  UNL1        0.0470
     34 H           4.7818    1.4405    3.0118 H       1  UNL1        0.0470
     35 H           6.2764    0.7750    4.4610 H       1  UNL1        0.0636
     36 H           7.3902   -1.1779    5.4279 H       1  UNL1        0.0618
     37 H           9.1647   -2.3534    4.1566 H       1  UNL1        0.0618
     38 H           9.7998   -1.5646    1.9196 H       1  UNL1        0.0621
     39 H           9.9151    0.7914    0.6223 H       1  UNL1        0.0317
     40 H           8.9306   -0.4689   -0.1262 H       1  UNL1        0.0317
     41 H           7.1327    1.1410   -0.6266 H       1  UNL1        0.0317
     42 H           8.6616    1.5813   -1.3277 H       1  UNL1        0.0317
     43 H           9.2942    3.8384   -1.1526 H       1  UNL1        0.0621
     44 H           9.2017    6.0172   -0.0043 H       1  UNL1        0.0618
     45 H           7.9330    6.2565    2.1119 H       1  UNL1        0.0618
     46 H           6.7438    4.3214    3.0676 H       1  UNL1        0.0636
@<TRIPOS>UNITY_ATOM_ATTR
2 1
charge 1
@<TRIPOS>BOND
     1     1    22    1
     2     1    23    1
     3     1    24    1
     4     2     1    1
     5     2    25    1
     6     3     2    1
     7     3    26    1
     8     3    27    1
     9     3    28    1
    10     4     2    1
    11     4    29    1
    12     4    30    1
    13     5     4    1
    14     5    31    1
    15     5    32    1
    16     6     5    1
    17     6    33    1
    18     6    34    1
    19     7     6    1
    20     8     7    1
    21     9     8   ar
    22     9    35    1
    23    10     9   ar
    24    10    36    1
    25    11    10   ar
    26    11    37    1
    27    12    11   ar
    28    12    38    1
    29    13    12   ar
    30    13     8   ar
    31    14    13    1
    32    14    39    1
    33    14    40    1
    34    15    14    1
    35    15    41    1
    36    15    42    1
    37    16    15    1
    38    17    16   ar
    39    17    43    1
    40    18    17   ar
    41    18    44    1
    42    19    18   ar
    43    19    45    1
    44    20    19   ar
    45    20    46    1
    46    21    20   ar
    47    21     7    1
    48    21    16   ar
