@<TRIPOS>MOLECULE
mol_511_akc_jejmech201206021
>495.sdf
 86 91 0 0 0
SMALL
GASTEIGER

@<TRIPOS>ATOM
      1 C           3.6098   -4.5296    3.1502 C.3     1  UNL1        0.0336
      2 C           4.5127   -3.3365    3.0815 C.2     1  UNL1        0.3092
      3 O           5.2756   -3.0379    3.9882 O.2     1  UNL1       -0.2507
      4 O           4.3380   -2.6473    1.8776 O.3     1  UNL1       -0.4260
      5 C           5.2646   -1.6342    1.5668 C.ar    1  UNL1        0.1316
      6 C           5.7435   -1.5944    0.2672 C.ar    1  UNL1       -0.0189
      7 C           6.7543   -0.6770   -0.0753 C.ar    1  UNL1       -0.0516
      8 C           7.3680    0.1831    0.8709 C.ar    1  UNL1       -0.0061
      9 C           6.7341    0.2238    2.1288 C.ar    1  UNL1       -0.0516
     10 C           5.6860   -0.6626    2.4687 C.ar    1  UNL1       -0.0189
     11 C           8.3733    1.2532    0.3965 C.3     1  UNL1        0.1392
     12 O           8.1532    2.5044    1.1497 O.3     1  UNL1       -0.4822
     13 C           7.9777    3.5492    0.2511 C.ar    1  UNL1        0.1389
     14 C           7.2599    4.6393    0.7236 C.ar    1  UNL1        0.0235
     15 C           6.6504    5.4798   -0.2010 C.ar    1  UNL1        0.1386
     16 O           5.9744    6.5848    0.3671 O.3     1  UNL1       -0.4258
     17 C           5.3908    7.6407   -0.3335 C.2     1  UNL1        0.3092
     18 C           4.9570    8.6941    0.6454 C.3     1  UNL1        0.0336
     19 O           5.2141    7.7104   -1.5416 O.2     1  UNL1       -0.2507
     20 C           6.6850    5.1637   -1.5592 C.ar    1  UNL1        0.0232
     21 C           7.5077    4.1177   -2.0087 C.ar    1  UNL1        0.1344
     22 O           7.4051    3.7133   -3.3094 O.3     1  UNL1       -0.5058
     23 C           8.3066    3.4146   -1.1117 C.ar    1  UNL1        0.1013
     24 C           9.3383    2.3486   -1.4682 C.2     1  UNL1        0.1816
     25 O           9.6550    2.0909   -2.6228 O.2     1  UNL1       -0.2910
     26 C           9.8519    1.5313   -0.2490 C.3     1  UNL1        0.0953
     27 C          11.2555    0.8953   -0.5074 C.ar    1  UNL1        0.0525
     28 C          12.3875    1.7314   -0.8159 C.ar    1  UNL1        0.1502
     29 O          12.4451    3.1136   -0.5731 O.2     1  UNL1       -0.4541
     30 C          13.7439    3.7312   -0.5967 C.ar    1  UNL1        0.1394
     31 C          14.8211    3.2041   -1.1931 C.ar    1  UNL1        0.0288
     32 C          14.4840    2.0811   -2.0219 C.ar    1  UNL1        0.1966
     33 O          14.9555    1.9009   -3.1325 O.2     1  UNL1       -0.2869
     34 C          13.5554    1.1770   -1.3835 C.ar    1  UNL1        0.1058
     35 C          13.8673   -0.1558   -1.3256 C.ar    1  UNL1        0.1347
     36 O          15.0739   -0.6612   -1.7027 O.3     1  UNL1       -0.5058
     37 C          12.8859   -0.9886   -0.8492 C.ar    1  UNL1        0.0235
     38 C          11.5841   -0.4746   -0.5817 C.ar    1  UNL1        0.1426
     39 O          10.6121   -1.4403   -0.8927 O.3     1  UNL1       -0.4255
     40 C           9.7085   -2.0112   -0.0351 C.2     1  UNL1        0.3092
     41 C           8.9215   -2.9610   -0.8956 C.3     1  UNL1        0.0336
     42 O           9.5895   -1.7714    1.1629 O.2     1  UNL1       -0.2507
     43 C          13.8324    5.1547   -0.2235 C.ar    1  UNL1        0.0211
     44 C          12.9379    5.6544    0.7160 C.ar    1  UNL1       -0.0474
     45 C          12.6358    7.0075    0.7032 C.ar    1  UNL1       -0.0149
     46 C          13.2120    7.8423   -0.2580 C.ar    1  UNL1        0.1738
     47 O          12.5948    9.0394   -0.6810 O.3     1  UNL1       -0.4223
     48 C          11.1949    9.0607   -0.7337 C.2     1  UNL1        0.3093
     49 C          10.7103   10.0626   -1.7338 C.3     1  UNL1        0.0336
     50 O          10.4137    8.3657   -0.0934 O.2     1  UNL1       -0.2507
     51 C          14.3400    7.4153   -0.9684 C.ar    1  UNL1        0.1744
     52 O          15.0357    8.3777   -1.7149 O.3     1  UNL1       -0.4222
     53 C          16.4261    8.2954   -2.0004 C.2     1  UNL1        0.3093
     54 C          16.8959    9.6242   -2.5437 C.3     1  UNL1        0.0336
     55 O          17.1448    7.3444   -1.8069 O.2     1  UNL1       -0.2507
     56 C          14.6387    6.0595   -0.9637 C.ar    1  UNL1       -0.0049
     57 H           4.1487   -5.3467    3.6460 H       1  UNL1        0.0342
     58 H           2.7109   -4.2880    3.7242 H       1  UNL1        0.0342
     59 H           3.3354   -4.8803    2.1524 H       1  UNL1        0.0342
     60 H           5.3470   -2.2757   -0.4852 H       1  UNL1        0.0654
     61 H           7.0490   -0.6242   -1.1239 H       1  UNL1        0.0623
     62 H           7.0021    0.9848    2.8590 H       1  UNL1        0.0623
     63 H           5.2117   -0.5871    3.4451 H       1  UNL1        0.0654
     64 H           7.7365    1.3649   -0.4944 H       1  UNL1        0.0795
     65 H           7.1269    4.7916    1.7899 H       1  UNL1        0.0691
     66 H           4.9761    9.6700    0.1521 H       1  UNL1        0.0342
     67 H           3.9485    8.4765    1.0029 H       1  UNL1        0.0342
     68 H           5.6521    8.7397    1.4890 H       1  UNL1        0.0342
     69 H           6.0799    5.7105   -2.2740 H       1  UNL1        0.0691
     70 H           6.5409    3.9922   -3.6605 H       1  UNL1        0.2922
     71 H          10.2310    2.2945    0.4484 H       1  UNL1        0.0472
     72 H          15.8039    3.6374   -1.3048 H       1  UNL1        0.0693
     73 H          15.5856    0.0268   -2.1804 H       1  UNL1        0.2922
     74 H          13.0943   -2.0575   -0.8299 H       1  UNL1        0.0691
     75 H           7.8669   -2.7187   -0.9094 H       1  UNL1        0.0342
     76 H           9.2468   -2.8572   -1.9449 H       1  UNL1        0.0342
     77 H           9.0849   -3.9840   -0.5857 H       1  UNL1        0.0342
     78 H          12.3830    4.9847    1.3690 H       1  UNL1        0.0626
     79 H          11.8482    7.3615    1.3621 H       1  UNL1        0.0656
     80 H          10.1769    9.5289   -2.5272 H       1  UNL1        0.0342
     81 H          10.0332   10.7593   -1.2345 H       1  UNL1        0.0342
     82 H          11.5357   10.6202   -2.1793 H       1  UNL1        0.0342
     83 H          17.9819    9.5957   -2.6948 H       1  UNL1        0.0342
     84 H          16.4179    9.8478   -3.5020 H       1  UNL1        0.0342
     85 H          16.6752   10.4102   -1.8151 H       1  UNL1        0.0342
     86 H          15.4212    5.7010   -1.6253 H       1  UNL1        0.0663
@<TRIPOS>BOND
     1     1    57    1
     2     1    58    1
     3     1    59    1
     4     2     1    1
     5     3     2    2
     6     4     2    1
     7     5     4    1
     8     6     5   ar
     9     6    60    1
    10     7     6   ar
    11     7    61    1
    12     8     7   ar
    13     9     8   ar
    14     9    62    1
    15    10     9   ar
    16    10     5   ar
    17    10    63    1
    18    11     8    1
    19    11    64    1
    20    12    11    1
    21    13    12    1
    22    14    13   ar
    23    14    65    1
    24    15    14   ar
    25    16    15    1
    26    17    16    1
    27    18    17    1
    28    18    66    1
    29    18    67    1
    30    18    68    1
    31    19    17    2
    32    20    15   ar
    33    20    69    1
    34    21    20   ar
    35    22    21    1
    36    22    70    1
    37    23    21   ar
    38    23    13   ar
    39    24    23    1
    40    25    24    2
    41    26    24    1
    42    26    11    1
    43    26    71    1
    44    27    26    1
    45    28    27   ar
    46    29    28   ar
    47    30    29   ar
    48    31    30   ar
    49    31    72    1
    50    32    31   ar
    51    33    32    2
    52    34    32   ar
    53    34    28   ar
    54    35    34   ar
    55    36    35    1
    56    36    73    1
    57    37    35   ar
    58    37    74    1
    59    38    37   ar
    60    38    27   ar
    61    39    38    1
    62    40    39    1
    63    41    40    1
    64    41    75    1
    65    41    76    1
    66    41    77    1
    67    42    40    2
    68    43    30    1
    69    44    43   ar
    70    44    78    1
    71    45    44   ar
    72    45    79    1
    73    46    45   ar
    74    47    46    1
    75    48    47    1
    76    49    48    1
    77    49    80    1
    78    49    81    1
    79    49    82    1
    80    50    48    2
    81    51    46   ar
    82    52    51    1
    83    53    52    1
    84    54    53    1
    85    54    83    1
    86    54    84    1
    87    54    85    1
    88    55    53    2
    89    56    51   ar
    90    56    43   ar
    91    56    86    1
