@<TRIPOS>MOLECULE
mol_512_akc_jejmech201210048
>496.sdf
 50 53 0 0 0
SMALL
GASTEIGER

@<TRIPOS>ATOM
      1 C           1.0932   -0.0341   -0.1548 C.3     1  UNL1       -0.0499
      2 C           2.6101   -0.0079    0.0995 C.3     1  UNL1        0.0598
      3 C           3.3384   -0.1435   -1.2433 C.3     1  UNL1       -0.0499
      4 C           2.9834    1.3125    0.7839 C.3     1  UNL1       -0.0499
      5 C           2.9675   -1.1682    1.0342 C.2     1  UNL1        0.3178
      6 O           2.1412   -1.8727    1.5888 O.2     1  UNL1       -0.2498
      7 O           4.3577   -1.2578    1.1917 O.3     1  UNL1       -0.4255
      8 C           4.9423   -2.2378    2.0206 C.ar    1  UNL1        0.1317
      9 C           4.3773   -3.4853    2.2531 C.ar    1  UNL1       -0.0186
     10 C           5.0159   -4.3864    3.1101 C.ar    1  UNL1       -0.0491
     11 C           6.2731   -4.1067    3.6695 C.ar    1  UNL1        0.0012
     12 C           6.8573   -2.8696    3.3578 C.ar    1  UNL1       -0.0491
     13 C           6.1830   -1.9248    2.5696 C.ar    1  UNL1       -0.0186
     14 C           6.9470   -5.1188    4.5120 C.ar    1  UNL1        0.0810
     15 C           7.0022   -6.5160    4.4089 C.ar    1  UNL1        0.0977
     16 N           7.6506   -7.0819    5.4824 N.ar    1  UNL1       -0.2272
     17 C           8.0579   -6.0783    6.2174 C.ar    1  UNL1        0.1387
     18 C           8.8189   -6.0760    7.4212 C.ar    1  UNL1       -0.0188
     19 C           9.1744   -4.9103    7.9906 C.ar    1  UNL1       -0.0569
     20 C           8.7627   -3.6424    7.4194 C.ar    1  UNL1       -0.0450
     21 C           8.0046   -3.6396    6.3096 C.ar    1  UNL1        0.0118
     22 N           7.6668   -4.8499    5.6842 N.ar    1  UNL1       -0.2987
     23 C           6.4644   -7.3735    3.3551 C.ar    1  UNL1        0.0025
     24 C           6.4817   -7.0004    2.0055 C.ar    1  UNL1       -0.0525
     25 C           5.9337   -7.8335    1.0257 C.ar    1  UNL1       -0.0611
     26 C           5.3991   -9.0702    1.3792 C.ar    1  UNL1       -0.0617
     27 C           5.4149   -9.4760    2.7119 C.ar    1  UNL1       -0.0611
     28 C           5.9413   -8.6314    3.6931 C.ar    1  UNL1       -0.0525
     29 H           0.7792    0.7949   -0.7996 H       1  UNL1        0.0240
     30 H           0.7900   -0.9698   -0.6394 H       1  UNL1        0.0240
     31 H           0.5303    0.0427    0.7831 H       1  UNL1        0.0240
     32 H           3.0323    0.6464   -1.9391 H       1  UNL1        0.0240
     33 H           4.4252   -0.0747   -1.1253 H       1  UNL1        0.0240
     34 H           3.1218   -1.1093   -1.7137 H       1  UNL1        0.0240
     35 H           2.5217    1.3860    1.7755 H       1  UNL1        0.0240
     36 H           4.0670    1.3997    0.9239 H       1  UNL1        0.0240
     37 H           2.6534    2.1740    0.1925 H       1  UNL1        0.0240
     38 H           3.4442   -3.7874    1.7899 H       1  UNL1        0.0654
     39 H           4.5177   -5.3345    3.3079 H       1  UNL1        0.0625
     40 H           7.8539   -2.6166    3.7093 H       1  UNL1        0.0625
     41 H           6.6396   -0.9572    2.3778 H       1  UNL1        0.0654
     42 H           9.1040   -7.0290    7.8517 H       1  UNL1        0.0654
     43 H           9.7630   -4.8945    8.9031 H       1  UNL1        0.0619
     44 H           9.0644   -2.7232    7.9105 H       1  UNL1        0.0632
     45 H           7.6507   -2.7162    5.8777 H       1  UNL1        0.0813
     46 H           6.9182   -6.0531    1.6971 H       1  UNL1        0.0624
     47 H           5.9283   -7.5148   -0.0135 H       1  UNL1        0.0618
     48 H           4.9818   -9.7215    0.6158 H       1  UNL1        0.0618
     49 H           5.0178  -10.4487    2.9898 H       1  UNL1        0.0618
     50 H           5.9476   -8.9615    4.7300 H       1  UNL1        0.0624
@<TRIPOS>BOND
     1     1    29    1
     2     1    30    1
     3     1    31    1
     4     2     1    1
     5     3     2    1
     6     3    32    1
     7     3    33    1
     8     3    34    1
     9     4     2    1
    10     4    35    1
    11     4    36    1
    12     4    37    1
    13     5     2    1
    14     6     5    2
    15     7     5    1
    16     8     7    1
    17     9     8   ar
    18     9    38    1
    19    10     9   ar
    20    10    39    1
    21    11    10   ar
    22    12    11   ar
    23    12    40    1
    24    13    12   ar
    25    13     8   ar
    26    13    41    1
    27    14    11    1
    28    15    14   ar
    29    16    15   ar
    30    17    16   ar
    31    18    17   ar
    32    18    42    1
    33    19    18   ar
    34    19    43    1
    35    20    19   ar
    36    20    44    1
    37    21    20   ar
    38    21    45    1
    39    22    21   ar
    40    22    14   ar
    41    22    17   ar
    42    23    15    1
    43    24    23   ar
    44    24    46    1
    45    25    24   ar
    46    25    47    1
    47    26    25   ar
    48    26    48    1
    49    27    26   ar
    50    27    49    1
    51    28    27   ar
    52    28    23   ar
    53    28    50    1
