@<TRIPOS>MOLECULE
mol_513_akc_s00044_011_9886_8
>497.sdf
 52 55 0 0 0
SMALL
GASTEIGER

@<TRIPOS>ATOM
      1 C           3.6611   -7.7720   -2.4755 C.3     1  UNL1       -0.0223
      2 C           2.9655   -7.1824   -3.6603 C.ar    1  UNL1        0.0391
      3 N           1.8825   -6.4272   -3.3791 N.ar    1  UNL1       -0.2482
      4 C           1.1471   -5.8502   -4.3582 C.ar    1  UNL1        0.1127
      5 C           0.0149   -5.0612   -4.0829 C.ar    1  UNL1        0.1463
      6 O          -0.5048   -4.7488   -2.8407 O.3     1  UNL1       -0.4897
      7 C           0.2027   -5.2622   -1.7065 C.3     1  UNL1        0.0928
      8 C          -0.4542   -4.7977   -0.4160 C.3     1  UNL1        0.0157
      9 C          -1.8897   -5.2849   -0.2478 C.3     1  UNL1        0.0928
     10 O          -1.9208   -6.7112   -0.2964 O.3     1  UNL1       -0.4881
     11 C          -3.1313   -7.3369   -0.1460 C.ar    1  UNL1        0.1639
     12 C          -3.2389   -8.5358   -0.8671 C.ar    1  UNL1        0.0021
     13 C          -4.3753   -9.3365   -0.7501 C.ar    1  UNL1        0.0447
     14 CL         -4.5169  -10.7787   -1.6768 Cl      1  UNL1       -0.0834
     15 C          -5.3947   -8.9874    0.1273 C.ar    1  UNL1       -0.0397
     16 C          -5.2836   -7.8161    0.8708 C.ar    1  UNL1       -0.0143
     17 C          -4.1856   -6.9549    0.6968 C.ar    1  UNL1        0.1700
     18 O          -4.0957   -5.7907    1.4229 O.3     1  UNL1       -0.4509
     19 C          -5.2245   -5.0266    1.6336 C.ar    1  UNL1        0.1469
     20 C          -6.2603   -4.9175    0.6953 C.ar    1  UNL1       -0.0165
     21 C          -7.4063   -4.1821    1.0009 C.ar    1  UNL1       -0.0398
     22 C          -7.4904   -3.5048    2.2159 C.ar    1  UNL1        0.0426
     23 CL         -8.9063   -2.6030    2.5895 Cl      1  UNL1       -0.0835
     24 C          -6.4377   -3.5473    3.1270 C.ar    1  UNL1       -0.0215
     25 C          -5.3042   -4.3069    2.8333 C.ar    1  UNL1        0.0845
     26 CL         -4.0204   -4.3440    3.9885 Cl      1  UNL1       -0.0797
     27 C          -0.7315   -4.4882   -5.1301 C.ar    1  UNL1       -0.0178
     28 C          -0.3561   -4.6866   -6.4534 C.ar    1  UNL1       -0.0576
     29 C           0.7663   -5.4551   -6.7408 C.ar    1  UNL1       -0.0523
     30 C           1.5192   -6.0370   -5.7047 C.ar    1  UNL1        0.0040
     31 C           2.6536   -6.8148   -5.9874 C.ar    1  UNL1       -0.0508
     32 C           3.3873   -7.3966   -4.9557 C.ar    1  UNL1       -0.0401
     33 H           3.9722   -6.9726   -1.7947 H       1  UNL1        0.0292
     34 H           2.9736   -8.4344   -1.9379 H       1  UNL1        0.0292
     35 H           4.5448   -8.3474   -2.7602 H       1  UNL1        0.0292
     36 H           0.2023   -6.3570   -1.7207 H       1  UNL1        0.0697
     37 H           1.2238   -4.8664   -1.6991 H       1  UNL1        0.0697
     38 H           0.1508   -5.1756    0.4183 H       1  UNL1        0.0331
     39 H          -0.4442   -3.7033   -0.3692 H       1  UNL1        0.0331
     40 H          -2.1988   -4.9165    0.7307 H       1  UNL1        0.0697
     41 H          -2.5363   -4.8683   -1.0278 H       1  UNL1        0.0697
     42 H          -2.4273   -8.8393   -1.5245 H       1  UNL1        0.0670
     43 H          -6.2707   -9.6191    0.2464 H       1  UNL1        0.0633
     44 H          -6.0656   -7.5781    1.5877 H       1  UNL1        0.0656
     45 H          -6.2008   -5.4202   -0.2674 H       1  UNL1        0.0655
     46 H          -8.2281   -4.1461    0.2897 H       1  UNL1        0.0633
     47 H          -6.5014   -3.0005    4.0632 H       1  UNL1        0.0648
     48 H          -1.6050   -3.8850   -4.8990 H       1  UNL1        0.0655
     49 H          -0.9362   -4.2406   -7.2565 H       1  UNL1        0.0619
     50 H           1.0531   -5.6023   -7.7799 H       1  UNL1        0.0624
     51 H           2.9726   -6.9754   -7.0144 H       1  UNL1        0.0625
     52 H           4.2597   -8.0005   -5.1701 H       1  UNL1        0.0636
@<TRIPOS>BOND
     1     1    33    1
     2     1    34    1
     3     1    35    1
     4     2     1    1
     5     3     2   ar
     6     4     3   ar
     7     5     4   ar
     8     6     5    1
     9     7     6    1
    10     7    36    1
    11     7    37    1
    12     8     7    1
    13     8    38    1
    14     8    39    1
    15     9     8    1
    16     9    40    1
    17     9    41    1
    18    10     9    1
    19    11    10    1
    20    12    11   ar
    21    12    42    1
    22    13    12   ar
    23    14    13    1
    24    15    13   ar
    25    15    43    1
    26    16    15   ar
    27    16    44    1
    28    17    16   ar
    29    17    11   ar
    30    18    17    1
    31    19    18    1
    32    20    19   ar
    33    20    45    1
    34    21    20   ar
    35    21    46    1
    36    22    21   ar
    37    23    22    1
    38    24    22   ar
    39    24    47    1
    40    25    24   ar
    41    25    19   ar
    42    26    25    1
    43    27     5   ar
    44    27    48    1
    45    28    27   ar
    46    28    49    1
    47    29    28   ar
    48    29    50    1
    49    30    29   ar
    50    30     4   ar
    51    31    30   ar
    52    31    51    1
    53    32    31   ar
    54    32     2   ar
    55    32    52    1
