@<TRIPOS>MOLECULE
mol_514_akc_s0100_736x2012001100015
>498.sdf
 32 34 0 0 0
SMALL
GASTEIGER

@<TRIPOS>ATOM
      1 O          -3.9107    0.8099   -0.0275 O.3     1  UNL1       -0.5065
      2 C          -2.6068    0.4117   -0.0113 C.ar    1  UNL1        0.1239
      3 C          -1.6293    1.3992    0.0053 C.ar    1  UNL1        0.0231
      4 C          -0.2798    1.0376    0.0189 C.ar    1  UNL1        0.1465
      5 C           0.0936   -0.3083    0.0297 C.ar    1  UNL1        0.1092
      6 C          -0.9082   -1.2924    0.0052 C.ar    1  UNL1        0.1348
      7 O          -0.5853   -2.6195   -0.0091 O.3     1  UNL1       -0.5058
      8 C          -2.2601   -0.9349   -0.0158 C.ar    1  UNL1        0.0223
      9 C           1.5408   -0.6282    0.0692 C.ar    1  UNL1        0.2379
     10 O           1.9692   -1.7731    0.1502 O.2     1  UNL1       -0.2830
     11 C           2.4838    0.5291    0.0054 C.ar    1  UNL1        0.2082
     12 O           3.8406    0.2459   -0.0231 O.3     1  UNL1       -0.5007
     13 C           1.9668    1.7717   -0.0270 C.ar    1  UNL1        0.1807
     14 O           0.6213    2.0732    0.0129 O.2     1  UNL1       -0.4507
     15 C           2.8280    2.9574   -0.1367 C.ar    1  UNL1        0.0247
     16 C           3.3351    3.5815    1.0131 C.ar    1  UNL1       -0.0057
     17 C           4.2285    4.6390    0.8723 C.ar    1  UNL1        0.1589
     18 O           4.7743    5.2757    1.9527 O.3     1  UNL1       -0.5033
     19 C           4.6137    5.0752   -0.3937 C.ar    1  UNL1        0.1583
     20 O           5.5111    6.0958   -0.5213 O.3     1  UNL1       -0.5033
     21 C           4.1065    4.4779   -1.5372 C.ar    1  UNL1       -0.0159
     22 C           3.2101    3.4159   -1.4087 C.ar    1  UNL1       -0.0473
     23 H          -4.4882    0.0296   -0.0461 H       1  UNL1        0.2921
     24 H          -1.9181    2.4470    0.0040 H       1  UNL1        0.0691
     25 H          -1.3797   -3.1746   -0.0217 H       1  UNL1        0.2922
     26 H          -3.0298   -1.6990   -0.0358 H       1  UNL1        0.0691
     27 H           4.3466    1.0725   -0.0789 H       1  UNL1        0.2924
     28 H           3.0425    3.2266    1.9969 H       1  UNL1        0.0662
     29 H           4.3967    4.8907    2.7624 H       1  UNL1        0.2923
     30 H           5.7366    6.3455    0.3969 H       1  UNL1        0.2923
     31 H           4.4140    4.8277   -2.5184 H       1  UNL1        0.0655
     32 H           2.8232    2.9376   -2.3068 H       1  UNL1        0.0626
@<TRIPOS>BOND
     1     1    23    1
     2     2     1    1
     3     3     2   ar
     4     3    24    1
     5     4     3   ar
     6     5     4   ar
     7     6     5   ar
     8     7     6    1
     9     7    25    1
    10     8     6   ar
    11     8     2   ar
    12     8    26    1
    13     9     5   ar
    14    10     9    2
    15    11     9   ar
    16    12    11    1
    17    12    27    1
    18    13    11   ar
    19    14    13   ar
    20    14     4   ar
    21    15    13    1
    22    16    15   ar
    23    16    28    1
    24    17    16   ar
    25    18    17    1
    26    18    29    1
    27    19    17   ar
    28    20    19    1
    29    20    30    1
    30    21    19   ar
    31    21    31    1
    32    22    21   ar
    33    22    15   ar
    34    22    32    1
