@<TRIPOS>MOLECULE
mol_515_akc_jexppara201208019
>499.sdf
 41 41 0 0 0
SMALL
GASTEIGER

@<TRIPOS>ATOM
      1 C           2.8318   -2.9545   -2.0510 C.3     1  UNL1       -0.0653
      2 C           3.7154   -1.9404   -1.3439 C.3     1  UNL1       -0.0559
      3 C           4.2533   -0.8971   -2.3212 C.3     1  UNL1       -0.0533
      4 C           5.1408    0.1214   -1.6081 C.3     1  UNL1       -0.0528
      5 C           5.6808    1.1651   -2.5860 C.3     1  UNL1       -0.0496
      6 C           6.5649    2.1818   -1.8648 C.3     1  UNL1       -0.0348
      7 C           7.1012    3.2072   -2.8201 C.2     1  UNL1       -0.0879
      8 C           8.4083    3.4051   -3.0439 C.2     1  UNL1       -0.0876
      9 C           8.9173    4.4448   -4.0031 C.3     1  UNL1       -0.0308
     10 C          10.4465    4.4613   -4.0648 C.3     1  UNL1       -0.0242
     11 C          10.9618    5.5016   -5.0271 C.ar    1  UNL1       -0.0468
     12 C          11.1877    6.8171   -4.5970 C.ar    1  UNL1       -0.0551
     13 C          11.6875    7.7749   -5.4818 C.ar    1  UNL1       -0.0199
     14 C          11.9530    7.4163   -6.7992 C.ar    1  UNL1        0.1169
     15 O          12.4652    8.3133   -7.6890 O.3     1  UNL1       -0.5068
     16 C          11.7067    6.1255   -7.2497 C.ar    1  UNL1       -0.0199
     17 C          11.2082    5.1682   -6.3657 C.ar    1  UNL1       -0.0551
     18 H           2.4555   -3.6933   -1.3368 H       1  UNL1        0.0230
     19 H           1.9720   -2.4649   -2.5196 H       1  UNL1        0.0230
     20 H           3.3906   -3.4856   -2.8282 H       1  UNL1        0.0230
     21 H           3.1381   -1.4478   -0.5528 H       1  UNL1        0.0263
     22 H           4.5488   -2.4630   -0.8601 H       1  UNL1        0.0263
     23 H           4.8272   -1.3949   -3.1123 H       1  UNL1        0.0265
     24 H           3.4162   -0.3800   -2.8058 H       1  UNL1        0.0265
     25 H           4.5673    0.6208   -0.8178 H       1  UNL1        0.0265
     26 H           5.9780   -0.3953   -1.1234 H       1  UNL1        0.0265
     27 H           6.2552    0.6657   -3.3766 H       1  UNL1        0.0268
     28 H           4.8433    1.6791   -3.0743 H       1  UNL1        0.0268
     29 H           5.9843    2.6977   -1.0907 H       1  UNL1        0.0307
     30 H           7.3845    1.6608   -1.3546 H       1  UNL1        0.0307
     31 H           6.3673    3.8174   -3.3442 H       1  UNL1        0.0569
     32 H           9.1394    2.7960   -2.5166 H       1  UNL1        0.0569
     33 H           8.5118    4.2432   -5.0039 H       1  UNL1        0.0310
     34 H           8.5514    5.4317   -3.6917 H       1  UNL1        0.0310
     35 H          10.8665    4.6534   -3.0682 H       1  UNL1        0.0316
     36 H          10.8259    3.4743   -4.3612 H       1  UNL1        0.0316
     37 H          10.9811    7.0996   -3.5671 H       1  UNL1        0.0621
     38 H          11.8630    8.7852   -5.1262 H       1  UNL1        0.0654
     39 H          12.6519    9.1409   -7.2174 H       1  UNL1        0.2921
     40 H          11.9091    5.8624   -8.2838 H       1  UNL1        0.0654
     41 H          11.0211    4.1592   -6.7262 H       1  UNL1        0.0621
@<TRIPOS>BOND
     1     1    18    1
     2     1    19    1
     3     1    20    1
     4     2     1    1
     5     2    21    1
     6     2    22    1
     7     3     2    1
     8     3    23    1
     9     3    24    1
    10     4     3    1
    11     4    25    1
    12     4    26    1
    13     5     4    1
    14     5    27    1
    15     5    28    1
    16     6     5    1
    17     6    29    1
    18     6    30    1
    19     7     6    1
    20     7    31    1
    21     8     7    2
    22     8    32    1
    23     9     8    1
    24     9    33    1
    25     9    34    1
    26    10     9    1
    27    10    35    1
    28    10    36    1
    29    11    10    1
    30    12    11   ar
    31    12    37    1
    32    13    12   ar
    33    13    38    1
    34    14    13   ar
    35    15    14    1
    36    15    39    1
    37    16    14   ar
    38    16    40    1
    39    17    16   ar
    40    17    11   ar
    41    17    41    1
