@<TRIPOS>MOLECULE
mol_516_akc_cbdd12017
>500.sdf
 92 93 0 0 0
SMALL
GASTEIGER

@<TRIPOS>ATOM
      1 C           0.4174   -3.6505    0.6094 C.3     1  UNL1        0.0817
      2 O           1.5910   -2.9978    0.1213 O.3     1  UNL1       -0.4679
      3 C           1.4995   -1.6466    0.0029 C.2     1  UNL1        0.3083
      4 O           0.5169   -0.9852    0.3084 O.2     1  UNL1       -0.2508
      5 C           2.7597   -1.0194   -0.5615 C.3     1  UNL1        0.0608
      6 C           3.8613   -2.0270   -0.8779 C.3     1  UNL1        0.0279
      7 N           5.0364   -1.5274   -1.6092 N.am    1  UNL1       -0.2669
      8 C           5.6480   -0.2494   -1.2469 C.3     1  UNL1        0.0178
      9 C           6.5839   -0.3426   -0.0392 C.3     1  UNL1       -0.0370
     10 C           7.2248    1.0013    0.3124 C.3     1  UNL1       -0.0516
     11 C           6.1935    2.0618    0.7018 C.3     1  UNL1       -0.0530
     12 C           6.8909    3.3455    1.1168 C.3     1  UNL1       -0.0531
     13 C           5.8936    4.4436    1.4798 C.3     1  UNL1       -0.0530
     14 C           6.6103    5.7507    1.8202 C.3     1  UNL1       -0.0510
     15 C           7.4894    6.2797    0.6786 C.3     1  UNL1       -0.0295
     16 C           6.6758    6.6830   -0.5539 C.3     1  UNL1        0.0477
     17 O           5.6711    7.6516   -0.2388 O.3     1  UNL1       -0.3797
     18 C           6.2374    8.8788    0.2012 C.3     1  UNL1        0.0480
     19 C           5.1165    9.8278    0.5656 C.3     1  UNL1       -0.0253
     20 C           5.7048   11.1600    1.0374 C.3     1  UNL1       -0.0200
     21 C           4.6189   12.1263    1.4240 C.ar    1  UNL1        0.0168
     22 C           4.5360   12.6340    2.7130 C.ar    1  UNL1       -0.0474
     23 C           3.4557   13.4298    3.0522 C.ar    1  UNL1        0.0028
     24 C           2.4488   13.6618    2.1192 C.ar    1  UNL1        0.1774
     25 N           2.5371   13.1891    0.8454 N.ar    1  UNL1       -0.1640
     26 C           3.6454   12.4873    0.4927 C.ar    1  UNL1        0.1805
     27 C           1.4272   13.2955   -0.1124 C.ar    1  UNL1        0.2435
     28 C           0.5259   14.3667   -0.1901 C.ar    1  UNL1        0.1994
     29 C          -0.6005   14.3413   -1.0329 C.ar    1  UNL1        0.0053
     30 C          -0.8183   13.2183   -1.8385 C.ar    1  UNL1        0.1288
     31 C           0.0874   12.1509   -1.8166 C.ar    1  UNL1       -0.0251
     32 C           1.1938   12.1870   -0.9544 C.ar    1  UNL1        0.0147
     33 N          -2.0111   13.1471   -2.6966 N.pl3   1  UNL1        0.0565
     34 O          -2.8080   14.0892   -2.6314 O.2     1  UNL1       -0.1261
     35 O          -2.1348   12.1479   -3.4138 O.2     1  UNL1       -0.1261
     36 N           0.7619   15.5867    0.5341 N.pl3   1  UNL1        0.0630
     37 O           1.8586   16.1268    0.3603 O.2     1  UNL1       -0.1259
     38 O          -0.1026   15.9217    1.3467 O.2     1  UNL1       -0.1259
     39 C           5.7138   -2.4664   -2.3766 C.2     1  UNL1        0.4034
     40 O           5.2609   -3.5905   -2.5888 O.2     1  UNL1       -0.2262
     41 O           6.9133   -2.0358   -2.8621 O.3     1  UNL1       -0.4445
     42 C           7.6960   -2.9325   -3.6965 C.3     1  UNL1        0.1068
     43 C           6.9568   -3.2344   -5.0079 C.3     1  UNL1       -0.0253
     44 C           8.9923   -2.1809   -4.0428 C.3     1  UNL1       -0.0253
     45 C           8.0903   -4.2113   -2.9416 C.3     1  UNL1       -0.0253
     46 H           0.1872   -3.3168    1.6262 H       1  UNL1        0.0661
     47 H          -0.4297   -3.4726   -0.0606 H       1  UNL1        0.0661
     48 H           0.6153   -4.7257    0.6359 H       1  UNL1        0.0661
     49 H           2.4782   -0.4848   -1.4778 H       1  UNL1        0.0393
     50 H           3.1177   -0.2926    0.1775 H       1  UNL1        0.0393
     51 H           4.2310   -2.4888    0.0466 H       1  UNL1        0.0471
     52 H           3.4178   -2.8337   -1.4731 H       1  UNL1        0.0471
     53 H           6.2104    0.1299   -2.1078 H       1  UNL1        0.0465
     54 H           4.8435    0.4696   -1.0736 H       1  UNL1        0.0465
     55 H           6.0408   -0.7230    0.8336 H       1  UNL1        0.0280
     56 H           7.3851   -1.0623   -0.2465 H       1  UNL1        0.0280
     57 H           7.9238    0.8535    1.1453 H       1  UNL1        0.0266
     58 H           7.8232    1.3596   -0.5357 H       1  UNL1        0.0266
     59 H           5.5431    2.2869   -0.1506 H       1  UNL1        0.0265
     60 H           5.5602    1.6953    1.5166 H       1  UNL1        0.0265
     61 H           7.5570    3.1624    1.9681 H       1  UNL1        0.0265
     62 H           7.5169    3.6592    0.2761 H       1  UNL1        0.0265
     63 H           5.1853    4.6027    0.6582 H       1  UNL1        0.0265
     64 H           5.2948    4.1286    2.3430 H       1  UNL1        0.0265
     65 H           5.8625    6.5026    2.1025 H       1  UNL1        0.0266
     66 H           7.2371    5.5961    2.7063 H       1  UNL1        0.0266
     67 H           8.0593    7.1335    1.0579 H       1  UNL1        0.0287
     68 H           8.2553    5.5551    0.3897 H       1  UNL1        0.0287
     69 H           7.3287    7.0764   -1.3408 H       1  UNL1        0.0560
     70 H           6.1659    5.8115   -0.9791 H       1  UNL1        0.0560
     71 H           6.8421    8.7290    1.0984 H       1  UNL1        0.0560
     72 H           6.8620    9.2981   -0.5938 H       1  UNL1        0.0560
     73 H           4.4528    9.9505   -0.2987 H       1  UNL1        0.0290
     74 H           4.4939    9.3784    1.3520 H       1  UNL1        0.0290
     75 H           6.3671   10.9771    1.8935 H       1  UNL1        0.0316
     76 H           6.3217   11.6070    0.2493 H       1  UNL1        0.0316
     77 H           5.2919   12.3975    3.4622 H       1  UNL1        0.0624
     78 H           3.3701   13.8300    4.0611 H       1  UNL1        0.0677
     79 H           1.5540   14.1835    2.4397 H       1  UNL1        0.1381
     80 H           3.7471   12.1744   -0.5440 H       1  UNL1        0.1384
     81 H          -1.2890   15.1878   -1.0592 H       1  UNL1        0.0665
     82 H          -0.0668   11.2706   -2.4446 H       1  UNL1        0.0642
     83 H           1.8187   11.2948   -0.9378 H       1  UNL1        0.0685
     84 H           6.7060   -2.3043   -5.5311 H       1  UNL1        0.0268
     85 H           7.5639   -3.8553   -5.6745 H       1  UNL1        0.0268
     86 H           6.0114   -3.7585   -4.8444 H       1  UNL1        0.0268
     87 H           9.5462   -1.9133   -3.1358 H       1  UNL1        0.0268
     88 H           9.6477   -2.7892   -4.6772 H       1  UNL1        0.0268
     89 H           8.7792   -1.2436   -4.5683 H       1  UNL1        0.0268
     90 H           8.6072   -3.9635   -2.0074 H       1  UNL1        0.0268
     91 H           7.2287   -4.8238   -2.6648 H       1  UNL1        0.0268
     92 H           8.7494   -4.8421   -3.5473 H       1  UNL1        0.0268
@<TRIPOS>UNITY_ATOM_ATTR
25 1
charge 1
@<TRIPOS>BOND
     1     1    46    1
     2     1    47    1
     3     1    48    1
     4     2     1    1
     5     3     2    1
     6     4     3    2
     7     5     3    1
     8     5    49    1
     9     5    50    1
    10     6     5    1
    11     6    51    1
    12     6    52    1
    13     7     6    1
    14     8     7    1
    15     8    53    1
    16     8    54    1
    17     9     8    1
    18     9    55    1
    19     9    56    1
    20    10     9    1
    21    10    57    1
    22    10    58    1
    23    11    10    1
    24    11    59    1
    25    11    60    1
    26    12    11    1
    27    12    61    1
    28    12    62    1
    29    13    12    1
    30    13    63    1
    31    13    64    1
    32    14    13    1
    33    14    65    1
    34    14    66    1
    35    15    14    1
    36    15    67    1
    37    15    68    1
    38    16    15    1
    39    16    69    1
    40    16    70    1
    41    17    16    1
    42    18    17    1
    43    18    71    1
    44    18    72    1
    45    19    18    1
    46    19    73    1
    47    19    74    1
    48    20    19    1
    49    20    75    1
    50    20    76    1
    51    21    20    1
    52    22    21   ar
    53    22    77    1
    54    23    22   ar
    55    23    78    1
    56    24    23   ar
    57    24    79    1
    58    25    24   ar
    59    26    25   ar
    60    26    21   ar
    61    26    80    1
    62    27    25    1
    63    28    27   ar
    64    29    28   ar
    65    29    81    1
    66    30    29   ar
    67    31    30   ar
    68    31    82    1
    69    32    31   ar
    70    32    27   ar
    71    32    83    1
    72    33    30    1
    73    34    33    2
    74    35    33    2
    75    36    28    1
    76    37    36    2
    77    38    36    2
    78    39     7   am
    79    40    39    2
    80    41    39    1
    81    42    41    1
    82    43    42    1
    83    43    84    1
    84    43    85    1
    85    43    86    1
    86    44    42    1
    87    44    87    1
    88    44    88    1
    89    44    89    1
    90    45    42    1
    91    45    90    1
    92    45    91    1
    93    45    92    1
