@<TRIPOS>MOLECULE
mol_518_akc_bpbb12_00419
>502.sdf
 20 21 0 0 0
SMALL
GASTEIGER

@<TRIPOS>ATOM
      1 O           1.1264    0.1328    0.0632 O.3     1  UNL1       -0.5060
      2 C           2.4899    0.0702    0.0630 C.ar    1  UNL1        0.1286
      3 C           3.2006    1.2731    0.0632 C.ar    1  UNL1       -0.0160
      4 C           4.5904    1.2544    0.0631 C.ar    1  UNL1       -0.0160
      5 C           5.2627    0.0374    0.0627 C.ar    1  UNL1        0.1286
      6 O           6.6296    0.1205    0.0626 O.3     1  UNL1       -0.5060
      7 C           4.5556   -1.1786    0.0627 C.ar    1  UNL1        0.0789
      8 C           3.1573   -1.1701    0.0628 C.ar    1  UNL1        0.0789
      9 C           2.4124   -2.4590    0.0630 C.2     1  UNL1        0.2101
     10 O           1.1882   -2.4996    0.0619 O.2     1  UNL1       -0.2855
     11 C           3.2016   -3.7218    0.0645 C.2     1  UNL1        0.1102
     12 CL          2.2757   -5.1912    0.0666 Cl      1  UNL1       -0.0779
     13 C           4.5374   -3.7192    0.0643 C.2     1  UNL1        0.1102
     14 CL          5.4872   -5.1688    0.0660 Cl      1  UNL1       -0.0779
     15 C           5.2997   -2.4509    0.0626 C.2     1  UNL1        0.2101
     16 O           6.5281   -2.4205    0.0613 O.2     1  UNL1       -0.2855
     17 H           0.8185    1.0535    0.0624 H       1  UNL1        0.2922
     18 H           2.6883    2.2317    0.0636 H       1  UNL1        0.0655
     19 H           5.1523    2.1858    0.0633 H       1  UNL1        0.0655
     20 H           7.0072   -0.7888    0.0619 H       1  UNL1        0.2922
@<TRIPOS>BOND
     1     1    17    1
     2     2     1    1
     3     3     2   ar
     4     3    18    1
     5     4     3   ar
     6     4    19    1
     7     5     4   ar
     8     6     5    1
     9     6    20    1
    10     7     5   ar
    11     8     7   ar
    12     8     2   ar
    13     9     8    1
    14    10     9    2
    15    11     9    1
    16    12    11    1
    17    13    11    2
    18    14    13    1
    19    15    13    1
    20    15     7    1
    21    16    15    2
