@<TRIPOS>MOLECULE
mol_519_akc_jparint201202001
>503.sdf
 53 55 0 0 0
SMALL
GASTEIGER

@<TRIPOS>ATOM
      1 H           0.9280    2.5619    0.8294 H       1  UNL1        0.0320
      2 C           1.4281    1.7908    0.2145 C.3     1  UNL1       -0.0157
      3 C           1.0927    0.4812    0.9982 C.3     1  UNL1       -0.0443
      4 C          -0.0553   -0.3788    0.4309 C.3     1  UNL1       -0.0233
      5 C          -1.1116    0.4914   -0.1979 C.2     1  UNL1        0.0069
      6 C          -0.7601    1.6187   -0.8488 C.2     1  UNL1        0.0123
      7 C          -1.8126    2.6596   -0.9459 C.2     1  UNL1        0.1834
      8 O          -1.5883    3.8563   -0.8084 O.2     1  UNL1       -0.2876
      9 C          -3.2105    2.2381   -0.9961 C.2     1  UNL1       -0.0076
     10 C          -3.5679    1.1024   -0.3818 C.2     1  UNL1        0.0057
     11 C          -4.9741    0.8466    0.0999 C.3     1  UNL1       -0.0178
     12 C          -5.0261    1.3523    1.5537 C.3     1  UNL1       -0.0585
     13 C          -6.0716    1.5016   -0.7452 C.3     1  UNL1       -0.0585
     14 C          -2.5264    0.1461    0.0819 C.2     1  UNL1        0.1860
     15 O          -2.8254   -0.8946    0.6566 O.2     1  UNL1       -0.2873
     16 C           0.7095    1.9131   -1.1681 C.3     1  UNL1        0.0008
     17 C           1.1955    0.8706   -2.2171 C.3     1  UNL1       -0.0551
     18 C           0.9819    3.2968   -1.8602 C.3     1  UNL1       -0.0432
     19 C           1.9423    4.1819   -1.0801 C.3     1  UNL1       -0.0512
     20 C           3.2022    3.3813   -0.7607 C.3     1  UNL1       -0.0372
     21 C           2.9357    2.2118    0.2309 C.3     1  UNL1        0.0686
     22 C           3.9213    1.0761   -0.1176 C.3     1  UNL1       -0.0491
     23 C           3.2700    2.6563    1.6704 C.2     1  UNL1        0.3131
     24 O           3.6670    1.8986    2.5475 O.2     1  UNL1       -0.2502
     25 O           3.0042    3.9762    1.8679 O.3     1  UNL1       -0.4675
     26 C           3.2788    4.4500    3.1864 C.3     1  UNL1        0.0817
     27 H           0.7935    0.7882    2.0140 H       1  UNL1        0.0272
     28 H           1.9563   -0.1670    1.1522 H       1  UNL1        0.0272
     29 H          -0.4629   -0.9642    1.2631 H       1  UNL1        0.0315
     30 H           0.3153   -1.1075   -0.2845 H       1  UNL1        0.0315
     31 H          -3.9114    3.0136   -1.2692 H       1  UNL1        0.0660
     32 H          -5.1759   -0.2312    0.0819 H       1  UNL1        0.0345
     33 H          -4.1804    2.0113    1.7993 H       1  UNL1        0.0235
     34 H          -5.9386    1.9141    1.7677 H       1  UNL1        0.0235
     35 H          -4.9708    0.5078    2.2479 H       1  UNL1        0.0235
     36 H          -7.0552    1.1364   -0.4291 H       1  UNL1        0.0235
     37 H          -6.0793    2.5922   -0.6368 H       1  UNL1        0.0235
     38 H          -5.9526    1.2622   -1.8072 H       1  UNL1        0.0235
     39 H           1.2192   -0.1565   -1.8560 H       1  UNL1        0.0238
     40 H           0.5498    0.8867   -3.1049 H       1  UNL1        0.0238
     41 H           2.2092    1.0943   -2.5660 H       1  UNL1        0.0238
     42 H           0.0904    3.8684   -2.1095 H       1  UNL1        0.0274
     43 H           1.4258    3.1423   -2.8537 H       1  UNL1        0.0274
     44 H           2.2006    5.0549   -1.6893 H       1  UNL1        0.0266
     45 H           1.4629    4.5664   -0.1726 H       1  UNL1        0.0266
     46 H           3.9798    4.0559   -0.3827 H       1  UNL1        0.0276
     47 H           3.5929    2.9879   -1.7090 H       1  UNL1        0.0276
     48 H           3.7611    0.6802   -1.1225 H       1  UNL1        0.0240
     49 H           4.9550    1.4394   -0.0689 H       1  UNL1        0.0240
     50 H           3.8685    0.2339    0.5778 H       1  UNL1        0.0240
     51 H           3.1578    5.5369    3.1854 H       1  UNL1        0.0661
     52 H           2.5651    4.0192    3.8943 H       1  UNL1        0.0661
     53 H           4.3079    4.2193    3.4795 H       1  UNL1        0.0661
@<TRIPOS>BOND
     1     2     1    1
     2     3     2    1
     3     3    27    1
     4     3    28    1
     5     4     3    1
     6     4    29    1
     7     4    30    1
     8     5     4    1
     9     6     5    2
    10     7     6    1
    11     8     7    2
    12     9     7    1
    13     9    31    1
    14    10     9    2
    15    11    10    1
    16    11    32    1
    17    12    11    1
    18    12    33    1
    19    12    34    1
    20    12    35    1
    21    13    11    1
    22    13    36    1
    23    13    37    1
    24    13    38    1
    25    14    10    1
    26    14     5    1
    27    15    14    2
    28    16     6    1
    29    16     2    1
    30    16    17    1
    31    17    39    1
    32    17    40    1
    33    17    41    1
    34    18    16    1
    35    18    42    1
    36    18    43    1
    37    19    18    1
    38    19    44    1
    39    19    45    1
    40    20    19    1
    41    20    46    1
    42    20    47    1
    43    21    20    1
    44    21     2    1
    45    21    22    1
    46    22    48    1
    47    22    49    1
    48    22    50    1
    49    23    21    1
    50    24    23    2
    51    25    23    1
    52    26    25    1
    53    26    51    1
    54    26    52    1
    55    26    53    1
