@<TRIPOS>MOLECULE
mol_51_akc_ajpp20164401
>51.sdf
 59 63 0 0 0
SMALL
GASTEIGER

@<TRIPOS>ATOM
      1 C           1.5390   -1.2474    3.3501 C.3     1  UNL1       -0.0569
      2 C           3.0239   -0.9364    3.2781 C.3     1  UNL1        0.0230
      3 C           3.4258   -0.2754    1.9668 C.2     1  UNL1        0.2351
      4 O           2.6101   -0.0051    1.0858 O.2     1  UNL1       -0.2739
      5 N           4.7693    0.0609    1.8784 N.am    1  UNL1       -0.1850
      6 N           5.6513   -0.2045    2.8978 N.2     1  UNL1       -0.1809
      7 C           6.7118    0.5085    2.6727 C.2     1  UNL1        0.0688
      8 C           6.6339    1.4143    1.4769 C.3     1  UNL1        0.0165
      9 C           5.2854    1.0077    0.8921 C.3     1  UNL1        0.0828
     10 C           5.4234    0.4227   -0.4810 C.ar    1  UNL1        0.0210
     11 C           5.6685   -0.8907   -0.8307 C.ar    1  UNL1        0.0369
     12 N           5.6719   -0.9658   -2.2026 N.ar    1  UNL1       -0.2390
     13 N           5.5408    0.2626   -2.7565 N.ar    1  UNL1       -0.1660
     14 C           5.3489    1.1122   -1.7340 C.ar    1  UNL1        0.0981
     15 C           5.1015    2.5365   -2.0113 C.ar    1  UNL1        0.0025
     16 C           4.3803    2.9130   -3.1547 C.ar    1  UNL1       -0.0523
     17 C           4.1146    4.2589   -3.4306 C.ar    1  UNL1       -0.0582
     18 C           4.5615    5.2613   -2.5649 C.ar    1  UNL1       -0.0504
     19 C           4.2821    6.7092   -2.8361 C.3     1  UNL1       -0.0397
     20 C           5.2904    4.8965   -1.4308 C.ar    1  UNL1       -0.0582
     21 C           5.5709    3.5519   -1.1694 C.ar    1  UNL1       -0.0523
     22 C           5.7915   -2.1234   -3.0253 C.ar    1  UNL1        0.0654
     23 C           5.8510   -3.4091   -2.4662 C.ar    1  UNL1       -0.0363
     24 C           5.9288   -4.5284   -3.2984 C.ar    1  UNL1       -0.0598
     25 C           5.9545   -4.3791   -4.6837 C.ar    1  UNL1       -0.0616
     26 C           5.9074   -3.1031   -5.2453 C.ar    1  UNL1       -0.0598
     27 C           5.8229   -1.9792   -4.4197 C.ar    1  UNL1       -0.0363
     28 C           7.9068    0.4903    3.5491 C.ar    1  UNL1       -0.0022
     29 C           7.9063   -0.3350    4.6805 C.ar    1  UNL1       -0.0528
     30 C           9.0218   -0.3748    5.5205 C.ar    1  UNL1       -0.0611
     31 C          10.1403    0.4052    5.2328 C.ar    1  UNL1       -0.0617
     32 C          10.1446    1.2330    4.1109 C.ar    1  UNL1       -0.0611
     33 C           9.0302    1.2776    3.2691 C.ar    1  UNL1       -0.0528
     34 H           1.2687   -1.5728    4.3597 H       1  UNL1        0.0234
     35 H           0.9337   -0.3685    3.1041 H       1  UNL1        0.0234
     36 H           1.2745   -2.0460    2.6501 H       1  UNL1        0.0234
     37 H           3.2705   -0.2427    4.0911 H       1  UNL1        0.0356
     38 H           3.5995   -1.8574    3.4167 H       1  UNL1        0.0356
     39 H           7.4782    1.2561    0.7993 H       1  UNL1        0.0351
     40 H           6.6191    2.4533    1.8223 H       1  UNL1        0.0351
     41 H           4.5934    1.8569    0.8679 H       1  UNL1        0.0576
     42 H           5.8035   -1.7636   -0.2088 H       1  UNL1        0.0834
     43 H           4.0176    2.1506   -3.8427 H       1  UNL1        0.0624
     44 H           3.5550    4.5127   -4.3276 H       1  UNL1        0.0620
     45 H           3.6825    7.1359   -2.0256 H       1  UNL1        0.0278
     46 H           5.2226    7.2641   -2.9170 H       1  UNL1        0.0278
     47 H           3.7306    6.8445   -3.7722 H       1  UNL1        0.0278
     48 H           5.6538    5.6599   -0.7460 H       1  UNL1        0.0620
     49 H           6.1804    3.3288   -0.3050 H       1  UNL1        0.0624
     50 H           5.8196   -3.5749   -1.3945 H       1  UNL1        0.0639
     51 H           5.9619   -5.5258   -2.8633 H       1  UNL1        0.0618
     52 H           6.0086   -5.2539   -5.3265 H       1  UNL1        0.0618
     53 H           5.9267   -2.9836   -6.3255 H       1  UNL1        0.0618
     54 H           5.7819   -0.9951   -4.8827 H       1  UNL1        0.0639
     55 H           7.0409   -0.9489    4.9172 H       1  UNL1        0.0624
     56 H           9.0170   -1.0195    6.3948 H       1  UNL1        0.0618
     57 H          11.0092    0.3704    5.8859 H       1  UNL1        0.0618
     58 H          11.0174    1.8416    3.8903 H       1  UNL1        0.0618
     59 H           9.0671    1.9333    2.4040 H       1  UNL1        0.0624
@<TRIPOS>BOND
     1     1    34    1
     2     1    35    1
     3     1    36    1
     4     2     1    1
     5     2    37    1
     6     2    38    1
     7     3     2    1
     8     4     3    2
     9     5     3   am
    10     6     5    1
    11     7     6    2
    12     8     7    1
    13     8    39    1
    14     8    40    1
    15     9     8    1
    16     9     5    1
    17    11    10   ar
    18    11    42    1
    19    12    11   ar
    20    13    12   ar
    21    14    13   ar
    22    14    10   ar
    23    15    14    1
    24    16    15   ar
    25    16    43    1
    26    17    16   ar
    27    17    44    1
    28    18    17   ar
    29    19    18    1
    30    19    45    1
    31    19    46    1
    32    19    47    1
    33    20    18   ar
    34    20    48    1
    35    21    20   ar
    36    21    15   ar
    37    21    49    1
    38    22    12    1
    39    23    22   ar
    40    23    50    1
    41    24    23   ar
    42    24    51    1
    43    25    24   ar
    44    25    52    1
    45    26    25   ar
    46    26    53    1
    47    27    26   ar
    48    27    22   ar
    49    27    54    1
    50    28     7    1
    51    29    28   ar
    52    29    55    1
    53    30    29   ar
    54    30    56    1
    55    31    30   ar
    56    31    57    1
    57    32    31   ar
    58    32    58    1
    59    33    32   ar
    60    33    28   ar
    61    33    59    1
    62     9    10    1
    63     9    41    1
