@<TRIPOS>MOLECULE
mol_520_akc_jparint201202001
>504.sdf
 47 49 0 0 0
SMALL
GASTEIGER

@<TRIPOS>ATOM
      1 H           1.3447    1.1216    1.1434 H       1  UNL1        0.0318
      2 C           1.4814    0.1773    0.5759 C.3     1  UNL1       -0.0223
      3 C           0.3756   -0.7538    1.1322 C.3     1  UNL1       -0.0195
      4 C          -0.8024   -0.0391    0.5245 C.2     1  UNL1        0.0073
      5 C          -0.4194    0.7700   -0.4780 C.2     1  UNL1        0.0134
      6 C          -1.2856    1.8828   -0.8508 C.2     1  UNL1        0.1973
      7 O          -0.8332    2.9866   -1.1518 O.2     1  UNL1       -0.2864
      8 C          -2.7341    1.5633   -0.8266 C.2     1  UNL1        0.0718
      9 BR         -3.7788    2.5014   -2.0619 Br      1  UNL1       -0.0459
     10 C          -3.1680    0.5715   -0.0184 C.2     1  UNL1        0.0197
     11 C          -4.5265   -0.0825   -0.1292 C.3     1  UNL1       -0.0167
     12 C          -4.3728   -1.6027   -0.2752 C.3     1  UNL1       -0.0585
     13 C          -5.4823    0.3157    0.9883 C.3     1  UNL1       -0.0585
     14 C          -2.1955   -0.0260    0.9699 C.2     1  UNL1        0.1871
     15 O          -2.5366   -0.5477    2.0221 O.2     1  UNL1       -0.2873
     16 C           0.9990    0.5016   -0.8601 C.3     1  UNL1        0.0006
     17 C           0.9550   -0.6883   -1.8604 C.3     1  UNL1       -0.0551
     18 C           1.8242    1.6399   -1.4521 C.3     1  UNL1       -0.0432
     19 C           3.3078    1.2827   -1.4274 C.3     1  UNL1       -0.0518
     20 C           3.7894    1.0043    0.0013 C.3     1  UNL1       -0.0476
     21 C           2.9887   -0.0931    0.7718 C.3     1  UNL1       -0.0310
     22 C           3.3181    0.0647    2.2773 C.3     1  UNL1       -0.0595
     23 C           3.4574   -1.4920    0.3566 C.3     1  UNL1       -0.0595
     24 H           0.3520   -0.7426    2.2244 H       1  UNL1        0.0318
     25 H           0.4561   -1.7838    0.7745 H       1  UNL1        0.0318
     26 H          -5.0038    0.2290   -1.0651 H       1  UNL1        0.0345
     27 H          -3.5874   -1.8460   -1.0017 H       1  UNL1        0.0235
     28 H          -4.1211   -2.0867    0.6717 H       1  UNL1        0.0235
     29 H          -5.3029   -2.0476   -0.6414 H       1  UNL1        0.0235
     30 H          -5.0290    0.2336    1.9799 H       1  UNL1        0.0235
     31 H          -5.8048    1.3561    0.8548 H       1  UNL1        0.0235
     32 H          -6.3805   -0.3113    0.9713 H       1  UNL1        0.0235
     33 H           0.6081   -0.3483   -2.8435 H       1  UNL1        0.0238
     34 H           0.2680   -1.4884   -1.5572 H       1  UNL1        0.0238
     35 H           1.9268   -1.1558   -2.0165 H       1  UNL1        0.0238
     36 H           1.5058    1.8514   -2.4803 H       1  UNL1        0.0274
     37 H           1.6734    2.5643   -0.8817 H       1  UNL1        0.0274
     38 H           3.8779    2.1198   -1.8466 H       1  UNL1        0.0266
     39 H           3.5127    0.4199   -2.0709 H       1  UNL1        0.0266
     40 H           3.7138    1.9516    0.5531 H       1  UNL1        0.0271
     41 H           4.8558    0.7511   -0.0226 H       1  UNL1        0.0271
     42 H           2.9728    1.0321    2.6625 H       1  UNL1        0.0235
     43 H           4.3988    0.0168    2.4534 H       1  UNL1        0.0235
     44 H           2.8411   -0.7185    2.8745 H       1  UNL1        0.0235
     45 H           2.8865   -2.2747    0.8660 H       1  UNL1        0.0235
     46 H           4.5122   -1.6354    0.6251 H       1  UNL1        0.0235
     47 H           3.3939   -1.6640   -0.7172 H       1  UNL1        0.0235
@<TRIPOS>BOND
     1     2     1    1
     2     3     2    1
     3     3    24    1
     4     3    25    1
     5     4     3    1
     6     5     4    2
     7     6     5    1
     8     7     6    2
     9     8     6    1
    10     9     8    1
    11    10     8    2
    12    11    10    1
    13    11    26    1
    14    12    11    1
    15    12    27    1
    16    12    28    1
    17    12    29    1
    18    13    11    1
    19    13    30    1
    20    13    31    1
    21    13    32    1
    22    14    10    1
    23    14     4    1
    24    15    14    2
    25    16     5    1
    26    16     2    1
    27    16    17    1
    28    17    33    1
    29    17    34    1
    30    17    35    1
    31    18    16    1
    32    18    36    1
    33    18    37    1
    34    19    18    1
    35    19    38    1
    36    19    39    1
    37    20    19    1
    38    20    40    1
    39    20    41    1
    40    21    20    1
    41    21     2    1
    42    22    21    1
    43    22    42    1
    44    22    43    1
    45    22    44    1
    46    23    21    1
    47    23    45    1
    48    23    46    1
    49    23    47    1
