@<TRIPOS>MOLECULE
mol_521_akc_jacdks159
>505.sdf
 71 74 0 0 0
SMALL
GASTEIGER

@<TRIPOS>ATOM
      1 C          -3.2016   10.2188   -7.8233 C.3     1  UNL1        0.0820
      2 O          -1.8637    9.9800   -7.3847 O.3     1  UNL1       -0.4646
      3 C          -0.9624   10.8818   -7.8527 C.2     1  UNL1        0.3382
      4 O          -1.2406   11.8206   -8.5880 O.2     1  UNL1       -0.2452
      5 C           0.4090   10.5843   -7.3733 C.2     1  UNL1        0.0779
      6 C           0.6029    9.7214   -6.3564 C.2     1  UNL1        0.0982
      7 O           1.8251    9.3469   -5.8343 O.2     1  UNL1       -0.4702
      8 C           2.9816    9.7541   -6.6025 C.3     1  UNL1        0.2073
      9 O           3.1681    8.9792   -7.7881 O.3     1  UNL1       -0.3096
     10 C           3.3930    7.5866   -7.5698 C.3     1  UNL1        0.1918
     11 O           2.2469    7.0140   -6.9570 O.3     1  UNL1       -0.3404
     12 C           2.3263    5.6092   -6.7269 C.3     1  UNL1        0.1130
     13 C           1.0577    5.2065   -5.9606 C.3     1  UNL1        0.0730
     14 O          -0.1146    5.4165   -6.7499 O.3     1  UNL1       -0.3924
     15 C           2.4703    4.8597   -8.0552 C.3     1  UNL1        0.1119
     16 O           2.6781    3.4599   -7.8239 O.3     1  UNL1       -0.3865
     17 C           3.6810    5.4071   -8.8144 C.3     1  UNL1        0.1141
     18 O           3.7501    4.8200  -10.1278 O.3     1  UNL1       -0.3864
     19 C           3.6292    6.9301   -8.9488 C.3     1  UNL1        0.1342
     20 O           4.8621    7.3638   -9.5456 O.3     1  UNL1       -0.3841
     21 C           2.7554   11.2183   -6.9860 C.3     1  UNL1        0.0373
     22 C           3.8624   12.0782   -7.6007 C.3     1  UNL1       -0.0051
     23 C           4.9467   11.3149   -8.3529 C.3     1  UNL1       -0.0595
     24 C           3.0875   13.1228   -8.4493 C.3     1  UNL1        0.0957
     25 O           3.6044   13.1634   -9.7769 O.3     1  UNL1       -0.3878
     26 C           1.5844   12.7255   -8.4022 C.3     1  UNL1        0.1368
     27 O           0.9722   12.8805   -9.6916 O.3     1  UNL1       -0.4550
     28 C           0.4633   14.1115   -9.9417 C.2     1  UNL1        0.3323
     29 O           0.5990   15.0859   -9.2254 O.2     1  UNL1       -0.2456
     30 C          -0.2071   14.0563  -11.2601 C.2     1  UNL1        0.0231
     31 C          -0.3983   15.1062  -12.0774 C.2     1  UNL1       -0.0478
     32 C           0.0595   16.4641  -11.7888 C.ar    1  UNL1       -0.0246
     33 C           1.3257   16.8807  -12.2169 C.ar    1  UNL1       -0.0511
     34 C           1.8209   18.1279  -11.8309 C.ar    1  UNL1       -0.0196
     35 C           1.0420   18.9529  -11.0241 C.ar    1  UNL1        0.1169
     36 O           1.5086   20.1555  -10.5823 O.3     1  UNL1       -0.5068
     37 C          -0.2327   18.5669  -10.6268 C.ar    1  UNL1       -0.0196
     38 C          -0.7272   17.3207  -11.0108 C.ar    1  UNL1       -0.0511
     39 C           1.6077   11.2487   -8.0132 C.3     1  UNL1        0.0422
     40 H          -3.5403   11.2092   -7.5032 H       1  UNL1        0.0661
     41 H          -3.2703   10.1191   -8.9119 H       1  UNL1        0.0661
     42 H          -3.8481    9.4670   -7.3645 H       1  UNL1        0.0661
     43 H          -0.1848    9.2148   -5.8114 H       1  UNL1        0.1029
     44 H           3.8617    9.6590   -5.9568 H       1  UNL1        0.1059
     45 H           4.2761    7.4686   -6.9291 H       1  UNL1        0.0939
     46 H           3.1853    5.4038   -6.0751 H       1  UNL1        0.0647
     47 H           1.0851    4.1530   -5.6695 H       1  UNL1        0.0584
     48 H           0.9654    5.8230   -5.0589 H       1  UNL1        0.0584
     49 H          -0.8553    5.5291   -6.1294 H       1  UNL1        0.2095
     50 H           1.5701    4.9736   -8.6720 H       1  UNL1        0.0647
     51 H           2.2598    2.9922   -8.5696 H       1  UNL1        0.2100
     52 H           4.6120    5.1121   -8.3137 H       1  UNL1        0.0648
     53 H           3.9455    3.8750   -9.9902 H       1  UNL1        0.2100
     54 H           2.8302    7.2212   -9.6420 H       1  UNL1        0.0671
     55 H           4.9210    6.8763  -10.3896 H       1  UNL1        0.2101
     56 H           2.4284   11.7521   -6.0765 H       1  UNL1        0.0372
     57 H           4.3641   12.6084   -6.7793 H       1  UNL1        0.0329
     58 H           5.6878   12.0070   -8.7671 H       1  UNL1        0.0233
     59 H           5.4827   10.6375   -7.6800 H       1  UNL1        0.0233
     60 H           4.5345   10.7267   -9.1783 H       1  UNL1        0.0233
     61 H           3.2108   14.1246   -8.0209 H       1  UNL1        0.0633
     62 H           2.9393   13.6123  -10.3261 H       1  UNL1        0.2099
     63 H           1.0545   13.2954   -7.6269 H       1  UNL1        0.0766
     64 H          -0.5512   13.0706  -11.5611 H       1  UNL1        0.0689
     65 H          -0.9008   14.9717  -13.0299 H       1  UNL1        0.0626
     66 H           1.9444   16.2265  -12.8263 H       1  UNL1        0.0625
     67 H           2.8136   18.4276  -12.1504 H       1  UNL1        0.0654
     68 H           2.4542   20.2114  -10.7958 H       1  UNL1        0.2921
     69 H          -0.8260   19.2163   -9.9902 H       1  UNL1        0.0654
     70 H          -1.7057   17.0034  -10.6592 H       1  UNL1        0.0625
     71 H           1.8510   10.6696   -8.9162 H       1  UNL1        0.0394
@<TRIPOS>BOND
     1     1    40    1
     2     1    41    1
     3     1    42    1
     4     2     1    1
     5     3     2    1
     6     4     3    2
     7     5     3    1
     8     6     5    2
     9     6    43    1
    10     7     6    1
    11     8     7    1
    12     8    44    1
    13     9     8    1
    14    11    10    1
    15    12    11    1
    16    13    47    1
    17    13    48    1
    18    14    13    1
    19    14    49    1
    20    15    12    1
    21    15    50    1
    22    16    15    1
    23    16    51    1
    24    17    15    1
    25    17    52    1
    26    18    17    1
    27    18    53    1
    28    19    17    1
    29    19    10    1
    30    19    54    1
    31    20    19    1
    32    20    55    1
    33    21     8    1
    34    21    56    1
    35    22    21    1
    36    23    58    1
    37    23    59    1
    38    23    60    1
    39    24    22    1
    40    25    62    1
    41    26    24    1
    42    28    27    1
    43    29    28    2
    44    30    28    1
    45    30    64    1
    46    31    30    2
    47    31    65    1
    48    32    31    1
    49    33    32   ar
    50    33    66    1
    51    34    33   ar
    52    34    67    1
    53    35    34   ar
    54    36    35    1
    55    36    68    1
    56    37    35   ar
    57    37    69    1
    58    38    37   ar
    59    38    32   ar
    60    38    70    1
    61    39    26    1
    62    39     5    1
    63    39    21    1
    64    39    71    1
    65    10    45    1
    66    10     9    1
    67    12    13    1
    68    12    46    1
    69    22    23    1
    70    22    57    1
    71    24    25    1
    72    24    61    1
    73    26    27    1
    74    26    63    1
