@<TRIPOS>MOLECULE
mol_522_akc_jejmech201204034
>505.sdf
 71 74 0 0 0
SMALL
GASTEIGER

@<TRIPOS>ATOM
      1 C          -3.1967   10.2358   -8.0160 C.3     1  UNL1        0.0820
      2 O          -1.8586    9.9898   -7.5838 O.3     1  UNL1       -0.4646
      3 C          -0.9505   10.8567   -8.1022 C.2     1  UNL1        0.3382
      4 O          -1.2175   11.7584   -8.8809 O.2     1  UNL1       -0.2452
      5 C           0.4202   10.5648   -7.6204 C.2     1  UNL1        0.0779
      6 C           0.6205    9.7415   -6.5708 C.2     1  UNL1        0.0982
      7 O           1.8453    9.3748   -6.0534 O.2     1  UNL1       -0.4702
      8 C           2.9956    9.7462   -6.8483 C.3     1  UNL1        0.2073
      9 O           3.1652    8.9335   -8.0104 O.3     1  UNL1       -0.3096
     10 C           3.3832    7.5457   -7.7592 C.3     1  UNL1        0.1918
     11 O           2.2421    6.9991   -7.1130 O.3     1  UNL1       -0.3404
     12 C           2.3035    5.5966   -6.8654 C.3     1  UNL1        0.1130
     13 C           1.0415    5.2211   -6.0735 C.3     1  UNL1        0.0730
     14 O          -0.1427    5.4603   -6.8366 O.3     1  UNL1       -0.3924
     15 C           2.4162    4.8234   -8.1831 C.3     1  UNL1        0.1119
     16 O           2.6074    3.4248   -7.9306 O.3     1  UNL1       -0.3865
     17 C           3.6232    5.3394   -8.9690 C.3     1  UNL1        0.1141
     18 O           3.6649    4.7300  -10.2732 O.3     1  UNL1       -0.3864
     19 C           3.5893    6.8596   -9.1293 C.3     1  UNL1        0.1342
     20 O           4.8178    7.2700   -9.7537 O.3     1  UNL1       -0.3841
     21 C           2.7726   11.1964   -7.2870 C.3     1  UNL1        0.0373
     22 C           3.8809   12.0222   -7.9447 C.3     1  UNL1       -0.0051
     23 C           4.9661   11.2225   -8.6574 C.3     1  UNL1       -0.0595
     24 C           3.1091   13.0216   -8.8430 C.3     1  UNL1        0.0957
     25 O           3.6044   12.9678  -10.1820 O.3     1  UNL1       -0.3878
     26 C           1.5985   12.6533   -8.7575 C.3     1  UNL1        0.1368
     27 O           1.0387   12.7806  -10.0761 O.3     1  UNL1       -0.4550
     28 C           0.4862   13.9942  -10.3511 C.2     1  UNL1        0.3323
     29 O           0.2877   14.8847   -9.5496 O.2     1  UNL1       -0.2456
     30 C           0.3524   14.0685  -11.8289 C.2     1  UNL1        0.0231
     31 C           0.3426   15.2096  -12.5423 C.2     1  UNL1       -0.0478
     32 C           0.4049   16.5467  -11.9558 C.ar    1  UNL1       -0.0246
     33 C           1.6380   17.1692  -11.7290 C.ar    1  UNL1       -0.0511
     34 C           1.6925   18.3867  -11.0454 C.ar    1  UNL1       -0.0196
     35 C           0.5113   18.9751  -10.6008 C.ar    1  UNL1        0.1169
     36 O           0.5230   20.1376   -9.8878 O.3     1  UNL1       -0.5068
     37 C          -0.7209   18.3855  -10.8545 C.ar    1  UNL1       -0.0196
     38 C          -0.7753   17.1691  -11.5344 C.ar    1  UNL1       -0.0511
     39 C           1.6125   11.1934   -8.3037 C.3     1  UNL1        0.0422
     40 H          -3.5138   11.2402   -7.7196 H       1  UNL1        0.0661
     41 H          -3.2805   10.1066   -9.1002 H       1  UNL1        0.0661
     42 H          -3.8512    9.5086   -7.5284 H       1  UNL1        0.0661
     43 H          -0.1655    9.2660   -5.9945 H       1  UNL1        0.1029
     44 H           3.8824    9.6688   -6.2093 H       1  UNL1        0.1059
     45 H           4.2759    7.4350   -7.1313 H       1  UNL1        0.0939
     46 H           3.1693    5.3864   -6.2241 H       1  UNL1        0.0647
     47 H           1.0507    4.1664   -5.7868 H       1  UNL1        0.0584
     48 H           0.9825    5.8365   -5.1687 H       1  UNL1        0.0584
     49 H          -0.8754    5.5366   -6.2012 H       1  UNL1        0.2095
     50 H           1.5082    4.9399   -8.7881 H       1  UNL1        0.0647
     51 H           2.1932    2.9509   -8.6744 H       1  UNL1        0.2100
     52 H           4.5578    5.0405   -8.4768 H       1  UNL1        0.0648
     53 H           3.8592    3.7867  -10.1244 H       1  UNL1        0.2100
     54 H           2.7816    7.1482   -9.8140 H       1  UNL1        0.0671
     55 H           4.8547    6.7627  -10.5922 H       1  UNL1        0.2101
     56 H           2.4596   11.7672   -6.3954 H       1  UNL1        0.0372
     57 H           4.3815   12.5939   -7.1515 H       1  UNL1        0.0329
     58 H           5.6983   11.8933   -9.1198 H       1  UNL1        0.0233
     59 H           5.5125   10.5917   -7.9485 H       1  UNL1        0.0233
     60 H           4.5539   10.5815   -9.4426 H       1  UNL1        0.0233
     61 H           3.2519   14.0494   -8.4924 H       1  UNL1        0.0633
     62 H           2.8299   12.9344  -10.7715 H       1  UNL1        0.2099
     63 H           1.0827   13.2687   -8.0080 H       1  UNL1        0.0766
     64 H           0.3177   13.1167  -12.3460 H       1  UNL1        0.0689
     65 H           0.2883   15.1751  -13.6271 H       1  UNL1        0.0626
     66 H           2.5629   16.6962  -12.0507 H       1  UNL1        0.0625
     67 H           2.6566   18.8450  -10.8528 H       1  UNL1        0.0654
     68 H           1.4433   20.3426   -9.6567 H       1  UNL1        0.2921
     69 H          -1.6337   18.8495  -10.4943 H       1  UNL1        0.0654
     70 H          -1.7379   16.6880  -11.6901 H       1  UNL1        0.0625
     71 H           1.8393   10.5742   -9.1838 H       1  UNL1        0.0394
@<TRIPOS>BOND
     1     1    40    1
     2     1    41    1
     3     1    42    1
     4     2     1    1
     5     3     2    1
     6     4     3    2
     7     5     3    1
     8     6     5    2
     9     6    43    1
    10     7     6    1
    11     8     7    1
    12     8    44    1
    13     9     8    1
    14    11    10    1
    15    12    11    1
    16    13    47    1
    17    13    48    1
    18    14    13    1
    19    14    49    1
    20    15    12    1
    21    15    50    1
    22    16    15    1
    23    16    51    1
    24    17    15    1
    25    17    52    1
    26    18    17    1
    27    18    53    1
    28    19    17    1
    29    19    10    1
    30    19    54    1
    31    20    19    1
    32    20    55    1
    33    21     8    1
    34    21    56    1
    35    22    21    1
    36    23    58    1
    37    23    59    1
    38    23    60    1
    39    24    22    1
    40    25    62    1
    41    26    24    1
    42    28    27    1
    43    29    28    2
    44    30    28    1
    45    30    64    1
    46    31    30    2
    47    31    65    1
    48    32    31    1
    49    33    32   ar
    50    33    66    1
    51    34    33   ar
    52    34    67    1
    53    35    34   ar
    54    36    35    1
    55    36    68    1
    56    37    35   ar
    57    37    69    1
    58    38    37   ar
    59    38    32   ar
    60    38    70    1
    61    39    26    1
    62    39     5    1
    63    39    21    1
    64    39    71    1
    65    10    45    1
    66    10     9    1
    67    12    13    1
    68    12    46    1
    69    22    23    1
    70    22    57    1
    71    24    25    1
    72    24    61    1
    73    26    27    1
    74    26    63    1
