@<TRIPOS>MOLECULE
mol_525_akc_s00436_012_2818_9
>508.sdf
 30 33 0 0 0
SMALL
GASTEIGER

@<TRIPOS>ATOM
      1 C           0.8485    0.0007   -0.0882 C.3     1  UNL1        0.0125
      2 N           2.3098    0.0092   -0.0887 N.ar    1  UNL1       -0.3412
      3 C           3.0271   -1.1930   -0.0885 C.ar    1  UNL1        0.0770
      4 C           2.6534   -2.4811   -0.0891 C.ar    1  UNL1        0.0270
      5 C           1.4232   -3.2123   -0.0905 C.ar    1  UNL1       -0.0365
      6 C           1.4517   -4.5561   -0.0891 C.ar    1  UNL1        0.0186
      7 BR         -0.1220   -5.5626   -0.0899 Br      1  UNL1       -0.0503
      8 C           2.7155   -5.2803   -0.0865 C.ar    1  UNL1       -0.0457
      9 C           3.9115   -4.6644   -0.0860 C.ar    1  UNL1       -0.0346
     10 C           3.9533   -3.1872   -0.0874 C.ar    1  UNL1        0.0738
     11 N           5.0089   -2.4355   -0.0865 N.ar    1  UNL1       -0.2451
     12 C           4.4906   -1.1637   -0.0869 C.ar    1  UNL1        0.0892
     13 C           5.1867   -0.0271   -0.0866 C.ar    1  UNL1       -0.0251
     14 C           4.4475    1.2434   -0.0871 C.ar    1  UNL1        0.0016
     15 C           3.0189    1.2482   -0.0882 C.ar    1  UNL1        0.0494
     16 C           2.3939    2.5081   -0.0888 C.ar    1  UNL1       -0.0366
     17 C           3.1307    3.6999   -0.0878 C.ar    1  UNL1       -0.0458
     18 C           4.5179    3.6608   -0.0863 C.ar    1  UNL1        0.0186
     19 BR          5.4999    5.2751   -0.0848 Br      1  UNL1       -0.0503
     20 C           5.1821    2.4407   -0.0860 C.ar    1  UNL1       -0.0386
     21 H           0.4810   -0.5184   -0.9808 H       1  UNL1        0.0456
     22 H           0.4815   -0.5219    0.8026 H       1  UNL1        0.0456
     23 H           0.3563    0.9718   -0.0858 H       1  UNL1        0.0456
     24 H           0.4820   -2.6803   -0.0926 H       1  UNL1        0.0636
     25 H           2.6779   -6.3663   -0.0854 H       1  UNL1        0.0629
     26 H           4.8535   -5.1965   -0.0843 H       1  UNL1        0.0639
     27 H           6.2690   -0.0326   -0.0855 H       1  UNL1        0.0646
     28 H           1.3177    2.6249   -0.0903 H       1  UNL1        0.0639
     29 H           2.6024    4.6502   -0.0882 H       1  UNL1        0.0629
     30 H           6.2689    2.4164   -0.0849 H       1  UNL1        0.0635
@<TRIPOS>BOND
     1     1    21    1
     2     1    22    1
     3     1    23    1
     4     2     1    1
     5     3     2   ar
     6     4     3   ar
     7     5     4   ar
     8     5    24    1
     9     6     5   ar
    10     7     6    1
    11     8     6   ar
    12     8    25    1
    13     9     8   ar
    14     9    26    1
    15    10     9   ar
    16    10     4   ar
    17    11    10   ar
    18    12    11   ar
    19    12     3    1
    20    13    12   ar
    21    13    27    1
    22    14    13   ar
    23    15    14   ar
    24    15     2   ar
    25    16    15   ar
    26    16    28    1
    27    17    16   ar
    28    17    29    1
    29    18    17   ar
    30    19    18    1
    31    20    18   ar
    32    20    14   ar
    33    20    30    1
