@<TRIPOS>MOLECULE
mol_526_akc_s0074_02762012000300012
>509.sdf
 54 56 0 0 0
SMALL
GASTEIGER

@<TRIPOS>ATOM
      1 C           5.4118    1.2608   -1.4395 C.3     1  UNL1       -0.0585
      2 C           4.8494    2.0278   -0.2316 C.3     1  UNL1       -0.0181
      3 C           5.5500    3.3787   -0.0865 C.3     1  UNL1       -0.0585
      4 C           3.3369    2.1954   -0.2872 C.ar    1  UNL1       -0.0031
      5 C           2.5066    2.0321    0.8332 C.ar    1  UNL1        0.1237
      6 O           3.0270    1.8099    2.0839 O.3     1  UNL1       -0.5062
      7 C           1.0938    2.0657    0.7386 C.ar    1  UNL1       -0.0019
      8 C           0.4924    2.2280   -0.5264 C.ar    1  UNL1       -0.0343
      9 C           1.3282    2.4988   -1.6247 C.ar    1  UNL1       -0.0573
     10 C           2.7173    2.4996   -1.5038 C.ar    1  UNL1       -0.0546
     11 C          -1.0440    2.1800   -0.7224 C.3     1  UNL1       -0.0008
     12 C          -1.4301    3.6748   -0.9188 C.3     1  UNL1       -0.0550
     13 C          -1.4254    1.4126   -2.0250 C.3     1  UNL1       -0.0431
     14 C          -2.8666    0.8914   -2.0929 C.3     1  UNL1       -0.0517
     15 C          -3.8411    1.5177   -1.1016 C.3     1  UNL1       -0.0473
     16 C          -3.3657    1.5713    0.3863 C.3     1  UNL1       -0.0287
     17 C          -4.0905    0.4325    1.1570 C.3     1  UNL1       -0.0593
     18 C          -3.9437    2.8676    1.0197 C.3     1  UNL1       -0.0593
     19 C          -1.7674    1.4565    0.5011 C.3     1  UNL1       -0.0173
     20 C          -1.3596   -0.0648    0.5449 C.3     1  UNL1       -0.0583
     21 C          -1.2290    2.0853    1.8142 C.3     1  UNL1       -0.0422
     22 C           0.2759    1.8716    1.9937 C.3     1  UNL1       -0.0234
     23 H           5.3564    1.8450   -2.3643 H       1  UNL1        0.0235
     24 H           6.4658    1.0122   -1.2771 H       1  UNL1        0.0235
     25 H           4.8665    0.3234   -1.5977 H       1  UNL1        0.0235
     26 H           5.1058    1.4124    0.6389 H       1  UNL1        0.0345
     27 H           5.3306    4.0411   -0.9314 H       1  UNL1        0.0235
     28 H           5.2341    3.8903    0.8290 H       1  UNL1        0.0235
     29 H           6.6367    3.2472   -0.0376 H       1  UNL1        0.0235
     30 H           3.9417    2.1289    2.1028 H       1  UNL1        0.2922
     31 H           0.9063    2.7138   -2.6034 H       1  UNL1        0.0621
     32 H           3.3040    2.7166   -2.3927 H       1  UNL1        0.0622
     33 H          -0.8559    4.1367   -1.7323 H       1  UNL1        0.0238
     34 H          -2.4715    3.8187   -1.2030 H       1  UNL1        0.0238
     35 H          -1.2291    4.2765   -0.0268 H       1  UNL1        0.0238
     36 H          -1.2525    2.0489   -2.9028 H       1  UNL1        0.0274
     37 H          -0.7563    0.5515   -2.1653 H       1  UNL1        0.0274
     38 H          -3.2465    1.0440   -3.1112 H       1  UNL1        0.0266
     39 H          -2.8698   -0.1966   -1.9622 H       1  UNL1        0.0266
     40 H          -4.7938    0.9766   -1.1734 H       1  UNL1        0.0271
     41 H          -4.0784    2.5256   -1.4612 H       1  UNL1        0.0271
     42 H          -3.7585    0.3838    2.2018 H       1  UNL1        0.0235
     43 H          -5.1755    0.5942    1.1731 H       1  UNL1        0.0235
     44 H          -3.9333   -0.5467    0.6979 H       1  UNL1        0.0235
     45 H          -3.8584    2.8561    2.1120 H       1  UNL1        0.0235
     46 H          -5.0105    2.9731    0.7855 H       1  UNL1        0.0235
     47 H          -3.4571    3.7784    0.6691 H       1  UNL1        0.0235
     48 H          -1.5747   -0.4993    1.5285 H       1  UNL1        0.0236
     49 H          -1.8865   -0.6749   -0.1897 H       1  UNL1        0.0236
     50 H          -0.2950   -0.2297    0.3555 H       1  UNL1        0.0236
     51 H          -1.7450    1.6654    2.6867 H       1  UNL1        0.0274
     52 H          -1.4261    3.1623    1.8393 H       1  UNL1        0.0274
     53 H           0.4549    0.8564    2.3703 H       1  UNL1        0.0315
     54 H           0.6254    2.5648    2.7689 H       1  UNL1        0.0315
@<TRIPOS>BOND
     1     1    23    1
     2     1    24    1
     3     1    25    1
     4     2     1    1
     5     2    26    1
     6     3     2    1
     7     3    27    1
     8     3    28    1
     9     3    29    1
    10     5     4   ar
    11     6    30    1
    12     7     5   ar
    13     8     7   ar
    14     9     8   ar
    15    10     9   ar
    16    10     4   ar
    17    11     8    1
    18    12    33    1
    19    12    34    1
    20    12    35    1
    21    13    11    1
    22    14    13    1
    23    15    14    1
    24    16    15    1
    25    17    42    1
    26    17    43    1
    27    17    44    1
    28    18    45    1
    29    18    46    1
    30    18    47    1
    31    19    16    1
    32    19    11    1
    33    20    48    1
    34    20    49    1
    35    20    50    1
    36    21    19    1
    37    22    21    1
    38    22     7    1
    39     4     2    1
    40     6     5    1
    41     9    31    1
    42    10    32    1
    43    11    12    1
    44    13    36    1
    45    13    37    1
    46    14    38    1
    47    14    39    1
    48    15    40    1
    49    15    41    1
    50    17    16    1
    51    18    16    1
    52    19    20    1
    53    21    51    1
    54    21    52    1
    55    22    53    1
    56    22    54    1
