@<TRIPOS>MOLECULE
mol_527_akc_s_0031_1298459
>510.sdf
 46 46 0 0 0
SMALL
GASTEIGER

@<TRIPOS>ATOM
      1 C          -0.9070    4.9805    3.4359 C.3     1  UNL1        0.0788
      2 O           0.3000    5.6976    3.2017 O.3     1  UNL1       -0.4951
      3 C           1.4718    5.0115    3.3670 C.ar    1  UNL1        0.1206
      4 C           1.6001    3.7161    3.8727 C.ar    1  UNL1       -0.0130
      5 C           2.8557    3.0630    3.9647 C.ar    1  UNL1        0.0014
      6 C           2.9408    1.6320    4.4595 C.3     1  UNL1       -0.0057
      7 C           1.6321    0.9318    4.7014 C.2     1  UNL1       -0.0806
      8 C           0.9437    0.8200    5.8598 C.2     1  UNL1       -0.0759
      9 C           1.4016    1.4300    7.1614 C.3     1  UNL1       -0.0438
     10 C          -0.3989    0.0988    5.9635 C.3     1  UNL1       -0.0286
     11 C          -0.9250   -0.4717    4.6398 C.3     1  UNL1       -0.0308
     12 C          -2.2488   -1.1735    4.7114 C.2     1  UNL1       -0.0850
     13 C          -2.8422   -1.7386    3.6392 C.2     1  UNL1       -0.0796
     14 C          -2.2556   -1.7329    2.2518 C.3     1  UNL1       -0.0440
     15 C          -4.1683   -2.4319    3.7753 C.3     1  UNL1       -0.0440
     16 C           3.9963    3.7738    3.5483 C.ar    1  UNL1        0.1238
     17 O           5.2724    3.2857    3.4449 O.3     1  UNL1       -0.4948
     18 C           5.7878    2.5612    4.5533 C.3     1  UNL1        0.0788
     19 C           3.8641    5.0797    3.0571 C.ar    1  UNL1       -0.0162
     20 C           2.6157    5.6960    2.9750 C.ar    1  UNL1       -0.0165
     21 H          -0.9660    4.0770    2.8189 H       1  UNL1        0.0660
     22 H          -1.0173    4.7415    4.4985 H       1  UNL1        0.0660
     23 H          -1.7423    5.6277    3.1507 H       1  UNL1        0.0660
     24 H           0.7076    3.1860    4.1871 H       1  UNL1        0.0658
     25 H           3.4741    1.0407    3.7037 H       1  UNL1        0.0357
     26 H           3.5340    1.5938    5.3759 H       1  UNL1        0.0357
     27 H           1.2443    0.4825    3.7904 H       1  UNL1        0.0575
     28 H           0.6376    2.1144    7.5464 H       1  UNL1        0.0274
     29 H           1.5711    0.6452    7.9054 H       1  UNL1        0.0274
     30 H           2.3254    2.0069    7.0733 H       1  UNL1        0.0274
     31 H          -0.3026   -0.7129    6.6958 H       1  UNL1        0.0313
     32 H          -1.1396    0.8045    6.3632 H       1  UNL1        0.0313
     33 H          -1.0226    0.3539    3.9228 H       1  UNL1        0.0310
     34 H          -0.1885   -1.1893    4.2550 H       1  UNL1        0.0310
     35 H          -2.7403   -1.2209    5.6821 H       1  UNL1        0.0572
     36 H          -2.0957   -2.7596    1.9067 H       1  UNL1        0.0274
     37 H          -2.9367   -1.2310    1.5566 H       1  UNL1        0.0274
     38 H          -1.2933   -1.2177    2.1868 H       1  UNL1        0.0274
     39 H          -4.0937   -3.2725    4.4736 H       1  UNL1        0.0274
     40 H          -4.9345   -1.7350    4.1318 H       1  UNL1        0.0274
     41 H          -4.5093   -2.8324    2.8145 H       1  UNL1        0.0274
     42 H           5.3742    2.9001    5.5116 H       1  UNL1        0.0660
     43 H           5.6313    1.4917    4.4074 H       1  UNL1        0.0660
     44 H           6.8702    2.7242    4.5864 H       1  UNL1        0.0660
     45 H           4.7462    5.6198    2.7217 H       1  UNL1        0.0655
     46 H           2.5352    6.7062    2.5829 H       1  UNL1        0.0655
@<TRIPOS>BOND
     1     1    21    1
     2     1    22    1
     3     1    23    1
     4     2     1    1
     5     3     2    1
     6     4     3   ar
     7     4    24    1
     8     5     4   ar
     9     6     5    1
    10     6    25    1
    11     6    26    1
    12     7     6    1
    13     7    27    1
    14     8     7    2
    15     9     8    1
    16     9    28    1
    17     9    29    1
    18     9    30    1
    19    10     8    1
    20    10    31    1
    21    10    32    1
    22    11    10    1
    23    11    33    1
    24    11    34    1
    25    12    11    1
    26    12    35    1
    27    13    12    2
    28    14    13    1
    29    14    36    1
    30    14    37    1
    31    14    38    1
    32    15    13    1
    33    15    39    1
    34    15    40    1
    35    15    41    1
    36    16     5   ar
    37    17    16    1
    38    18    17    1
    39    18    42    1
    40    18    43    1
    41    18    44    1
    42    19    16   ar
    43    19    45    1
    44    20    19   ar
    45    20     3   ar
    46    20    46    1
