@<TRIPOS>MOLECULE
mol_528_akc_jbiopha201110005
>511.sdf
 50 49 0 0 0
SMALL
GASTEIGER

@<TRIPOS>ATOM
      1 C           0.9150    0.0866   -0.0605 C.3     1  UNL1       -0.0653
      2 C           2.4343    0.0844   -0.0491 C.3     1  UNL1       -0.0559
      3 C           2.9723    0.4990    1.3153 C.3     1  UNL1       -0.0533
      4 C           4.4976    0.5006    1.3312 C.3     1  UNL1       -0.0531
      5 C           5.0212    0.9190    2.7013 C.3     1  UNL1       -0.0531
      6 C           6.5448    0.9242    2.7229 C.3     1  UNL1       -0.0531
      7 C           7.0599    1.3415    4.0957 C.3     1  UNL1       -0.0531
      8 C           8.5825    1.3489    4.1176 C.3     1  UNL1       -0.0531
      9 C           9.1029    1.7636    5.4889 C.3     1  UNL1       -0.0529
     10 C          10.6262    1.7650    5.4961 C.3     1  UNL1       -0.0483
     11 C          11.1707    2.1776    6.8596 C.3     1  UNL1       -0.0126
     12 C          12.6877    2.1666    6.8262 C.3     1  UNL1       -0.0335
     13 N          13.2117    2.5762    8.1792 N.4     1  UNL1        0.2307
     14 C          14.7132    2.5903    8.2311 C.3     1  UNL1        0.0073
     15 C          15.2586    3.0098    9.6168 C.3     1  UNL1        0.0057
     16 N          16.7505    3.0205    9.6587 N.4     1  UNL1        0.2223
     17 H           0.5429   -0.2123   -1.0442 H       1  UNL1        0.0230
     18 H           0.5177   -0.6130    0.6821 H       1  UNL1        0.0230
     19 H           0.5239    1.0844    0.1639 H       1  UNL1        0.0230
     20 H           2.7980   -0.9179   -0.3041 H       1  UNL1        0.0263
     21 H           2.8041    0.7704   -0.8200 H       1  UNL1        0.0263
     22 H           2.6015    1.5007    1.5706 H       1  UNL1        0.0265
     23 H           2.5975   -0.1871    2.0857 H       1  UNL1        0.0265
     24 H           4.8717   -0.4997    1.0824 H       1  UNL1        0.0265
     25 H           4.8756    1.1886    0.5655 H       1  UNL1        0.0265
     26 H           4.6461    1.9189    2.9517 H       1  UNL1        0.0265
     27 H           4.6443    0.2307    3.4678 H       1  UNL1        0.0265
     28 H           6.9231   -0.0749    2.4736 H       1  UNL1        0.0265
     29 H           6.9248    1.6141    1.9595 H       1  UNL1        0.0265
     30 H           6.6815    2.3400    4.3461 H       1  UNL1        0.0265
     31 H           6.6823    0.6506    4.8593 H       1  UNL1        0.0265
     32 H           8.9610    0.3509    3.8645 H       1  UNL1        0.0265
     33 H           8.9599    2.0404    3.3541 H       1  UNL1        0.0265
     34 H           8.7282    2.7630    5.7419 H       1  UNL1        0.0265
     35 H           8.7275    1.0724    6.2535 H       1  UNL1        0.0265
     36 H          10.9961    0.7649    5.2393 H       1  UNL1        0.0267
     37 H          10.9971    2.4541    4.7277 H       1  UNL1        0.0267
     38 H          10.8045    3.1786    7.1185 H       1  UNL1        0.0317
     39 H          10.8033    1.4891    7.6303 H       1  UNL1        0.0317
     40 H          13.0792    1.1652    6.6177 H       1  UNL1        0.0814
     41 H          13.0801    2.8826    6.0973 H       1  UNL1        0.0814
     42 H          12.8045    3.5025    8.3901 H       1  UNL1        0.2015
     43 H          12.8028    1.9241    8.8688 H       1  UNL1        0.2015
     44 H          15.0502    1.5794    7.9782 H       1  UNL1        0.0867
     45 H          15.0521    3.2901    7.4597 H       1  UNL1        0.0867
     46 H          14.9297    4.0204    9.8759 H       1  UNL1        0.0866
     47 H          14.9288    2.3127   10.3935 H       1  UNL1        0.0866
     48 H          17.1863    2.1002    9.4862 H       1  UNL1        0.1996
     49 H          17.1868    3.6941    9.0073 H       1  UNL1        0.1996
     50 H          17.0853    3.3026   10.5968 H       1  UNL1        0.1996
@<TRIPOS>UNITY_ATOM_ATTR
13 1
charge 1
16 1
charge 1
@<TRIPOS>BOND
     1     1    17    1
     2     1    18    1
     3     1    19    1
     4     2     1    1
     5     2    20    1
     6     2    21    1
     7     3     2    1
     8     3    22    1
     9     3    23    1
    10     4     3    1
    11     4    24    1
    12     4    25    1
    13     5     4    1
    14     5    26    1
    15     5    27    1
    16     6     5    1
    17     6    28    1
    18     6    29    1
    19     7     6    1
    20     7    30    1
    21     7    31    1
    22     8     7    1
    23     8    32    1
    24     8    33    1
    25     9     8    1
    26     9    34    1
    27     9    35    1
    28    10     9    1
    29    10    36    1
    30    10    37    1
    31    11    10    1
    32    11    38    1
    33    11    39    1
    34    12    11    1
    35    12    40    1
    36    12    41    1
    37    13    12    1
    38    13    42    1
    39    13    43    1
    40    14    13    1
    41    14    44    1
    42    14    45    1
    43    15    14    1
    44    15    46    1
    45    15    47    1
    46    16    15    1
    47    16    48    1
    48    16    49    1
    49    16    50    1
