@<TRIPOS>MOLECULE
mol_52_akc_acsjmedchem5b01456
>52.sdf
 46 49 0 0 0
SMALL
GASTEIGER

@<TRIPOS>ATOM
      1 F           2.0896   -0.1591   -0.0019 F       1  UNL1       -0.2055
      2 C           0.7515   -0.1046    0.0029 C.ar    1  UNL1        0.1235
      3 C           0.0720   -0.0510    1.2076 C.ar    1  UNL1       -0.0247
      4 C          -1.3249    0.0141    1.2053 C.ar    1  UNL1       -0.0379
      5 C          -2.0681    0.0261    0.0110 C.ar    1  UNL1        0.0299
      6 C          -1.3389   -0.0320   -1.1889 C.ar    1  UNL1       -0.0379
      7 C           0.0596   -0.0973   -1.1975 C.ar    1  UNL1       -0.0247
      8 N          -3.4435    0.1306    0.0324 N.pl3   1  UNL1       -0.3269
      9 C          -4.2128    0.7124   -1.0721 C.3     1  UNL1        0.0281
     10 C          -5.2762    1.6808   -0.5009 C.3     1  UNL1        0.0319
     11 N          -6.0774    1.0648    0.5696 N.am    1  UNL1       -0.2824
     12 C          -5.2752    0.4295    1.6301 C.3     1  UNL1        0.0319
     13 C          -4.2509   -0.5591    1.0513 C.3     1  UNL1        0.0281
     14 C          -7.4409    1.0269    0.7126 C.2     1  UNL1        0.3076
     15 O          -8.0224    0.4679    1.6282 O.2     1  UNL1       -0.2522
     16 N          -8.1722    1.7045   -0.3032 N.am    1  UNL1       -0.2544
     17 C          -9.5583    1.6381   -0.4144 C.ar    1  UNL1        0.1221
     18 C         -10.4629    0.9281    0.3357 C.ar    1  UNL1        0.0071
     19 C         -11.7451    1.2071   -0.2156 C.ar    1  UNL1        0.1125
     20 N         -11.6310    2.0450   -1.2632 N.ar    1  UNL1       -0.1707
     21 N         -10.3152    2.2879   -1.3523 N.ar    1  UNL1       -0.2633
     22 C         -13.0273    0.6793    0.2667 C.ar    1  UNL1        0.0909
     23 N         -12.9603   -0.1501    1.3412 N.ar    1  UNL1       -0.2534
     24 C         -14.1271   -0.6335    1.8212 C.ar    1  UNL1        0.0283
     25 C         -15.3657   -0.3317    1.2814 C.ar    1  UNL1       -0.0436
     26 C         -15.4144    0.5129    0.1787 C.ar    1  UNL1       -0.0583
     27 C         -14.2293    1.0274   -0.3406 C.ar    1  UNL1       -0.0341
     28 H           0.6249   -0.0474    2.1411 H       1  UNL1        0.0647
     29 H          -1.8223    0.0986    2.1674 H       1  UNL1        0.0637
     30 H          -1.8483   -0.0542   -2.1480 H       1  UNL1        0.0637
     31 H           0.6067   -0.1441   -2.1330 H       1  UNL1        0.0647
     32 H          -3.5888    1.2817   -1.7693 H       1  UNL1        0.0479
     33 H          -4.7045   -0.0903   -1.6353 H       1  UNL1        0.0479
     34 H          -4.7762    2.5478   -0.0514 H       1  UNL1        0.0480
     35 H          -5.8920    2.0458   -1.3225 H       1  UNL1        0.0480
     36 H          -4.7591    1.2365    2.1643 H       1  UNL1        0.0480
     37 H          -5.9061   -0.0923    2.3567 H       1  UNL1        0.0480
     38 H          -4.7774   -1.3955    0.5729 H       1  UNL1        0.0479
     39 H          -3.6599   -0.9906    1.8648 H       1  UNL1        0.0479
     40 H          -7.6895    2.2781   -0.9701 H       1  UNL1        0.1578
     41 H         -10.2801    0.2796    1.1812 H       1  UNL1        0.0674
     42 H         -10.0045    2.9110   -2.0879 H       1  UNL1        0.1903
     43 H         -14.0383   -1.2906    2.6822 H       1  UNL1        0.0830
     44 H         -16.2722   -0.7444    1.7106 H       1  UNL1        0.0633
     45 H         -16.3674    0.7734   -0.2732 H       1  UNL1        0.0619
     46 H         -14.2487    1.6909   -1.1991 H       1  UNL1        0.0639
@<TRIPOS>BOND
     1     2     1    1
     2     3     2   ar
     3     3    28    1
     4     4     3   ar
     5     4    29    1
     6     5     4   ar
     7     6     5   ar
     8     6    30    1
     9     7     6   ar
    10     7     2   ar
    11     7    31    1
    12     8     5    1
    13     9     8    1
    14     9    32    1
    15     9    33    1
    16    10     9    1
    17    10    34    1
    18    10    35    1
    19    11    10    1
    20    12    11    1
    21    12    36    1
    22    12    37    1
    23    13    12    1
    24    13     8    1
    25    13    38    1
    26    13    39    1
    27    14    11   am
    28    15    14    2
    29    16    14   am
    30    16    40    1
    31    17    16    1
    32    18    17   ar
    33    18    41    1
    34    19    18   ar
    35    20    19   ar
    36    21    20   ar
    37    21    17   ar
    38    21    42    1
    39    22    19    1
    40    23    22   ar
    41    24    23   ar
    42    24    43    1
    43    25    24   ar
    44    25    44    1
    45    26    25   ar
    46    26    45    1
    47    27    26   ar
    48    27    22   ar
    49    27    46    1
