@<TRIPOS>MOLECULE
mol_530_akc_ml200280r
>513.sdf
 32 35 0 0 0
SMALL
GASTEIGER

@<TRIPOS>ATOM
      1 O           1.9806    1.2028   -0.0410 O.2     1  UNL1       -0.2860
      2 C           2.2470    0.0050    0.0426 C.2     1  UNL1        0.2037
      3 C           1.9975   -0.7956    1.2475 C.ar    1  UNL1        0.0595
      4 C           1.9504   -2.1712    1.4173 C.ar    1  UNL1       -0.0438
      5 C           1.7965   -2.5524    2.7828 C.ar    1  UNL1       -0.0540
      6 C           1.6702   -1.4602    3.6089 C.ar    1  UNL1       -0.0236
      7 S           1.7380    0.0104    2.7421 S.2     1  UNL1       -0.0934
      8 C           2.9216   -0.6592   -1.1239 C.ar    1  UNL1        0.0731
      9 C           4.0064   -1.4054   -0.8515 C.ar    1  UNL1       -0.0355
     10 C           4.7084   -2.1714   -1.8785 C.ar    1  UNL1        0.0258
     11 C           5.7310   -3.1220   -1.5995 C.ar    1  UNL1       -0.0072
     12 C           6.1865   -3.4518   -0.2970 C.ar    1  UNL1       -0.0534
     13 C           7.1803   -4.4088   -0.0816 C.ar    1  UNL1       -0.0611
     14 C           7.7506   -5.0653   -1.1614 C.ar    1  UNL1       -0.0612
     15 C           7.3294   -4.7666   -2.4528 C.ar    1  UNL1       -0.0540
     16 C           6.3274   -3.8088   -2.6900 C.ar    1  UNL1       -0.0171
     17 C           5.9104   -3.5436   -4.0058 C.ar    1  UNL1       -0.0505
     18 C           4.9008   -2.6216   -4.2635 C.ar    1  UNL1       -0.0181
     19 C           4.3101   -1.9580   -3.1972 C.ar    1  UNL1        0.1370
     20 O           3.2537   -1.0782   -3.5068 O.2     1  UNL1       -0.4471
     21 C           2.4894   -0.4645   -2.5234 C.ar    1  UNL1        0.1834
     22 S           1.1752    0.3736   -3.1247 S.2     1  UNL1       -0.0106
     23 H           2.0558   -2.8891    0.6119 H       1  UNL1        0.0630
     24 H           1.7760   -3.5757    3.1394 H       1  UNL1        0.0623
     25 H           1.5351   -1.4525    4.6821 H       1  UNL1        0.0693
     26 H           4.3832   -1.4711    0.1623 H       1  UNL1        0.0633
     27 H           5.7701   -2.9749    0.5855 H       1  UNL1        0.0624
     28 H           7.5021   -4.6398    0.9310 H       1  UNL1        0.0618
     29 H           8.5245   -5.8118   -0.9983 H       1  UNL1        0.0618
     30 H           7.7888   -5.2957   -3.2850 H       1  UNL1        0.0624
     31 H           6.3638   -4.0698   -4.8435 H       1  UNL1        0.0625
     32 H           4.5713   -2.4342   -5.2814 H       1  UNL1        0.0655
@<TRIPOS>BOND
     1     2     1    2
     2     3     2    1
     3     4     3   ar
     4     4    23    1
     5     5     4   ar
     6     5    24    1
     7     6     5   ar
     8     6    25    1
     9     7     6   ar
    10     7     3   ar
    11     8     2    1
    12     9     8   ar
    13     9    26    1
    14    10     9   ar
    15    11    10   ar
    16    12    11   ar
    17    12    27    1
    18    13    12   ar
    19    13    28    1
    20    14    13   ar
    21    14    29    1
    22    15    14   ar
    23    15    30    1
    24    16    15   ar
    25    16    11   ar
    26    17    16   ar
    27    17    31    1
    28    18    17   ar
    29    18    32    1
    30    19    18   ar
    31    19    10   ar
    32    20    19   ar
    33    21    20   ar
    34    21     8   ar
    35    22    21    2
