@<TRIPOS>MOLECULE
mol_531_akc_ejoc201101414
>514.sdf
 81 84 0 0 0
SMALL
GASTEIGER

@<TRIPOS>ATOM
      1 H          10.0043    5.5257    6.9480 H       1  UNL1        0.0654
      2 C          10.5041    5.0142    6.1324 C.ar    1  UNL1       -0.0197
      3 C           9.9203    5.0856    4.8619 C.ar    1  UNL1       -0.0551
      4 C          10.5045    4.4396    3.7672 C.ar    1  UNL1       -0.0470
      5 C           9.8389    4.3471    2.4143 C.3     1  UNL1       -0.0243
      6 C           8.8835    5.4811    2.0249 C.3     1  UNL1       -0.0116
      7 C           8.2520    5.2791    0.6342 C.3     1  UNL1        0.1071
      8 C           7.3969    4.0017    0.5879 C.3     1  UNL1        0.0216
      9 C           6.6948    3.7596   -0.7556 C.3     1  UNL1        0.1071
     10 C           5.8644    2.4648   -0.8107 C.3     1  UNL1       -0.0116
     11 C           4.8408    2.3496    0.3198 C.3     1  UNL1       -0.0242
     12 C           4.1003    1.0389    0.2618 C.ar    1  UNL1       -0.0436
     13 C           4.6643   -0.1013    0.8577 C.ar    1  UNL1       -0.0131
     14 C           4.0193   -1.3474    0.8219 C.ar    1  UNL1        0.1617
     15 O           4.5451   -2.4674    1.4085 O.3     1  UNL1       -0.4914
     16 C           5.8065   -2.3596    2.0570 C.3     1  UNL1        0.0790
     17 C           2.7838   -1.4451    0.1597 C.ar    1  UNL1        0.1615
     18 O           1.9843   -2.5451   -0.0104 O.3     1  UNL1       -0.4915
     19 C           2.4143   -3.7906    0.5171 C.3     1  UNL1        0.0790
     20 C           2.2295   -0.3006   -0.4414 C.ar    1  UNL1       -0.0160
     21 C           2.8791    0.9297   -0.3956 C.ar    1  UNL1       -0.0549
     22 O           7.6174    3.8212   -1.8680 O.3     1  UNL1       -0.4577
     23 C           8.6236    2.9168   -1.9756 C.2     1  UNL1        0.3394
     24 O           8.8734    1.9939   -1.2220 O.2     1  UNL1       -0.2450
     25 C           9.3810    3.1982   -3.2171 C.ar    1  UNL1        0.0591
     26 C           9.9598    2.1332   -3.9178 C.ar    1  UNL1       -0.0467
     27 C          10.6532    2.3782   -5.1069 C.ar    1  UNL1       -0.0470
     28 C          10.7768    3.6858   -5.5796 C.ar    1  UNL1        0.0179
     29 BR         11.6913    4.0176   -7.2001 Br      1  UNL1       -0.0503
     30 C          10.2266    4.7526   -4.8705 C.ar    1  UNL1       -0.0470
     31 C           9.5289    4.5087   -3.6878 C.ar    1  UNL1       -0.0467
     32 O           7.3659    6.4015    0.4080 O.3     1  UNL1       -0.4577
     33 C           7.6760    7.2538   -0.5993 C.2     1  UNL1        0.3394
     34 O           8.6477    7.1798   -1.3333 O.2     1  UNL1       -0.2450
     35 C           6.6278    8.3063   -0.7307 C.ar    1  UNL1        0.0591
     36 C           6.7408    9.2291   -1.7818 C.ar    1  UNL1       -0.0467
     37 C           5.7659   10.2143   -1.9681 C.ar    1  UNL1       -0.0470
     38 C           4.6761   10.2800   -1.1023 C.ar    1  UNL1        0.0179
     39 BR          3.3431   11.5935   -1.3683 Br      1  UNL1       -0.0503
     40 C           4.5578    9.3789   -0.0452 C.ar    1  UNL1       -0.0470
     41 C           5.5329    8.3930    0.1421 C.ar    1  UNL1       -0.0467
     42 C          11.6962    3.7290    3.9728 C.ar    1  UNL1       -0.0551
     43 C          12.2758    3.6565    5.2412 C.ar    1  UNL1       -0.0197
     44 C          11.6745    4.2840    6.3316 C.ar    1  UNL1        0.1201
     45 O          12.3109    4.0984    7.5277 O.3     1  UNL1       -0.4951
     46 C          11.6708    4.6370    8.6778 C.3     1  UNL1        0.0788
     47 H           8.9878    5.6332    4.7605 H       1  UNL1        0.0621
     48 H          10.6114    4.2701    1.6387 H       1  UNL1        0.0314
     49 H           9.2977    3.3948    2.4278 H       1  UNL1        0.0314
     50 H           8.0748    5.5806    2.7598 H       1  UNL1        0.0304
     51 H           9.4153    6.4414    2.0433 H       1  UNL1        0.0304
     52 H           9.0466    5.2282   -0.1183 H       1  UNL1        0.0735
     53 H           8.0140    3.1297    0.8183 H       1  UNL1        0.0337
     54 H           6.6394    4.0812    1.3756 H       1  UNL1        0.0337
     55 H           5.9985    4.5904   -0.9241 H       1  UNL1        0.0735
     56 H           5.3549    2.4193   -1.7831 H       1  UNL1        0.0304
     57 H           6.5206    1.5875   -0.7973 H       1  UNL1        0.0304
     58 H           5.3336    2.4033    1.2981 H       1  UNL1        0.0314
     59 H           4.1357    3.1871    0.2862 H       1  UNL1        0.0314
     60 H           5.6259    0.0151    1.3485 H       1  UNL1        0.0658
     61 H           6.5911   -2.0656    1.3515 H       1  UNL1        0.0660
     62 H           5.7556   -1.6701    2.9065 H       1  UNL1        0.0660
     63 H           6.0675   -3.3473    2.4483 H       1  UNL1        0.0660
     64 H           3.3655   -4.1063    0.0771 H       1  UNL1        0.0660
     65 H           2.4521   -3.7633    1.6106 H       1  UNL1        0.0660
     66 H           1.6692   -4.5420    0.2378 H       1  UNL1        0.0660
     67 H           1.2752   -0.3789   -0.9556 H       1  UNL1        0.0655
     68 H           2.4243    1.7954   -0.8731 H       1  UNL1        0.0621
     69 H           9.8608    1.1132   -3.5506 H       1  UNL1        0.0626
     70 H          11.0868    1.5470   -5.6576 H       1  UNL1        0.0629
     71 H          10.3300    5.7742   -5.2266 H       1  UNL1        0.0629
     72 H           9.1081    5.3474   -3.1365 H       1  UNL1        0.0626
     73 H           7.5868    9.1817   -2.4656 H       1  UNL1        0.0626
     74 H           5.8642   10.9179   -2.7913 H       1  UNL1        0.0629
     75 H           3.7106    9.4319    0.6344 H       1  UNL1        0.0629
     76 H           5.4211    7.6987    0.9712 H       1  UNL1        0.0626
     77 H          12.1698    3.1993    3.1483 H       1  UNL1        0.0621
     78 H          13.1896    3.0852    5.3832 H       1  UNL1        0.0654
     79 H          11.6717    5.7312    8.6436 H       1  UNL1        0.0660
     80 H          10.6537    4.2459    8.7918 H       1  UNL1        0.0660
     81 H          12.2429    4.3273    9.5572 H       1  UNL1        0.0660
@<TRIPOS>BOND
     1     2     1    1
     2     3     2   ar
     3     3    47    1
     4     4     3   ar
     5     5     4    1
     6     5    48    1
     7     5    49    1
     8     6     5    1
     9     6    50    1
    10     6    51    1
    11     7     6    1
    12     7    52    1
    13     8     7    1
    14     8    53    1
    15     8    54    1
    16    10     9    1
    17    10    56    1
    18    10    57    1
    19    11    10    1
    20    11    58    1
    21    11    59    1
    22    12    11    1
    23    13    12   ar
    24    13    60    1
    25    14    13   ar
    26    15    14    1
    27    16    15    1
    28    16    61    1
    29    16    62    1
    30    16    63    1
    31    17    14   ar
    32    18    17    1
    33    19    18    1
    34    19    64    1
    35    19    65    1
    36    19    66    1
    37    20    17   ar
    38    20    67    1
    39    21    20   ar
    40    21    12   ar
    41    21    68    1
    42    22     9    1
    43    23    22    1
    44    24    23    2
    45    25    23    1
    46    26    25   ar
    47    26    69    1
    48    27    26   ar
    49    27    70    1
    50    28    27   ar
    51    29    28    1
    52    30    28   ar
    53    30    71    1
    54    31    30   ar
    55    31    25   ar
    56    31    72    1
    57    32     7    1
    58    33    32    1
    59    34    33    2
    60    35    33    1
    61    36    35   ar
    62    36    73    1
    63    37    36   ar
    64    37    74    1
    65    38    37   ar
    66    39    38    1
    67    40    38   ar
    68    40    75    1
    69    41    40   ar
    70    41    35   ar
    71    41    76    1
    72    42     4   ar
    73    42    77    1
    74    43    42   ar
    75    43    78    1
    76    44    43   ar
    77    44     2   ar
    78    45    44    1
    79    46    45    1
    80    46    79    1
    81    46    80    1
    82    46    81    1
    83     9    55    1
    84     9     8    1
