@<TRIPOS>MOLECULE
mol_532_akc_scitranslmed3003326
>515.sdf
 32 33 0 0 0
SMALL
GASTEIGER

@<TRIPOS>ATOM
      1 C           2.6200   -1.2656    0.5767 C.3     1  UNL1       -0.0135
      2 S           3.5242    0.2854    0.3294 S.3     1  UNL1       -0.1286
      3 C           3.8846    0.1853   -1.4146 C.ar    1  UNL1        0.0078
      4 C           3.4169    1.1924   -2.2638 C.ar    1  UNL1       -0.0449
      5 C           3.7547    1.1982   -3.6239 C.ar    1  UNL1       -0.0189
      6 C           4.5764    0.1993   -4.1452 C.ar    1  UNL1        0.1212
      7 O           4.9727    0.1029   -5.4530 O.3     1  UNL1       -0.4843
      8 C           5.1233    1.3471   -6.1422 C.3     1  UNL1        0.1472
      9 C           5.6397    1.0445   -7.5195 C.ar    1  UNL1        0.1522
     10 N           5.0098    1.3616   -8.6399 N.ar    1  UNL1       -0.2299
     11 C           5.8081    0.9346   -9.6657 C.ar    1  UNL1        0.1257
     12 C           6.9489    0.3605   -9.1689 C.ar    1  UNL1        0.3677
     13 N           6.8544    0.4365   -7.7982 N.ar    1  UNL1       -0.2708
     14 C           7.8256   -0.0103   -6.8263 C.3     1  UNL1        0.0191
     15 N           8.0326   -0.2017   -9.9045 N.pl3   1  UNL1        0.1004
     16 O           7.9370   -0.1646  -11.1357 O.co2   1  UNL1       -0.5747
     17 O           8.9779   -0.6771   -9.2684 O.2     1  UNL1        0.0431
     18 C           5.0211   -0.8237   -3.3049 C.ar    1  UNL1       -0.0189
     19 C           4.6880   -0.8266   -1.9446 C.ar    1  UNL1       -0.0449
     20 H           1.7174   -1.2856   -0.0397 H       1  UNL1        0.0344
     21 H           3.2447   -2.1309    0.3424 H       1  UNL1        0.0344
     22 H           2.3216   -1.3338    1.6272 H       1  UNL1        0.0344
     23 H           2.7844    1.9870   -1.8729 H       1  UNL1        0.0630
     24 H           3.3461    1.9891   -4.2443 H       1  UNL1        0.0654
     25 H           4.1575    1.8534   -6.2466 H       1  UNL1        0.0779
     26 H           5.8298    2.0009   -5.6162 H       1  UNL1        0.0779
     27 H           5.5204    1.0687  -10.7019 H       1  UNL1        0.0917
     28 H           7.9491   -1.0915   -6.9276 H       1  UNL1        0.0458
     29 H           8.7659    0.5174   -7.0063 H       1  UNL1        0.0458
     30 H           7.4933    0.2174   -5.8131 H       1  UNL1        0.0458
     31 H           5.6509   -1.6152   -3.7035 H       1  UNL1        0.0654
     32 H           5.0825   -1.6129   -1.3063 H       1  UNL1        0.0630
@<TRIPOS>UNITY_ATOM_ATTR
15 1
charge 1
16 1
charge -1
@<TRIPOS>BOND
     1     1    20    1
     2     1    21    1
     3     1    22    1
     4     2     1    1
     5     3     2    1
     6     4     3   ar
     7     4    23    1
     8     5     4   ar
     9     5    24    1
    10     6     5   ar
    11     7     6    1
    12     8     7    1
    13     8    25    1
    14     8    26    1
    15     9     8    1
    16    10     9   ar
    17    11    10   ar
    18    11    27    1
    19    12    11   ar
    20    13    12   ar
    21    13     9   ar
    22    14    13    1
    23    14    28    1
    24    14    29    1
    25    14    30    1
    26    15    12    1
    27    16    15    1
    28    17    15    2
    29    18     6   ar
    30    18    31    1
    31    19    18   ar
    32    19     3   ar
    33    19    32    1
