@<TRIPOS>MOLECULE
mol_534_akc_jacdkr480
>517.sdf
 34 37 0 0 0
SMALL
GASTEIGER

@<TRIPOS>ATOM
      1 CL          1.2208   -0.3005   -0.1083 Cl      1  UNL1       -0.0595
      2 C           2.9206   -0.0277   -0.1137 C.ar    1  UNL1        0.1593
      3 N           3.6383   -1.1705   -0.0958 N.ar    1  UNL1       -0.1352
      4 N           5.0041   -1.1090   -0.0678 N.ar    1  UNL1       -0.1323
      5 C           5.6419    0.0809   -0.0725 C.ar    1  UNL1        0.1504
      6 N           7.0441    0.1279    0.0449 N.pl3   1  UNL1       -0.3095
      7 C           7.7511   -1.1303   -0.1345 C.3     1  UNL1        0.0890
      8 N           9.1854   -0.9530    0.0615 N.ar    1  UNL1       -0.3207
      9 C          10.0705   -0.4200   -0.8375 C.ar    1  UNL1        0.0256
     10 C          11.2775   -0.4026   -0.1756 C.ar    1  UNL1        0.0454
     11 N          11.1407   -0.8962    1.0959 N.ar    1  UNL1       -0.2440
     12 C           9.8685   -1.2038    1.2162 C.ar    1  UNL1        0.0971
     13 C           4.9092    1.2931   -0.0901 C.ar    1  UNL1        0.0272
     14 C           5.5395    2.5607   -0.0654 C.ar    1  UNL1       -0.0429
     15 C           4.8187    3.7574   -0.0397 C.ar    1  UNL1       -0.0172
     16 C           3.4164    3.7184   -0.0597 C.ar    1  UNL1       -0.0172
     17 C           2.7060    4.9303    0.0100 C.ar    1  UNL1       -0.0540
     18 C           3.3808    6.1479    0.1196 C.ar    1  UNL1       -0.0612
     19 C           4.7711    6.1783    0.1275 C.ar    1  UNL1       -0.0612
     20 C           5.4902    4.9893    0.0345 C.ar    1  UNL1       -0.0540
     21 C           2.7705    2.4687   -0.1201 C.ar    1  UNL1       -0.0432
     22 C           3.4974    1.2443   -0.1149 C.ar    1  UNL1        0.0246
     23 H           7.4289    0.8316   -0.5756 H       1  UNL1        0.1492
     24 H           7.4209   -1.9000    0.5732 H       1  UNL1        0.0700
     25 H           7.6211   -1.5053   -1.1572 H       1  UNL1        0.0700
     26 H           9.7854   -0.1044   -1.8309 H       1  UNL1        0.0825
     27 H          12.2345   -0.0563   -0.5430 H       1  UNL1        0.0845
     28 H           9.3959   -1.5969    2.1077 H       1  UNL1        0.1029
     29 H           6.6243    2.6272   -0.0291 H       1  UNL1        0.0631
     30 H           1.6179    4.9313    0.0075 H       1  UNL1        0.0624
     31 H           2.8202    7.0736    0.2085 H       1  UNL1        0.0618
     32 H           5.2999    7.1232    0.2192 H       1  UNL1        0.0618
     33 H           6.5765    5.0290    0.0471 H       1  UNL1        0.0624
     34 H           1.6824    2.4483   -0.1430 H       1  UNL1        0.0631
@<TRIPOS>BOND
     1     2     1    1
     2     3     2   ar
     3     4     3   ar
     4     5     4   ar
     5     6     5    1
     6     6    23    1
     7     7     6    1
     8     7    24    1
     9     7    25    1
    10     8     7    1
    11     9     8   ar
    12     9    26    1
    13    10     9   ar
    14    10    27    1
    15    11    10   ar
    16    12    11   ar
    17    12     8   ar
    18    12    28    1
    19    13     5   ar
    20    14    13   ar
    21    14    29    1
    22    15    14   ar
    23    16    15   ar
    24    17    16   ar
    25    17    30    1
    26    18    17   ar
    27    18    31    1
    28    19    18   ar
    29    19    32    1
    30    20    19   ar
    31    20    15   ar
    32    20    33    1
    33    21    16   ar
    34    21    34    1
    35    22    21   ar
    36    22     2   ar
    37    22    13   ar
