@<TRIPOS>MOLECULE
mol_535_akc_2012203646
>518.sdf
 122 126 0 0 0
SMALL
GASTEIGER

@<TRIPOS>ATOM
      1 C           7.8193   10.8093   10.1802 C.3     1  UNL1       -0.0349
      2 C           6.9979   11.0141   11.4516 C.3     1  UNL1        0.1005
      3 O           5.9738   11.9641   11.1423 O.3     1  UNL1       -0.3319
      4 C           5.0563   12.1624   12.2305 C.3     1  UNL1        0.2431
      5 O           4.4930   10.9490   12.7637 O.3     1  UNL1       -0.4594
      6 C           3.8607   10.1048   11.8869 C.ar    1  UNL1        0.1311
      7 C           3.4352   10.4402   10.6117 C.ar    1  UNL1        0.0235
      8 C           2.9811    9.4448    9.7424 C.ar    1  UNL1        0.1466
      9 C           2.9333    8.1077   10.1124 C.ar    1  UNL1        0.1101
     10 C           3.1970    7.7925   11.4538 C.ar    1  UNL1        0.1495
     11 O           3.1132    6.4683   11.9368 O.3     1  UNL1       -0.4251
     12 C           2.5305    6.2779   13.1946 C.2     1  UNL1        0.3092
     13 C           2.8206    4.8934   13.7015 C.3     1  UNL1        0.0336
     14 O           1.8835    7.1002   13.8320 O.2     1  UNL1       -0.2507
     15 C           3.6911    8.7892   12.3204 C.ar    1  UNL1        0.0236
     16 C           2.6956    7.1378    9.0145 C.ar    1  UNL1        0.2382
     17 O           2.4853    5.9530    9.2468 O.2     1  UNL1       -0.2830
     18 C           2.7570    7.6811    7.5897 C.ar    1  UNL1        0.2138
     19 O           2.9019    6.8705    6.4708 O.3     1  UNL1       -0.4520
     20 C           3.5798    5.6158    6.6185 C.3     1  UNL1        0.2435
     21 O           4.7082    5.5394    5.7289 O.3     1  UNL1       -0.3312
     22 C           4.5903    5.0048    4.4086 C.3     1  UNL1        0.1099
     23 C           4.6344    6.0938    3.3305 C.3     1  UNL1        0.0356
     24 C           5.9055    6.9196    3.1481 C.2     1  UNL1        0.1329
     25 C           7.1727    6.6423    3.9146 C.3     1  UNL1       -0.0060
     26 O           5.8948    7.8545    2.3355 O.2     1  UNL1       -0.2976
     27 C           3.4307    3.9998    4.1764 C.3     1  UNL1        0.1698
     28 O           3.8414    2.6700    4.6185 O.3     1  UNL1       -0.4550
     29 C           4.7809    1.9994    3.9085 C.2     1  UNL1        0.3044
     30 C           5.0837    0.6861    4.5697 C.3     1  UNL1        0.0332
     31 O           5.3308    2.4165    2.9005 O.2     1  UNL1       -0.2512
     32 C           2.1727    4.3103    4.9978 C.3     1  UNL1        0.1847
     33 O           1.4774    5.5071    4.5793 O.3     1  UNL1       -0.4537
     34 C           0.2745    5.2834    3.9885 C.2     1  UNL1        0.3044
     35 C          -0.7758    6.2424    4.4755 C.3     1  UNL1        0.0332
     36 O           0.0670    4.3757    3.1932 O.2     1  UNL1       -0.2512
     37 C           2.5336    4.4986    6.4788 C.3     1  UNL1        0.2048
     38 O           3.0183    3.2871    7.0961 O.3     1  UNL1       -0.4513
     39 C           2.0391    2.4417    7.5214 C.2     1  UNL1        0.3045
     40 C           2.6113    1.2688    8.2560 C.3     1  UNL1        0.0332
     41 O           0.8404    2.6055    7.3392 O.2     1  UNL1       -0.2512
     42 C           2.5785    9.0123    7.4456 C.ar    1  UNL1        0.1810
     43 O           2.5845    9.8878    8.5166 O.2     1  UNL1       -0.4507
     44 C           2.3451    9.7613    6.1725 C.ar    1  UNL1        0.0248
     45 C           1.6011   10.9596    6.2451 C.ar    1  UNL1       -0.0048
     46 C           1.4329   11.8026    5.1400 C.ar    1  UNL1        0.1744
     47 O           0.9047   13.1013    5.3030 O.3     1  UNL1       -0.4222
     48 C          -0.1393   13.3630    6.1922 C.2     1  UNL1        0.3093
     49 C          -0.3538   14.8457    6.2863 C.3     1  UNL1        0.0336
     50 O          -0.7573   12.5472    6.8646 O.2     1  UNL1       -0.2507
     51 C           1.9718   11.4313    3.9114 C.ar    1  UNL1        0.1738
     52 O           1.9847   12.2422    2.7554 O.3     1  UNL1       -0.4223
     53 C           0.8626   12.9443    2.3155 C.2     1  UNL1        0.3093
     54 C           1.2000   13.6322    1.0212 C.3     1  UNL1        0.0336
     55 O          -0.2452   12.9624    2.8318 O.2     1  UNL1       -0.2507
     56 C           2.6915   10.2368    3.8040 C.ar    1  UNL1       -0.0149
     57 C           2.8845    9.4188    4.9292 C.ar    1  UNL1       -0.0473
     58 C           5.7731   12.9481   13.3501 C.3     1  UNL1        0.2048
     59 O           5.8712   14.3554   13.0126 O.3     1  UNL1       -0.4513
     60 C           4.7453   15.0787   13.2753 C.2     1  UNL1        0.3045
     61 C           4.9233   16.5352   12.9743 C.3     1  UNL1        0.0332
     62 O           3.7099   14.6134   13.7340 O.2     1  UNL1       -0.2512
     63 C           7.1498   12.3330   13.6964 C.3     1  UNL1        0.1846
     64 O           8.0553   13.2724   14.3727 O.3     1  UNL1       -0.4537
     65 C           8.7226   14.2037   13.6485 C.2     1  UNL1        0.3044
     66 C           9.6851   14.9675   14.5309 C.3     1  UNL1        0.0332
     67 O           8.6567   14.3676   12.4367 O.2     1  UNL1       -0.2512
     68 C           7.8765   11.4672   12.6331 C.3     1  UNL1        0.1692
     69 O           8.6048   10.3925   13.3386 O.3     1  UNL1       -0.4550
     70 C           7.9809    9.2540   13.7462 C.2     1  UNL1        0.3044
     71 C           8.7552    8.5501   14.8189 C.3     1  UNL1        0.0332
     72 O           6.9080    8.8347   13.3398 O.2     1  UNL1       -0.2512
     73 H           8.6385   10.1020   10.3386 H       1  UNL1        0.0256
     74 H           7.1756   10.4192    9.3827 H       1  UNL1        0.0256
     75 H           8.2257   11.7578    9.8136 H       1  UNL1        0.0256
     76 H           6.5208   10.0550   11.6225 H       1  UNL1        0.0633
     77 H           4.2374   12.7809   11.8461 H       1  UNL1        0.1097
     78 H           3.4979   11.4557   10.2336 H       1  UNL1        0.0691
     79 H           3.1076    4.9552   14.7555 H       1  UNL1        0.0342
     80 H           1.9355    4.2641   13.5918 H       1  UNL1        0.0342
     81 H           3.6607    4.4506   13.1593 H       1  UNL1        0.0342
     82 H           3.9974    8.5330   13.3323 H       1  UNL1        0.0691
     83 H           4.0596    5.5438    7.5984 H       1  UNL1        0.1097
     84 H           5.5199    4.4424    4.2910 H       1  UNL1        0.0640
     85 H           4.4893    5.6166    2.3511 H       1  UNL1        0.0368
     86 H           3.8164    6.8011    3.4817 H       1  UNL1        0.0368
     87 H           8.0229    6.7123    3.2259 H       1  UNL1        0.0306
     88 H           7.2890    7.3954    4.6981 H       1  UNL1        0.0306
     89 H           7.2028    5.6490    4.3567 H       1  UNL1        0.0306
     90 H           3.1738    3.9344    3.1113 H       1  UNL1        0.0799
     91 H           4.8948   -0.1294    3.8686 H       1  UNL1        0.0342
     92 H           6.1240    0.6773    4.9043 H       1  UNL1        0.0342
     93 H           4.4439    0.5382    5.4463 H       1  UNL1        0.0342
     94 H           1.5045    3.4426    4.9230 H       1  UNL1        0.0813
     95 H          -1.0369    6.9578    3.6961 H       1  UNL1        0.0342
     96 H          -1.6575    5.6611    4.7663 H       1  UNL1        0.0342
     97 H          -0.4313    6.7744    5.3646 H       1  UNL1        0.0342
     98 H           1.6342    4.8315    7.0148 H       1  UNL1        0.0837
     99 H           2.3067    1.3182    9.3045 H       1  UNL1        0.0342
    100 H           2.2457    0.3465    7.7971 H       1  UNL1        0.0342
    101 H           3.7034    1.2674    8.2056 H       1  UNL1        0.0342
    102 H           1.1833   11.2616    7.2026 H       1  UNL1        0.0663
    103 H          -1.4261   15.0548    6.3033 H       1  UNL1        0.0342
    104 H           0.1176   15.2210    7.1988 H       1  UNL1        0.0342
    105 H           0.0780   15.3566    5.4221 H       1  UNL1        0.0342
    106 H           1.0491   12.9393    0.1904 H       1  UNL1        0.0342
    107 H           0.5537   14.5057    0.8939 H       1  UNL1        0.0342
    108 H           2.2358   13.9843    1.0299 H       1  UNL1        0.0342
    109 H           3.1498    9.9597    2.8568 H       1  UNL1        0.0656
    110 H           3.5046    8.5365    4.8169 H       1  UNL1        0.0626
    111 H           5.1837   12.8757   14.2747 H       1  UNL1        0.0837
    112 H           4.0597   16.8876   12.4022 H       1  UNL1        0.0342
    113 H           4.9991   17.0918   13.9123 H       1  UNL1        0.0342
    114 H           5.8210   16.7096   12.3769 H       1  UNL1        0.0342
    115 H           6.9177   11.6313   14.5082 H       1  UNL1        0.0813
    116 H          10.6025   14.3889   14.6687 H       1  UNL1        0.0342
    117 H           9.9312   15.9264   14.0639 H       1  UNL1        0.0342
    118 H           9.2237   15.1764   15.4978 H       1  UNL1        0.0342
    119 H           8.6984   12.0476   12.2067 H       1  UNL1        0.0799
    120 H           8.0433    8.0185   15.4618 H       1  UNL1        0.0342
    121 H           9.4546    7.8346   14.3840 H       1  UNL1        0.0342
    122 H           9.2796    9.2713   15.4502 H       1  UNL1        0.0342
@<TRIPOS>BOND
     1     1    73    1
     2     1    74    1
     3     1    75    1
     4     2     1    1
     5     2    76    1
     6     3     2    1
     7     4     3    1
     8     6     5    1
     9     7     6   ar
    10     7    78    1
    11     8     7   ar
    12     9     8   ar
    13    10     9   ar
    14    11    10    1
    15    12    11    1
    16    13    12    1
    17    13    79    1
    18    13    80    1
    19    13    81    1
    20    14    12    2
    21    15    10   ar
    22    15     6   ar
    23    15    82    1
    24    16     9   ar
    25    17    16    2
    26    18    16   ar
    27    19    18    1
    28    21    20    1
    29    22    21    1
    30    22    84    1
    31    23    22    1
    32    23    85    1
    33    23    86    1
    34    24    23    1
    35    25    24    1
    36    25    87    1
    37    25    88    1
    38    25    89    1
    39    26    24    2
    40    27    22    1
    41    29    28    1
    42    30    29    1
    43    30    91    1
    44    30    92    1
    45    30    93    1
    46    31    29    2
    47    32    27    1
    48    34    33    1
    49    35    34    1
    50    35    95    1
    51    35    96    1
    52    35    97    1
    53    36    34    2
    54    37    32    1
    55    37    20    1
    56    37    98    1
    57    38    37    1
    58    39    38    1
    59    40    39    1
    60    40    99    1
    61    40   100    1
    62    40   101    1
    63    41    39    2
    64    42    18   ar
    65    43    42   ar
    66    43     8   ar
    67    44    42    1
    68    45    44   ar
    69    45   102    1
    70    46    45   ar
    71    47    46    1
    72    48    47    1
    73    49    48    1
    74    49   103    1
    75    49   104    1
    76    49   105    1
    77    50    48    2
    78    51    46   ar
    79    52    51    1
    80    53    52    1
    81    54    53    1
    82    54   106    1
    83    54   107    1
    84    54   108    1
    85    55    53    2
    86    56    51   ar
    87    56   109    1
    88    57    56   ar
    89    57    44   ar
    90    57   110    1
    91    58     4    1
    92    58   111    1
    93    59    58    1
    94    60    59    1
    95    61    60    1
    96    61   112    1
    97    61   113    1
    98    61   114    1
    99    62    60    2
   100    63    58    1
   101    63   115    1
   102    64    63    1
   103    65    64    1
   104    66    65    1
   105    66   116    1
   106    66   117    1
   107    66   118    1
   108    67    65    2
   109    68    63    1
   110    68     2    1
   111    70    69    1
   112    71    70    1
   113    71   120    1
   114    71   121    1
   115    71   122    1
   116    72    70    2
   117     4     5    1
   118     4    77    1
   119    20    83    1
   120    20    19    1
   121    27    28    1
   122    27    90    1
   123    32    33    1
   124    32    94    1
   125    68    69    1
   126    68   119    1
