@<TRIPOS>MOLECULE
mol_536_akc_jexppara201208016
>519.sdf
 19 18 0 0 0
SMALL
GASTEIGER

@<TRIPOS>ATOM
      1 C           6.0959   -7.3255   -2.7016 C.2     1  UNL1       -0.1018
      2 C           6.4792   -6.0424   -2.6936 C.2     1  UNL1       -0.0805
      3 C           6.6556   -5.2176   -1.4561 C.3     1  UNL1        0.0240
      4 S           5.5765   -3.7664   -1.5368 S.3     1  UNL1       -0.0569
      5 S           5.9629   -2.8284    0.2218 S.O     1  UNL1        0.0854
      6 O           5.2084   -1.5549   -0.0246 O.2     1  UNL1       -0.2456
      7 C           7.7476   -2.4607    0.0896 C.3     1  UNL1        0.0514
      8 C           8.1783   -1.4976    1.1546 C.2     1  UNL1       -0.0782
      9 C           9.1161   -1.7513    2.0775 C.2     1  UNL1       -0.1018
     10 H           5.9974   -7.8684   -3.6370 H       1  UNL1        0.0532
     11 H           5.8652   -7.8635   -1.7857 H       1  UNL1        0.0532
     12 H           6.7009   -5.5598   -3.6444 H       1  UNL1        0.0575
     13 H           6.4248   -5.7933   -0.5537 H       1  UNL1        0.0428
     14 H           7.7011   -4.9013   -1.4027 H       1  UNL1        0.0428
     15 H           8.2903   -3.4063    0.1791 H       1  UNL1        0.0452
     16 H           7.9464   -2.0298   -0.8963 H       1  UNL1        0.0452
     17 H           7.6935   -0.5215    1.1460 H       1  UNL1        0.0575
     18 H           9.6360   -2.7030    2.1266 H       1  UNL1        0.0532
     19 H           9.3861   -0.9969    2.8109 H       1  UNL1        0.0532
@<TRIPOS>BOND
     1     1    10    1
     2     1    11    1
     3     2     1    2
     4     2    12    1
     5     3     2    1
     6     3    13    1
     7     3    14    1
     8     4     3    1
     9     7     5    1
    10     7    15    1
    11     7    16    1
    12     8     7    1
    13     8    17    1
    14     9     8    2
    15     9    18    1
    16     9    19    1
    17     5     6    2
    18     5     4    1
