@<TRIPOS>MOLECULE
mol_537_akc_157018012800389359
>520.sdf
 34 36 0 0 0
SMALL
GASTEIGER

@<TRIPOS>ATOM
      1 C           2.9584    0.3064    1.1456 C.3     1  UNL1       -0.0610
      2 C           2.4835   -0.9446    0.3967 C.3     1  UNL1       -0.0287
      3 C           0.9532   -0.9475    0.3589 C.3     1  UNL1       -0.0610
      4 C           3.0456   -1.0216   -1.0365 C.3     1  UNL1        0.0270
      5 N           4.4941   -1.0964   -1.0970 N.ar    1  UNL1       -0.3292
      6 C           5.2721    0.0298   -1.1954 C.ar    1  UNL1        0.0972
      7 N           6.5469   -0.2443   -1.1410 N.ar    1  UNL1       -0.2323
      8 C           6.6092   -1.6193   -1.0454 C.ar    1  UNL1        0.1289
      9 C           5.3301   -2.1959   -1.0620 C.ar    1  UNL1        0.0813
     10 C           5.1870   -3.6158   -1.0349 C.ar    1  UNL1        0.0261
     11 C           3.9606   -4.3198   -1.0528 C.ar    1  UNL1       -0.0505
     12 C           3.9483   -5.7152   -1.0568 C.ar    1  UNL1       -0.0610
     13 C           5.1461   -6.4184   -1.0395 C.ar    1  UNL1       -0.0597
     14 C           6.3566   -5.7233   -1.0109 C.ar    1  UNL1       -0.0356
     15 C           6.4102   -4.3383   -1.0040 C.ar    1  UNL1        0.0752
     16 N           7.6257   -3.7750   -0.9642 N.ar    1  UNL1       -0.2301
     17 C           7.7571   -2.4333   -0.9538 C.ar    1  UNL1        0.1445
     18 N           9.0410   -1.9066   -0.8737 N.pl3   1  UNL1       -0.3414
     19 H           2.5157    0.3534    2.1462 H       1  UNL1        0.0233
     20 H           4.0442    0.3080    1.2785 H       1  UNL1        0.0233
     21 H           2.6771    1.2200    0.6098 H       1  UNL1        0.0233
     22 H           2.8159   -1.8243    0.9618 H       1  UNL1        0.0313
     23 H           0.5689   -0.0860   -0.1994 H       1  UNL1        0.0233
     24 H           0.5737   -1.8574   -0.1159 H       1  UNL1        0.0233
     25 H           0.5386   -0.9004    1.3721 H       1  UNL1        0.0233
     26 H           2.6358   -1.8706   -1.5877 H       1  UNL1        0.0495
     27 H           2.7446   -0.1328   -1.6060 H       1  UNL1        0.0495
     28 H           4.8482    1.0248   -1.2683 H       1  UNL1        0.1029
     29 H           3.0065   -3.8112   -1.0639 H       1  UNL1        0.0625
     30 H           3.0045   -6.2549   -1.0749 H       1  UNL1        0.0618
     31 H           5.1473   -7.5053   -1.0433 H       1  UNL1        0.0618
     32 H           7.2903   -6.2828   -0.9934 H       1  UNL1        0.0639
     33 H           9.0904   -0.9505   -1.2074 H       1  UNL1        0.1438
     34 H           9.7348   -2.5647   -1.2000 H       1  UNL1        0.1438
@<TRIPOS>BOND
     1     1    19    1
     2     1    20    1
     3     1    21    1
     4     2     1    1
     5     2    22    1
     6     3     2    1
     7     3    23    1
     8     3    24    1
     9     3    25    1
    10     4     2    1
    11     4    26    1
    12     4    27    1
    13     5     4    1
    14     6     5   ar
    15     6    28    1
    16     7     6   ar
    17     8     7   ar
    18     9     8   ar
    19     9     5   ar
    20    10     9   ar
    21    11    10   ar
    22    11    29    1
    23    12    11   ar
    24    12    30    1
    25    13    12   ar
    26    13    31    1
    27    14    13   ar
    28    14    32    1
    29    15    14   ar
    30    15    10   ar
    31    16    15   ar
    32    17    16   ar
    33    17     8   ar
    34    18    17    1
    35    18    33    1
    36    18    34    1
