@<TRIPOS>MOLECULE
mol_538_akc_s00436_011_2498_x
>521.sdf
 22 23 0 0 0
SMALL
GASTEIGER

@<TRIPOS>ATOM
      1 C           1.3393   -0.5148    0.7127 C.3     1  UNL1        0.0790
      2 O           2.4487   -0.0741   -0.0599 O.2     1  UNL1       -0.4911
      3 C           3.0927    1.0880    0.3237 C.2     1  UNL1        0.1708
      4 C           2.7251    1.8755    1.3450 C.2     1  UNL1        0.0312
      5 C           3.4625    3.0911    1.7301 C.2     1  UNL1        0.1903
      6 O           3.0425    3.8035    2.6327 O.2     1  UNL1       -0.2871
      7 C           4.7091    3.3968    1.0157 C.ar    1  UNL1        0.0327
      8 C           5.1038    2.6166   -0.0678 C.ar    1  UNL1        0.0361
      9 C           6.2905    2.9255   -0.7465 C.ar    1  UNL1       -0.0501
     10 C           7.0815    3.9971   -0.3252 C.ar    1  UNL1       -0.0610
     11 C           6.6890    4.7672    0.7692 C.ar    1  UNL1       -0.0610
     12 C           5.5003    4.4734    1.4370 C.ar    1  UNL1       -0.0502
     13 C           4.2933    1.4593   -0.4979 C.2     1  UNL1        0.2281
     14 O           4.6154    0.8207   -1.4932 O.2     1  UNL1       -0.2834
     15 H           1.6281   -0.6846    1.7556 H       1  UNL1        0.0660
     16 H           0.5131    0.2005    0.6479 H       1  UNL1        0.0660
     17 H           0.9956   -1.4680    0.3012 H       1  UNL1        0.0660
     18 H           1.8616    1.6753    1.9659 H       1  UNL1        0.0694
     19 H           6.6068    2.3285   -1.6008 H       1  UNL1        0.0625
     20 H           8.0066    4.2280   -0.8490 H       1  UNL1        0.0618
     21 H           7.3087    5.5967    1.1029 H       1  UNL1        0.0618
     22 H           5.1964    5.0792    2.2894 H       1  UNL1        0.0625
@<TRIPOS>BOND
     1     1    15    1
     2     1    16    1
     3     1    17    1
     4     2     1    1
     5     3     2    1
     6     4     3    2
     7     4    18    1
     8     5     4    1
     9     6     5    2
    10     7     5    1
    11     8     7   ar
    12     9     8   ar
    13     9    19    1
    14    10     9   ar
    15    10    20    1
    16    11    10   ar
    17    11    21    1
    18    12    11   ar
    19    12     7   ar
    20    12    22    1
    21    13     8    1
    22    13     3    1
    23    14    13    2
