@<TRIPOS>MOLECULE
mol_539_akc_aac00700_11
>522.sdf
 39 41 0 0 0
SMALL
GASTEIGER

@<TRIPOS>ATOM
      1 C          -3.4665   -0.7757    0.1393 C.3     1  UNL1       -0.0223
      2 C          -2.0957   -0.1739    0.0632 C.ar    1  UNL1        0.0407
      3 N          -1.0612   -1.0379    0.0559 N.ar    1  UNL1       -0.2518
      4 C           0.1839   -0.5480   -0.0255 C.ar    1  UNL1        0.0730
      5 C           0.4683    0.8348   -0.0857 C.ar    1  UNL1        0.0212
      6 C           1.8264    1.2372   -0.1624 C.ar    1  UNL1       -0.0508
      7 C           2.8633    0.3051   -0.1850 C.ar    1  UNL1       -0.0610
      8 C           2.5646   -1.0474   -0.1440 C.ar    1  UNL1       -0.0597
      9 C           1.2331   -1.4567   -0.0642 C.ar    1  UNL1       -0.0357
     10 C          -0.6320    1.7389   -0.0747 C.ar    1  UNL1        0.0385
     11 N          -0.4072    3.1198   -0.2552 N.pl3   1  UNL1       -0.3348
     12 C          -1.5087    4.0662   -0.0974 C.3     1  UNL1        0.0861
     13 C          -0.9683    5.4977   -0.1534 C.2     1  UNL1        0.2343
     14 O          -0.5427    6.0398    0.8661 O.2     1  UNL1       -0.2738
     15 N          -1.0109    6.0538   -1.4169 N.am    1  UNL1       -0.2830
     16 C          -0.8512    7.4197   -1.7535 C.ar    1  UNL1        0.0520
     17 C          -0.4581    8.3883   -0.8240 C.ar    1  UNL1       -0.0377
     18 C          -0.4445    9.7419   -1.1648 C.ar    1  UNL1       -0.0415
     19 C          -0.8191   10.1419   -2.4441 C.ar    1  UNL1        0.0425
     20 CL         -0.8686   11.8160   -2.8333 Cl      1  UNL1       -0.0835
     21 C          -1.1677    9.1950   -3.4029 C.ar    1  UNL1       -0.0232
     22 C          -1.1708    7.8407   -3.0598 C.ar    1  UNL1        0.0635
     23 CL         -1.6361    6.6962   -4.2733 Cl      1  UNL1       -0.0816
     24 C          -1.9222    1.2013   -0.0188 C.ar    1  UNL1       -0.0192
     25 H          -3.6466   -1.3978   -0.7430 H       1  UNL1        0.0292
     26 H          -3.5515   -1.3977    1.0359 H       1  UNL1        0.0292
     27 H          -4.2472   -0.0098    0.1829 H       1  UNL1        0.0292
     28 H           2.0929    2.2892   -0.2114 H       1  UNL1        0.0625
     29 H           3.8965    0.6383   -0.2408 H       1  UNL1        0.0618
     30 H           3.3595   -1.7876   -0.1762 H       1  UNL1        0.0618
     31 H           1.0037   -2.5196   -0.0383 H       1  UNL1        0.0639
     32 H           0.4178    3.4253    0.2611 H       1  UNL1        0.1466
     33 H          -2.2570    3.9324   -0.8873 H       1  UNL1        0.0557
     34 H          -2.0054    3.9451    0.8728 H       1  UNL1        0.0557
     35 H          -1.2677    5.4412   -2.1893 H       1  UNL1        0.1549
     36 H          -0.1578    8.1245    0.1869 H       1  UNL1        0.0637
     37 H          -0.1576   10.4768   -0.4167 H       1  UNL1        0.0633
     38 H          -1.4548    9.5113   -4.4012 H       1  UNL1        0.0647
     39 H          -2.8018    1.8328   -0.0257 H       1  UNL1        0.0654
@<TRIPOS>BOND
     1     1    25    1
     2     1    26    1
     3     1    27    1
     4     2     1    1
     5     3     2   ar
     6     4     3   ar
     7     5     4   ar
     8     6     5   ar
     9     6    28    1
    10     7     6   ar
    11     7    29    1
    12     8     7   ar
    13     8    30    1
    14     9     8   ar
    15     9     4   ar
    16     9    31    1
    17    10     5   ar
    18    11    10    1
    19    11    32    1
    20    12    11    1
    21    12    33    1
    22    12    34    1
    23    13    12    1
    24    14    13    2
    25    15    13   am
    26    15    35    1
    27    16    15    1
    28    17    16   ar
    29    17    36    1
    30    18    17   ar
    31    18    37    1
    32    19    18   ar
    33    20    19    1
    34    21    19   ar
    35    21    38    1
    36    22    21   ar
    37    22    16   ar
    38    23    22    1
    39    24    10   ar
    40    24     2   ar
    41    24    39    1
