@<TRIPOS>MOLECULE
mol_540_akc_jbmc201109025
>523.sdf
 48 52 0 0 0
SMALL
GASTEIGER

@<TRIPOS>ATOM
      1 H           0.9838   -0.2494    0.0387 H       1  UNL1        0.0371
      2 C           2.0787   -0.1706    0.0997 C.3     1  UNL1        0.0107
      3 C           2.5226    0.2046    1.5149 C.3     1  UNL1       -0.0401
      4 C           2.0780    1.6044    1.8757 C.3     1  UNL1       -0.0267
      5 C           2.4185    2.6174    0.8137 C.ar    1  UNL1       -0.0423
      6 C           2.4269    3.9728    1.1806 C.ar    1  UNL1       -0.0583
      7 C           2.3939    4.9672    0.2090 C.ar    1  UNL1       -0.0615
      8 C           2.3159    4.6129   -1.1322 C.ar    1  UNL1       -0.0614
      9 C           2.3970    3.2699   -1.5050 C.ar    1  UNL1       -0.0565
     10 C           2.5208    2.2533   -0.5436 C.ar    1  UNL1       -0.0216
     11 C           2.6099    0.8105   -0.9909 C.3     1  UNL1        0.0782
     12 H           1.9215    0.7139   -1.8478 H       1  UNL1        0.0574
     13 N           3.8948    0.1758   -1.4710 N.pl3   1  UNL1       -0.1948
     14 C           3.8540   -1.2081   -1.0992 C.ar    1  UNL1        0.0555
     15 C           4.6314   -2.2615   -1.5383 C.ar    1  UNL1       -0.0388
     16 C           4.3208   -3.5538   -1.1083 C.ar    1  UNL1       -0.0599
     17 C           3.2258   -3.7884   -0.2698 C.ar    1  UNL1       -0.0614
     18 C           2.4200   -2.7292    0.1469 C.ar    1  UNL1       -0.0564
     19 C           2.7483   -1.4533   -0.2847 C.ar    1  UNL1       -0.0195
     20 S           5.3039    0.9469   -1.9283 S.O2    1  UNL1        0.0752
     21 O           6.1653    0.0228   -2.6613 O.2     1  UNL1       -0.1498
     22 O           4.9706    2.2038   -2.5597 O.2     1  UNL1       -0.1498
     23 C           6.1889    1.3242   -0.4223 C.ar    1  UNL1        0.1088
     24 C           7.0086    0.3615    0.1749 C.ar    1  UNL1       -0.0348
     25 C           7.6498    0.6498    1.3859 C.ar    1  UNL1       -0.0570
     26 C           7.4872    1.9016    1.9925 C.ar    1  UNL1       -0.0503
     27 C           7.9185    2.1225    3.4149 C.3     1  UNL1       -0.0397
     28 C           6.7874    2.9036    1.3089 C.ar    1  UNL1       -0.0570
     29 C           6.1475    2.6206    0.0982 C.ar    1  UNL1       -0.0348
     30 H           3.6151    0.1423    1.6088 H       1  UNL1        0.0275
     31 H           2.1083   -0.5071    2.2408 H       1  UNL1        0.0275
     32 H           2.5120    1.8883    2.8412 H       1  UNL1        0.0313
     33 H           0.9855    1.6119    1.9978 H       1  UNL1        0.0313
     34 H           2.4113    4.2571    2.2309 H       1  UNL1        0.0620
     35 H           2.3802    6.0137    0.5002 H       1  UNL1        0.0618
     36 H           2.1981    5.3803   -1.8929 H       1  UNL1        0.0618
     37 H           2.3464    3.0186   -2.5641 H       1  UNL1        0.0621
     38 H           5.4545   -2.1275   -2.2329 H       1  UNL1        0.0637
     39 H           4.9300   -4.3911   -1.4426 H       1  UNL1        0.0618
     40 H           2.9969   -4.7990    0.0559 H       1  UNL1        0.0618
     41 H           1.5672   -2.9017    0.7961 H       1  UNL1        0.0621
     42 H           7.1469   -0.6151   -0.2828 H       1  UNL1        0.0637
     43 H           8.2505   -0.1178    1.8685 H       1  UNL1        0.0621
     44 H           7.0786    1.8706    4.0736 H       1  UNL1        0.0278
     45 H           8.7690    1.4903    3.6877 H       1  UNL1        0.0278
     46 H           8.1983    3.1648    3.5980 H       1  UNL1        0.0278
     47 H           6.7064    3.9026    1.7301 H       1  UNL1        0.0621
     48 H           5.6055    3.4109   -0.4162 H       1  UNL1        0.0637
@<TRIPOS>BOND
     1     2     1    1
     2     3     2    1
     3     3    30    1
     4     3    31    1
     5     4     3    1
     6     4    32    1
     7     4    33    1
     8     5     4    1
     9     6     5   ar
    10     6    34    1
    11     7     6   ar
    12     7    35    1
    13     8     7   ar
    14     8    36    1
    15     9     8   ar
    16     9    37    1
    17    10     9   ar
    18    10     5   ar
    19    11    10    1
    20    11     2    1
    21    11    12    1
    22    13    11    1
    23    14    13    1
    24    15    14   ar
    25    15    38    1
    26    16    15   ar
    27    16    39    1
    28    17    16   ar
    29    17    40    1
    30    18    17   ar
    31    18    41    1
    32    19    18   ar
    33    19     2    1
    34    19    14   ar
    35    20    13    1
    36    21    20    2
    37    22    20    2
    38    23    20    1
    39    24    23   ar
    40    24    42    1
    41    25    24   ar
    42    25    43    1
    43    26    25   ar
    44    27    26    1
    45    27    44    1
    46    27    45    1
    47    27    46    1
    48    28    26   ar
    49    28    47    1
    50    29    28   ar
    51    29    23   ar
    52    29    48    1
