@<TRIPOS>MOLECULE
mol_542_akc_ptr3404
>525.sdf
 59 61 0 0 0
SMALL
GASTEIGER

@<TRIPOS>ATOM
      1 C          13.5384    1.3905    3.6201 C.3     1  UNL1       -0.0440
      2 C          12.5660    1.0984    2.5132 C.2     1  UNL1       -0.0796
      3 C          11.1354    1.4819    2.7805 C.3     1  UNL1       -0.0440
      4 C          12.9650    0.5253    1.3614 C.2     1  UNL1       -0.0850
      5 C          12.0869    0.2875    0.1639 C.3     1  UNL1       -0.0308
      6 C          11.4551   -1.1086    0.1355 C.3     1  UNL1       -0.0286
      7 C          10.5012   -1.3898   -1.0139 C.2     1  UNL1       -0.0759
      8 C          10.1862   -0.3235   -2.0307 C.3     1  UNL1       -0.0438
      9 C           9.9326   -2.6144   -1.1037 C.2     1  UNL1       -0.0805
     10 C           8.9593   -3.0651   -2.1616 C.3     1  UNL1       -0.0023
     11 C           9.4455   -4.2591   -2.9509 C.ar    1  UNL1        0.0400
     12 C           9.0805   -5.5617   -2.5768 C.ar    1  UNL1        0.1273
     13 O           8.3303   -5.7397   -1.4471 O.3     1  UNL1       -0.5062
     14 C           9.4485   -6.6683   -3.3417 C.ar    1  UNL1        0.0228
     15 C          10.2015   -6.4818   -4.4981 C.ar    1  UNL1        0.1389
     16 O          10.4445   -7.6021   -5.2532 O.3     1  UNL1       -0.4828
     17 C          10.7745   -7.3198   -6.6323 C.3     1  UNL1        0.1323
     18 C          11.9656   -6.3659   -6.6665 C.3     1  UNL1        0.0520
     19 C          11.5584   -5.0830   -6.0005 C.2     1  UNL1        0.1740
     20 O          11.9919   -3.9871   -6.3441 O.2     1  UNL1       -0.2917
     21 C          10.6528   -5.2070   -4.8398 C.ar    1  UNL1        0.1009
     22 C          10.2645   -4.0969   -4.0815 C.ar    1  UNL1        0.1378
     23 O          10.6524   -2.8281   -4.4286 O.3     1  UNL1       -0.5055
     24 C           9.5455   -6.9310   -7.4614 C.ar    1  UNL1       -0.0033
     25 C           9.6313   -6.0645   -8.5706 C.ar    1  UNL1       -0.0514
     26 C           8.5038   -5.7471   -9.3386 C.ar    1  UNL1       -0.0162
     27 C           7.2786   -6.3048   -9.0083 C.ar    1  UNL1        0.1582
     28 O           6.1455   -6.0401   -9.7253 O.3     1  UNL1       -0.5033
     29 C           7.1760   -7.1691   -7.9249 C.ar    1  UNL1        0.1586
     30 O           5.9668   -7.7186   -7.6064 O.3     1  UNL1       -0.5033
     31 C           8.2905   -7.4911   -7.1586 C.ar    1  UNL1       -0.0099
     32 H          13.5326    2.4616    3.8495 H       1  UNL1        0.0274
     33 H          13.2655    0.8371    4.5231 H       1  UNL1        0.0274
     34 H          14.5641    1.1161    3.3523 H       1  UNL1        0.0274
     35 H          10.7990    2.2535    2.0809 H       1  UNL1        0.0274
     36 H          10.4798    0.6083    2.6936 H       1  UNL1        0.0274
     37 H          11.0113    1.8789    3.7920 H       1  UNL1        0.0274
     38 H          14.0104    0.2487    1.2333 H       1  UNL1        0.0572
     39 H          11.3047    1.0545    0.1370 H       1  UNL1        0.0310
     40 H          12.6978    0.4372   -0.7357 H       1  UNL1        0.0310
     41 H          12.2600   -1.8560    0.1138 H       1  UNL1        0.0313
     42 H          10.9073   -1.2645    1.0753 H       1  UNL1        0.0313
     43 H          10.5209   -0.6309   -3.0244 H       1  UNL1        0.0274
     44 H           9.1079   -0.1283   -2.0579 H       1  UNL1        0.0274
     45 H          10.6622    0.6378   -1.8347 H       1  UNL1        0.0274
     46 H          10.1638   -3.3623   -0.3473 H       1  UNL1        0.0575
     47 H           8.0052   -3.3007   -1.6719 H       1  UNL1        0.0358
     48 H           8.7037   -2.2648   -2.8641 H       1  UNL1        0.0358
     49 H           8.1496   -6.6857   -1.3255 H       1  UNL1        0.2921
     50 H           9.1327   -7.6701   -3.0680 H       1  UNL1        0.0691
     51 H          11.1147   -8.2762   -7.0497 H       1  UNL1        0.0789
     52 H          12.8102   -6.7761   -6.0984 H       1  UNL1        0.0385
     53 H          12.3073   -6.1650   -7.6849 H       1  UNL1        0.0385
     54 H          11.2572   -2.8829   -5.2014 H       1  UNL1        0.2922
     55 H          10.5761   -5.6141   -8.8662 H       1  UNL1        0.0623
     56 H           8.6092   -5.0717  -10.1820 H       1  UNL1        0.0655
     57 H           6.3792   -5.4308  -10.4470 H       1  UNL1        0.2923
     58 H           5.3485   -7.3462   -8.2678 H       1  UNL1        0.2923
     59 H           8.1698   -8.1771   -6.3237 H       1  UNL1        0.0659
@<TRIPOS>BOND
     1     1    32    1
     2     1    33    1
     3     1    34    1
     4     2     1    1
     5     3     2    1
     6     3    35    1
     7     3    36    1
     8     3    37    1
     9     4     2    2
    10     4    38    1
    11     5     4    1
    12     5    39    1
    13     5    40    1
    14     6     5    1
    15     6    41    1
    16     6    42    1
    17     7     6    1
    18     8     7    1
    19     8    43    1
    20     8    44    1
    21     8    45    1
    22     9     7    2
    23     9    46    1
    24    10     9    1
    25    10    47    1
    26    10    48    1
    27    11    10    1
    28    12    11   ar
    29    13    12    1
    30    13    49    1
    31    14    12   ar
    32    14    50    1
    33    15    14   ar
    34    16    15    1
    35    17    16    1
    36    17    51    1
    37    18    17    1
    38    18    52    1
    39    18    53    1
    40    19    18    1
    41    20    19    2
    42    21    19    1
    43    21    15   ar
    44    22    21   ar
    45    22    11   ar
    46    23    22    1
    47    23    54    1
    48    24    17    1
    49    25    24   ar
    50    25    55    1
    51    26    25   ar
    52    26    56    1
    53    27    26   ar
    54    28    27    1
    55    28    57    1
    56    29    27   ar
    57    30    29    1
    58    30    58    1
    59    31    29   ar
    60    31    24   ar
    61    31    59    1
