@<TRIPOS>MOLECULE
mol_543_akc_jejmech201104054
>526.sdf
 30 31 0 0 0
SMALL
GASTEIGER

@<TRIPOS>ATOM
      1 C           0.2650    3.1078    1.8421 C.3     1  UNL1        0.0000
      2 SE          0.2124    2.3769    0.0306 Se      1  UNL1        0.0000
      3 SE         -2.0670    1.6637    0.2559 Se      1  UNL1        0.0000
      4 C          -2.7520    3.4882    0.1193 C.3     1  UNL1        0.0000
      5 C          -4.2551    3.5189    0.1368 C.ar    1  UNL1        0.0000
      6 C          -4.9358    4.1262    1.2082 C.ar    1  UNL1        0.0000
      7 C          -6.3315    4.1805    1.2188 C.ar    1  UNL1        0.0000
      8 C          -7.0600    3.6352    0.1591 C.ar    1  UNL1        0.0000
      9 C          -6.3932    3.0289   -0.9094 C.ar    1  UNL1        0.0000
     10 C          -4.9949    2.9664   -0.9213 C.ar    1  UNL1        0.0000
     11 C           1.6327    3.6344    2.1879 C.ar    1  UNL1        0.0000
     12 C           1.8170    5.0108    2.4199 C.ar    1  UNL1        0.0000
     13 C           3.0762    5.5047    2.7643 C.ar    1  UNL1        0.0000
     14 C           4.1593    4.6306    2.8897 C.ar    1  UNL1        0.0000
     15 C           3.9835    3.2626    2.6615 C.ar    1  UNL1        0.0000
     16 C           2.7261    2.7635    2.3070 C.ar    1  UNL1        0.0000
     17 H          -0.0240    2.3322    2.5814 H       1  UNL1        0.0000
     18 H          -0.4520    3.9459    1.8864 H       1  UNL1        0.0000
     19 H          -2.3848    4.0515    0.9940 H       1  UNL1        0.0000
     20 H          -2.3895    3.9701   -0.8125 H       1  UNL1        0.0000
     21 H          -4.3880    4.5580    2.0371 H       1  UNL1        0.0000
     22 H          -6.8467    4.6487    2.0477 H       1  UNL1        0.0000
     23 H          -8.1412    3.6858    0.1669 H       1  UNL1        0.0000
     24 H          -6.9607    2.6119   -1.7309 H       1  UNL1        0.0000
     25 H          -4.4898    2.5007   -1.7583 H       1  UNL1        0.0000
     26 H           0.9874    5.7028    2.3323 H       1  UNL1        0.0000
     27 H           3.2113    6.5647    2.9403 H       1  UNL1        0.0000
     28 H           5.1332    5.0176    3.1648 H       1  UNL1        0.0000
     29 H           4.8237    2.5894    2.7635 H       1  UNL1        0.0000
     30 H           2.6005    1.7013    2.1429 H       1  UNL1        0.0000
@<TRIPOS>BOND
     1     1    17    1
     2     1    18    1
     3     2     1    1
     4     3     2    1
     5     4     3    1
     6     4    19    1
     7     4    20    1
     8     5     4    1
     9     6     5   ar
    10     6    21    1
    11     7     6   ar
    12     7    22    1
    13     8     7   ar
    14     8    23    1
    15     9     8   ar
    16     9    24    1
    17    10     9   ar
    18    10     5   ar
    19    10    25    1
    20    11     1    1
    21    12    11   ar
    22    12    26    1
    23    13    12   ar
    24    13    27    1
    25    14    13   ar
    26    14    28    1
    27    15    14   ar
    28    15    29    1
    29    16    15   ar
    30    16    11   ar
    31    16    30    1
