@<TRIPOS>MOLECULE
mol_544_akc_jbmcl201105076
>527.sdf
 48 52 0 0 0
SMALL
GASTEIGER

@<TRIPOS>ATOM
      1 C           6.5994    0.0043    0.3314 C.3     1  UNL1       -0.0572
      2 C           5.1059   -0.1928    0.0797 C.3     1  UNL1       -0.0028
      3 C           4.3799    1.1475   -0.0321 C.3     1  UNL1       -0.0572
      4 C           4.8511   -1.0460   -1.1201 C.ar    1  UNL1        0.0647
      5 C           4.1852   -2.2322   -1.2585 C.ar    1  UNL1        0.1167
      6 N           3.6054   -2.9270   -0.2578 N.ar    1  UNL1       -0.2319
      7 C           3.0160   -4.0383   -0.7591 C.ar    1  UNL1        0.1189
      8 N           2.9530   -4.4865   -2.0479 N.ar    1  UNL1       -0.2187
      9 C           3.5770   -3.8038   -3.0607 C.ar    1  UNL1        0.1503
     10 N           3.6056   -4.2929   -4.3678 N.pl3   1  UNL1       -0.3217
     11 C           3.4736   -5.7346   -4.6139 C.3     1  UNL1        0.0342
     12 C           1.9910   -6.1686   -4.5021 C.3     1  UNL1       -0.0288
     13 C           1.8474   -7.6719   -4.7870 C.3     1  UNL1       -0.0386
     14 C           2.7220   -8.4542   -3.7928 C.3     1  UNL1       -0.0472
     15 C           4.2035   -8.0803   -3.9747 C.3     1  UNL1       -0.0386
     16 C           4.6425   -8.3593   -5.4171 C.3     1  UNL1       -0.0472
     17 C           3.7815   -7.5404   -6.3912 C.3     1  UNL1       -0.0386
     18 C           2.3132   -7.9639   -6.2215 C.3     1  UNL1       -0.0472
     19 C           3.9215   -6.0351   -6.0749 C.3     1  UNL1       -0.0288
     20 C           4.3816   -6.5839   -3.6864 C.3     1  UNL1       -0.0288
     21 C           4.2145   -2.6005   -2.6430 C.ar    1  UNL1        0.1505
     22 N           4.9167   -1.6699   -3.3268 N.ar    1  UNL1       -0.1685
     23 N           5.2552   -0.7497   -2.3960 N.ar    1  UNL1       -0.2786
     24 H           6.7638    0.5862    1.2444 H       1  UNL1        0.0236
     25 H           7.1051   -0.9601    0.4545 H       1  UNL1        0.0236
     26 H           7.0850    0.5327   -0.4964 H       1  UNL1        0.0236
     27 H           4.6973   -0.7078    0.9595 H       1  UNL1        0.0359
     28 H           4.7634    1.7459   -0.8654 H       1  UNL1        0.0236
     29 H           3.3063    0.9989   -0.1941 H       1  UNL1        0.0236
     30 H           4.5021    1.7310    0.8868 H       1  UNL1        0.0236
     31 H           2.5328   -4.6794   -0.0280 H       1  UNL1        0.1048
     32 H           4.3189   -3.8019   -4.9032 H       1  UNL1        0.1481
     33 H           1.5823   -5.9571   -3.5093 H       1  UNL1        0.0288
     34 H           1.3746   -5.5957   -5.2095 H       1  UNL1        0.0288
     35 H           0.7999   -7.9699   -4.6730 H       1  UNL1        0.0302
     36 H           2.4039   -8.2385   -2.7658 H       1  UNL1        0.0271
     37 H           2.5887   -9.5320   -3.9467 H       1  UNL1        0.0271
     38 H           4.8187   -8.6628   -3.2794 H       1  UNL1        0.0302
     39 H           4.5467   -9.4308   -5.6340 H       1  UNL1        0.0271
     40 H           5.7012   -8.1027   -5.5431 H       1  UNL1        0.0271
     41 H           4.1058   -7.7351   -7.4199 H       1  UNL1        0.0302
     42 H           2.2039   -9.0325   -6.4387 H       1  UNL1        0.0271
     43 H           1.6831   -7.4255   -6.9401 H       1  UNL1        0.0271
     44 H           4.9643   -5.7242   -6.2236 H       1  UNL1        0.0288
     45 H           3.3225   -5.4516   -6.7866 H       1  UNL1        0.0288
     46 H           5.4324   -6.2942   -3.8204 H       1  UNL1        0.0288
     47 H           4.1602   -6.4284   -2.6276 H       1  UNL1        0.0288
     48 H           5.7704    0.0670   -2.7043 H       1  UNL1        0.1886
@<TRIPOS>BOND
     1     1    24    1
     2     1    25    1
     3     1    26    1
     4     2     1    1
     5     2    27    1
     6     3     2    1
     7     3    28    1
     8     3    29    1
     9     3    30    1
    10     4     2    1
    11     5     4   ar
    12     6     5   ar
    13     7     6   ar
    14     7    31    1
    15     8     7   ar
    16     9     8   ar
    17    10     9    1
    18    10    32    1
    19    11    10    1
    20    12    11    1
    21    12    33    1
    22    12    34    1
    23    13    12    1
    24    13    35    1
    25    14    13    1
    26    14    36    1
    27    14    37    1
    28    15    14    1
    29    15    38    1
    30    16    15    1
    31    16    39    1
    32    16    40    1
    33    17    16    1
    34    17    41    1
    35    18    17    1
    36    18    13    1
    37    18    42    1
    38    18    43    1
    39    19    17    1
    40    19    11    1
    41    19    44    1
    42    19    45    1
    43    20    15    1
    44    20    11    1
    45    20    46    1
    46    20    47    1
    47    21     9   ar
    48    21     5   ar
    49    22    21   ar
    50    23    22   ar
    51    23     4   ar
    52    23    48    1
