@<TRIPOS>MOLECULE
mol_545_akc_jbmcl201105076
>528.sdf
 34 36 0 0 0
SMALL
GASTEIGER

@<TRIPOS>ATOM
      1 C           1.3912   -1.0406   -0.1900 C.3     1  UNL1       -0.0572
      2 C           2.5428   -0.0603    0.0405 C.3     1  UNL1       -0.0028
      3 C           3.6942   -0.7446    0.7794 C.3     1  UNL1       -0.0572
      4 C           2.9977    0.5328   -1.2538 C.ar    1  UNL1        0.0647
      5 C           3.5438   -0.0103   -2.3845 C.ar    1  UNL1        0.1168
      6 N           3.8378   -1.3102   -2.5817 N.ar    1  UNL1       -0.2319
      7 C           4.3651   -1.4811   -3.8186 C.ar    1  UNL1        0.1189
      8 N           4.6151   -0.5619   -4.7951 N.ar    1  UNL1       -0.2184
      9 C           4.3083    0.7624   -4.5954 C.ar    1  UNL1        0.1541
     10 N           4.5123    1.7245   -5.5940 N.pl3   1  UNL1       -0.2976
     11 C           5.4623    1.7052   -6.6273 C.ar    1  UNL1        0.0326
     12 C           5.2124    2.4145   -7.8101 C.ar    1  UNL1       -0.0378
     13 C           6.1128    2.3589   -8.8792 C.ar    1  UNL1       -0.0247
     14 C           7.2732    1.6047   -8.7619 C.ar    1  UNL1        0.1235
     15 F           8.1364    1.5516   -9.7850 F       1  UNL1       -0.2055
     16 C           7.5486    0.8986   -7.6018 C.ar    1  UNL1       -0.0247
     17 C           6.6378    0.9416   -6.5440 C.ar    1  UNL1       -0.0378
     18 C           3.7409    1.0516   -3.3281 C.ar    1  UNL1        0.1508
     19 N           3.3256    2.2134   -2.7798 N.ar    1  UNL1       -0.1685
     20 N           2.9079    1.8705   -1.5403 N.ar    1  UNL1       -0.2786
     21 H           1.0263   -1.4433    0.7610 H       1  UNL1        0.0236
     22 H           0.5512   -0.5455   -0.6905 H       1  UNL1        0.0236
     23 H           1.6956   -1.8872   -0.8153 H       1  UNL1        0.0236
     24 H           2.1690    0.7454    0.6868 H       1  UNL1        0.0359
     25 H           4.0949   -1.5937    0.2152 H       1  UNL1        0.0236
     26 H           4.5185   -0.0449    0.9573 H       1  UNL1        0.0236
     27 H           3.3583   -1.1214    1.7516 H       1  UNL1        0.0236
     28 H           4.6301   -2.5040   -4.0748 H       1  UNL1        0.1048
     29 H           4.1470    2.6367   -5.3453 H       1  UNL1        0.1536
     30 H           4.2938    2.9859   -7.9210 H       1  UNL1        0.0637
     31 H           5.9100    2.8884   -9.8035 H       1  UNL1        0.0647
     32 H           8.4589    0.3135   -7.5210 H       1  UNL1        0.0647
     33 H           6.8652    0.3819   -5.6412 H       1  UNL1        0.0637
     34 H           2.5614    2.6083   -0.9368 H       1  UNL1        0.1886
@<TRIPOS>BOND
     1     1    21    1
     2     1    22    1
     3     1    23    1
     4     2     1    1
     5     2    24    1
     6     3     2    1
     7     3    25    1
     8     3    26    1
     9     3    27    1
    10     4     2    1
    11     5     4   ar
    12     6     5   ar
    13     7     6   ar
    14     7    28    1
    15     8     7   ar
    16     9     8   ar
    17    10     9    1
    18    10    29    1
    19    11    10    1
    20    12    11   ar
    21    12    30    1
    22    13    12   ar
    23    13    31    1
    24    14    13   ar
    25    15    14    1
    26    16    14   ar
    27    16    32    1
    28    17    16   ar
    29    17    11   ar
    30    17    33    1
    31    18     9   ar
    32    18     5   ar
    33    19    18   ar
    34    20    19   ar
    35    20     4   ar
    36    20    34    1
