@<TRIPOS>MOLECULE
mol_548_akc_s11030_019_09953_4
>531.sdf
 32 34 0 0 0
SMALL
GASTEIGER

@<TRIPOS>ATOM
      1 C           1.0860   -0.1168    0.2055 C.3     1  UNL1        0.0151
      2 N           2.5483   -0.0911    0.1080 N.ar    1  UNL1       -0.3143
      3 C           3.3055   -1.2627   -0.0243 C.ar    1  UNL1        0.2054
      4 O           2.5867   -2.4644   -0.0004 O.3     1  UNL1       -0.4396
      5 C           3.1667   -3.6267    0.4556 C.ar    1  UNL1        0.1303
      6 C           3.9655   -3.6945    1.5998 C.ar    1  UNL1       -0.0193
      7 C           4.5301   -4.9138    1.9799 C.ar    1  UNL1       -0.0583
      8 C           4.2638   -6.0681    1.2428 C.ar    1  UNL1       -0.0615
      9 C           3.4227   -6.0086    0.1319 C.ar    1  UNL1       -0.0583
     10 C           2.8699   -4.7885   -0.2584 C.ar    1  UNL1       -0.0193
     11 C           4.6327   -1.2454   -0.2317 C.ar    1  UNL1        0.0460
     12 C           5.3616    0.0327   -0.2352 C.ar    1  UNL1        0.1930
     13 O           6.5805    0.0479   -0.3646 O.2     1  UNL1       -0.2870
     14 C           4.5737    1.2700   -0.0791 C.ar    1  UNL1        0.0454
     15 C           3.1761    1.1809    0.0683 C.ar    1  UNL1        0.0552
     16 C           2.4764    2.3967    0.1750 C.ar    1  UNL1       -0.0374
     17 C           3.1400    3.6310    0.1499 C.ar    1  UNL1       -0.0598
     18 C           4.5235    3.6844    0.0213 C.ar    1  UNL1       -0.0610
     19 C           5.2446    2.5020   -0.0947 C.ar    1  UNL1       -0.0489
     20 H           0.7465    0.3787    1.1215 H       1  UNL1        0.0457
     21 H           0.6317    0.3728   -0.6647 H       1  UNL1        0.0457
     22 H           0.6774   -1.1323    0.2374 H       1  UNL1        0.0457
     23 H           4.1656   -2.8076    2.1941 H       1  UNL1        0.0654
     24 H           5.1788   -4.9636    2.8509 H       1  UNL1        0.0619
     25 H           4.7067   -7.0160    1.5385 H       1  UNL1        0.0618
     26 H           3.2013   -6.9108   -0.4323 H       1  UNL1        0.0619
     27 H           2.2165   -4.7420   -1.1255 H       1  UNL1        0.0654
     28 H           5.2334   -2.1312   -0.3875 H       1  UNL1        0.0709
     29 H           1.3960    2.4212    0.2802 H       1  UNL1        0.0638
     30 H           2.5689    4.5529    0.2334 H       1  UNL1        0.0618
     31 H           5.0383    4.6414    0.0067 H       1  UNL1        0.0618
     32 H           6.3270    2.5351   -0.2010 H       1  UNL1        0.0625
@<TRIPOS>BOND
     1     1    20    1
     2     1    21    1
     3     1    22    1
     4     2     1    1
     5     3     2   ar
     6     4     3    1
     7     5     4    1
     8     6     5   ar
     9     6    23    1
    10     7     6   ar
    11     7    24    1
    12     8     7   ar
    13     8    25    1
    14     9     8   ar
    15     9    26    1
    16    10     9   ar
    17    10     5   ar
    18    10    27    1
    19    11     3   ar
    20    11    28    1
    21    12    11   ar
    22    13    12    2
    23    14    12   ar
    24    15    14   ar
    25    15     2   ar
    26    16    15   ar
    27    16    29    1
    28    17    16   ar
    29    17    30    1
    30    18    17   ar
    31    18    31    1
    32    19    18   ar
    33    19    14   ar
    34    19    32    1
