@<TRIPOS>MOLECULE
mol_549_akc_jejmech201103053
>532.sdf
 56 59 0 0 0
SMALL
GASTEIGER

@<TRIPOS>ATOM
      1 C           3.7639   -1.1542    0.2630 C.3     1  UNL1       -0.0619
      2 C           3.6957   -0.0469   -0.7805 C.3     1  UNL1       -0.0197
      3 C           4.7099    1.0650   -0.5099 C.3     1  UNL1        0.0777
      4 N           4.3901    1.7242    0.7605 N.pl3   1  UNL1       -0.2395
      5 C           5.2397    1.8937    1.7917 C.2     1  UNL1        0.2330
      6 N           4.6249    1.9880    2.8662 N.2     1  UNL1       -0.4099
      7 C           6.7235    1.9222    1.7674 C.ar    1  UNL1        0.0575
      8 C           7.3934    2.4587    0.6715 C.ar    1  UNL1       -0.0454
      9 C           8.7931    2.5123    0.6629 C.ar    1  UNL1       -0.0399
     10 C           9.5658    2.0530    1.7402 C.ar    1  UNL1        0.0298
     11 C           8.8625    1.5472    2.8422 C.ar    1  UNL1       -0.0399
     12 C           7.4647    1.4707    2.8621 C.ar    1  UNL1       -0.0454
     13 N          10.9409    2.0713    1.7061 N.pl3   1  UNL1       -0.3269
     14 C          11.7145    3.1083    0.9888 C.3     1  UNL1        0.0280
     15 C          12.7728    2.4565    0.0745 C.3     1  UNL1        0.0298
     16 N          13.5974    1.5334    0.8576 N.pl3   1  UNL1       -0.3052
     17 C          12.8495    0.4716    1.5384 C.3     1  UNL1        0.0298
     18 C          11.7740    1.1043    2.4606 C.3     1  UNL1        0.0280
     19 C          14.9521    1.4707    0.7614 C.ar    1  UNL1        0.1846
     20 N          15.6835    0.4020    1.0199 N.ar    1  UNL1       -0.1254
     21 N          17.0438    0.6339    0.9352 N.ar    1  UNL1       -0.1364
     22 C          17.3064    1.8907    0.6544 C.ar    1  UNL1        0.1689
     23 S          15.9239    2.8544    0.3899 S.2     1  UNL1       -0.0276
     24 C          18.6322    2.4337    0.6109 C.ar    1  UNL1        0.1688
     25 C          19.8398    1.7781    0.8201 C.ar    1  UNL1       -0.0066
     26 C          20.8762    2.7430    0.7251 C.ar    1  UNL1        0.0595
     27 C          20.2376    3.9282    0.4533 C.ar    1  UNL1        0.4381
     28 O          18.8957    3.7650    0.3749 O.2     1  UNL1       -0.3980
     29 N          20.7307    5.2560    0.2629 N.pl3   1  UNL1        0.1186
     30 O          21.9546    5.4032    0.3660 O.co2   1  UNL1       -0.5735
     31 O          19.9076    6.1445    0.0150 O.2     1  UNL1        0.0446
     32 H           3.0521   -1.9490    0.0208 H       1  UNL1        0.0231
     33 H           4.7662   -1.5923    0.3018 H       1  UNL1        0.0231
     34 H           3.5158   -0.7781    1.2605 H       1  UNL1        0.0231
     35 H           3.8939   -0.4775   -1.7691 H       1  UNL1        0.0299
     36 H           2.6794    0.3642   -0.8057 H       1  UNL1        0.0299
     37 H           5.7174    0.6388   -0.5141 H       1  UNL1        0.0724
     38 H           4.6570    1.8102   -1.3115 H       1  UNL1        0.0724
     39 H           3.4881    2.1917    0.6952 H       1  UNL1        0.2911
     40 H           5.1418    2.5110    3.5523 H       1  UNL1        0.2551
     41 H           6.8543    2.8452   -0.1885 H       1  UNL1        0.0627
     42 H           9.2732    2.8948   -0.2347 H       1  UNL1        0.0636
     43 H           9.4024    1.2185    3.7278 H       1  UNL1        0.0636
     44 H           6.9985    1.0422    3.7430 H       1  UNL1        0.0627
     45 H          11.0907    3.7804    0.3926 H       1  UNL1        0.0479
     46 H          12.2186    3.7382    1.7332 H       1  UNL1        0.0479
     47 H          12.2707    1.8922   -0.7219 H       1  UNL1        0.0480
     48 H          13.3486    3.2466   -0.4167 H       1  UNL1        0.0480
     49 H          12.3590   -0.1629    0.7897 H       1  UNL1        0.0480
     50 H          13.4931   -0.1737    2.1473 H       1  UNL1        0.0480
     51 H          12.2596    1.6317    3.2913 H       1  UNL1        0.0479
     52 H          11.1833    0.2861    2.8855 H       1  UNL1        0.0479
     53 H          19.9464    0.7221    1.0345 H       1  UNL1        0.0658
     54 H          21.9402    2.5950    0.8464 H       1  UNL1        0.0722
     55 H           3.6956    2.3205    2.7189 H       1  UNL1        0.2551
     56 H           4.5255    1.0380    3.2050 H       1  UNL1        0.2551
@<TRIPOS>UNITY_ATOM_ATTR
29 1
charge 1
30 1
charge -1
@<TRIPOS>BOND
     1     1    32    1
     2     1    33    1
     3     1    34    1
     4     2     1    1
     5     2    35    1
     6     2    36    1
     7     3     2    1
     8     3    37    1
     9     3    38    1
    10     4     3    1
    11     4    39    1
    12     5     4    1
    13     6     5    2
    14     6    40    1
    15     6    55    1
    16     7     5    1
    17     8     7   ar
    18     8    41    1
    19     9     8   ar
    20     9    42    1
    21    10     9   ar
    22    11    10   ar
    23    11    43    1
    24    12    11   ar
    25    12     7   ar
    26    12    44    1
    27    13    10    1
    28    14    13    1
    29    14    45    1
    30    14    46    1
    31    15    14    1
    32    15    47    1
    33    15    48    1
    34    16    15    1
    35    17    16    1
    36    17    49    1
    37    17    50    1
    38    18    17    1
    39    18    13    1
    40    18    51    1
    41    18    52    1
    42    19    16    1
    43    20    19   ar
    44    21    20   ar
    45    22    21   ar
    46    23    22   ar
    47    23    19   ar
    48    24    22    1
    49    25    24   ar
    50    25    53    1
    51    26    25   ar
    52    26    54    1
    53    27    26   ar
    54    28    27   ar
    55    28    24   ar
    56    29    27    1
    57    30    29    1
    58    31    29    2
    59     6    56    1
