@<TRIPOS>MOLECULE
mol_54_akc_jbmc201806033
>54.sdf
 22 23 0 0 0
SMALL
GASTEIGER

@<TRIPOS>ATOM
      1 C           2.6365   -1.7078    0.7083 C.3     1  UNL1        0.0614
      2 S           2.9510   -0.0697    0.1057 S.O2    1  UNL1        0.0140
      3 O           1.6774    0.6248    0.0758 O.2     1  UNL1       -0.1681
      4 O           4.0801    0.4482    0.8569 O.2     1  UNL1       -0.1681
      5 C           3.4743   -0.2805   -1.5569 C.ar    1  UNL1        0.2137
      6 N           3.4898   -1.5722   -1.9962 N.ar    1  UNL1       -0.2244
      7 C           3.8684   -1.7460   -3.2746 C.ar    1  UNL1        0.0915
      8 C           4.2349   -0.6447   -4.0952 C.ar    1  UNL1        0.0920
      9 C           4.6139   -0.8764   -5.4098 C.ar    1  UNL1       -0.0202
     10 C           4.6276   -2.1687   -5.9300 C.ar    1  UNL1        0.0200
     11 BR          5.1300   -2.4541   -7.7286 Br      1  UNL1       -0.0502
     12 C           4.2678   -3.2493   -5.1345 C.ar    1  UNL1       -0.0456
     13 C           3.8939   -3.0272   -3.8088 C.ar    1  UNL1       -0.0331
     14 N           4.2142    0.6187   -3.6250 N.ar    1  UNL1       -0.2302
     15 C           3.8220    0.7932   -2.3395 C.ar    1  UNL1        0.1732
     16 CL          3.8055    2.4357   -1.8561 Cl      1  UNL1       -0.0583
     17 H           2.2882   -1.6255    1.7405 H       1  UNL1        0.0468
     18 H           1.8604   -2.1755    0.0992 H       1  UNL1        0.0468
     19 H           3.5616   -2.2867    0.6802 H       1  UNL1        0.0468
     20 H           4.8951   -0.0297   -6.0317 H       1  UNL1        0.0650
     21 H           4.2712   -4.2618   -5.5310 H       1  UNL1        0.0629
     22 H           3.6113   -3.8713   -3.1837 H       1  UNL1        0.0640
@<TRIPOS>BOND
     1     1    17    1
     2     1    18    1
     3     1    19    1
     4     2     1    1
     5     3     2    2
     6     4     2    2
     7     5     2    1
     8     6     5   ar
     9     7     6   ar
    10     8     7   ar
    11     9     8   ar
    12     9    20    1
    13    10     9   ar
    14    11    10    1
    15    12    10   ar
    16    12    21    1
    17    13    12   ar
    18    13     7   ar
    19    13    22    1
    20    14     8   ar
    21    15    14   ar
    22    15     5   ar
    23    16    15    1
