@<TRIPOS>MOLECULE
mol_551_akc_molecules16053469
>534.sdf
 33 34 0 0 0
SMALL
GASTEIGER

@<TRIPOS>ATOM
      1 C           5.1077   -2.7442    0.3272 C.3     1  UNL1        0.0332
      2 C           4.5949   -1.3435    0.1817 C.2     1  UNL1        0.3040
      3 O           3.9340   -0.7684    1.0380 O.2     1  UNL1       -0.2512
      4 O           4.9605   -0.8103   -1.0136 O.3     1  UNL1       -0.4639
      5 C           4.5813    0.5656   -1.1858 C.3     1  UNL1        0.1032
      6 C           5.1275    1.0860   -2.5126 C.3     1  UNL1        0.0438
      7 C           6.6475    1.0860   -2.5126 C.1     1  UNL1       -0.0931
      8 C           7.9514    1.0860   -2.5126 C.1     1  UNL1       -0.0590
      9 C           9.3645    1.0672   -2.5907 C.ar    1  UNL1        0.0625
     10 C          10.2099    2.0284   -2.0909 C.ar    1  UNL1       -0.0386
     11 C          11.5785    1.6849   -2.3049 C.ar    1  UNL1       -0.0452
     12 C          11.7180    0.4751   -2.9582 C.ar    1  UNL1        0.0271
     13 S          10.1949   -0.1956   -3.3621 S.2     1  UNL1       -0.0794
     14 C          12.9191   -0.2567   -3.2541 C.ar    1  UNL1        0.0262
     15 C          13.1637   -1.0709   -4.3447 C.ar    1  UNL1       -0.0462
     16 C          14.4012   -1.7689   -4.2317 C.ar    1  UNL1       -0.0512
     17 C          15.0679   -1.4519   -3.0711 C.ar    1  UNL1       -0.0127
     18 C          16.3513   -2.0127   -2.5670 C.3     1  UNL1       -0.0334
     19 S          14.2380   -0.2666   -2.1647 S.2     1  UNL1       -0.0930
     20 H           5.7311   -2.8062    1.2226 H       1  UNL1        0.0342
     21 H           4.2634   -3.4336    0.4003 H       1  UNL1        0.0342
     22 H           5.7180   -3.0287   -0.5347 H       1  UNL1        0.0342
     23 H           3.4870    0.6286   -1.1991 H       1  UNL1        0.0707
     24 H           4.9711    1.1636   -0.3533 H       1  UNL1        0.0707
     25 H           4.7876    0.4494   -3.3372 H       1  UNL1        0.0431
     26 H           4.7709    2.1056   -2.6917 H       1  UNL1        0.0431
     27 H           9.8730    2.9221   -1.5788 H       1  UNL1        0.0635
     28 H          12.4131    2.2896   -1.9705 H       1  UNL1        0.0629
     29 H          12.4681   -1.2000   -5.1660 H       1  UNL1        0.0629
     30 H          14.7583   -2.4901   -4.9567 H       1  UNL1        0.0626
     31 H          16.2841   -3.1046   -2.5140 H       1  UNL1        0.0283
     32 H          17.1694   -1.7459   -3.2410 H       1  UNL1        0.0283
     33 H          16.5989   -1.6466   -1.5654 H       1  UNL1        0.0283
@<TRIPOS>BOND
     1     1    20    1
     2     1    21    1
     3     1    22    1
     4     2     1    1
     5     3     2    2
     6     4     2    1
     7     5     4    1
     8     5    23    1
     9     5    24    1
    10     6     5    1
    11     6    25    1
    12     6    26    1
    13     7     6    1
    14     8     7    3
    15     9     8    1
    16    10     9   ar
    17    10    27    1
    18    11    10   ar
    19    11    28    1
    20    12    11   ar
    21    13    12   ar
    22    13     9   ar
    23    14    12    1
    24    15    14   ar
    25    15    29    1
    26    16    15   ar
    27    16    30    1
    28    17    16   ar
    29    18    17    1
    30    18    31    1
    31    18    32    1
    32    18    33    1
    33    19    17   ar
    34    19    14   ar
