@<TRIPOS>MOLECULE
mol_552_akc_jbmc201102051
>535.sdf
 41 43 0 0 0
SMALL
GASTEIGER

@<TRIPOS>ATOM
      1 BR         -1.4197   -0.3619   -1.4150 Br      1  UNL1       -0.0503
      2 C           0.3999   -0.2030   -0.9275 C.ar    1  UNL1        0.0179
      3 C           1.1276    0.9135   -1.3339 C.ar    1  UNL1       -0.0472
      4 C           2.4776    1.0208   -0.9933 C.ar    1  UNL1       -0.0532
      5 C           3.1037    0.0090   -0.2518 C.ar    1  UNL1       -0.0178
      6 C           2.3599   -1.1038    0.1600 C.ar    1  UNL1       -0.0532
      7 C           1.0070   -1.2088   -0.1769 C.ar    1  UNL1       -0.0472
      8 C           4.5595    0.0707   -0.0327 C.2     1  UNL1        0.0109
      9 C           5.2024    0.6670    0.9949 C.2     1  UNL1        0.1791
     10 O           6.6035    0.6936    1.0408 O.2     1  UNL1       -0.4541
     11 C           7.3526    0.3865   -0.0976 C.2     1  UNL1        0.1331
     12 C           8.8207    0.7281    0.0193 C.3     1  UNL1        0.0937
     13 C           9.0385    2.2175    0.2302 C.1     1  UNL1        0.0703
     14 N           9.2192    3.4532    0.4051 N.1     1  UNL1       -0.1961
     15 C           6.7864   -0.2235   -1.1591 C.2     1  UNL1        0.0726
     16 C           5.3296   -0.5860   -1.1528 C.3     1  UNL1        0.0148
     17 C           7.5340   -0.5584   -2.3245 C.1     1  UNL1        0.0985
     18 N           8.1568   -0.8198   -3.2634 N.1     1  UNL1       -0.1911
     19 C           4.4711    1.2817    2.1705 C.2     1  UNL1        0.2282
     20 O           3.2927    1.0413    2.4165 O.2     1  UNL1       -0.2834
     21 C           5.2244    2.1400    3.1348 C.ar    1  UNL1        0.0255
     22 C           6.2920    2.9620    2.7499 C.ar    1  UNL1       -0.0487
     23 C           7.0248    3.6729    3.7081 C.ar    1  UNL1       -0.0308
     24 C           6.6553    3.6011    5.0564 C.ar    1  UNL1        0.1262
     25 C           5.5379    2.8527    5.4452 C.ar    1  UNL1       -0.0308
     26 C           4.8276    2.1256    4.4824 C.ar    1  UNL1       -0.0487
     27 N           7.4551    4.3014    6.0711 N.pl3   1  UNL1        0.0564
     28 O           8.4883    4.8729    5.6963 O.2     1  UNL1       -0.1261
     29 O           7.0584    4.2625    7.2443 O.2     1  UNL1       -0.1261
     30 H           0.6590    1.6972   -1.9231 H       1  UNL1        0.0629
     31 H           3.0404    1.8875   -1.3320 H       1  UNL1        0.0624
     32 H           2.8254   -1.8989    0.7373 H       1  UNL1        0.0624
     33 H           0.4398   -2.0791    0.1426 H       1  UNL1        0.0629
     34 H           9.2409    0.1919    0.8788 H       1  UNL1        0.0498
     35 H           9.4018    0.4217   -0.8557 H       1  UNL1        0.0498
     36 H           5.2335   -1.6763   -1.0660 H       1  UNL1        0.0371
     37 H           4.8951   -0.2957   -2.1187 H       1  UNL1        0.0371
     38 H           6.5740    3.0695    1.7066 H       1  UNL1        0.0625
     39 H           7.8760    4.2708    3.3830 H       1  UNL1        0.0640
     40 H           5.2159    2.8131    6.4844 H       1  UNL1        0.0640
     41 H           3.9649    1.5358    4.7925 H       1  UNL1        0.0625
@<TRIPOS>BOND
     1     2     1    1
     2     3     2   ar
     3     3    30    1
     4     4     3   ar
     5     4    31    1
     6     5     4   ar
     7     6     5   ar
     8     6    32    1
     9     7     6   ar
    10     7     2   ar
    11     7    33    1
    12     8     5    1
    13     9     8    2
    14    10     9    1
    15    11    10    1
    16    12    11    1
    17    12    34    1
    18    12    35    1
    19    13    12    1
    20    14    13    3
    21    15    11    2
    22    16    15    1
    23    16     8    1
    24    16    36    1
    25    16    37    1
    26    17    15    1
    27    18    17    3
    28    19     9    1
    29    20    19    2
    30    21    19    1
    31    22    21   ar
    32    22    38    1
    33    23    22   ar
    34    23    39    1
    35    24    23   ar
    36    25    24   ar
    37    25    40    1
    38    26    25   ar
    39    26    21   ar
    40    26    41    1
    41    27    24    1
    42    28    27    2
    43    29    27    2
