@<TRIPOS>MOLECULE
mol_554_akc_journalpntd0000962
>537.sdf
 36 35 0 0 0
SMALL
GASTEIGER

@<TRIPOS>ATOM
      1 C           4.0620    1.2246    1.7159 C.3     1  UNL1       -0.0493
      2 C           3.1495    1.0600    0.5077 C.3     1  UNL1        0.0103
      3 N           3.7187    1.6199   -0.7373 N.am    1  UNL1       -0.3189
      4 C           3.3915    3.0193   -1.0929 C.3     1  UNL1        0.0103
      5 C           2.5811    3.8537   -0.1065 C.3     1  UNL1       -0.0493
      6 C           4.5389    0.8177   -1.5823 C.2     1  UNL1        0.1200
      7 S           4.9819   -0.7846   -1.2566 S.2     1  UNL1       -0.0271
      8 S           5.0172    1.5354   -3.1521 S.3     1  UNL1       -0.0271
      9 S           7.0795    1.3716   -3.1468 S.3     1  UNL1       -0.0271
     10 C           7.6728    2.3462   -4.5097 C.2     1  UNL1        0.1200
     11 S           6.9273    3.7353   -5.0938 S.2     1  UNL1       -0.0271
     12 N           8.9290    1.9087   -4.9570 N.am    1  UNL1       -0.3189
     13 C           9.1074    0.5330   -5.4448 C.3     1  UNL1        0.0103
     14 C          10.2130   -0.2376   -4.7433 C.3     1  UNL1       -0.0493
     15 C          10.0525    2.8505   -5.0781 C.3     1  UNL1        0.0103
     16 C          10.5673    3.0448   -6.4939 C.3     1  UNL1       -0.0493
     17 H           3.6052    0.7705    2.5961 H       1  UNL1        0.0245
     18 H           5.0318    0.7455    1.5563 H       1  UNL1        0.0245
     19 H           4.2502    2.2796    1.9385 H       1  UNL1        0.0245
     20 H           2.9324   -0.0022    0.3690 H       1  UNL1        0.0461
     21 H           2.1730    1.5104    0.7057 H       1  UNL1        0.0461
     22 H           4.3367    3.5422   -1.2820 H       1  UNL1        0.0461
     23 H           2.8322    2.9866   -2.0359 H       1  UNL1        0.0461
     24 H           1.5787    3.4420    0.0455 H       1  UNL1        0.0245
     25 H           3.0791    3.9350    0.8634 H       1  UNL1        0.0245
     26 H           2.4529    4.8689   -0.4981 H       1  UNL1        0.0245
     27 H           8.1640   -0.0183   -5.3566 H       1  UNL1        0.0461
     28 H           9.3180    0.5885   -6.5206 H       1  UNL1        0.0461
     29 H          11.1887    0.2386   -4.8825 H       1  UNL1        0.0245
     30 H          10.0209   -0.3119   -3.6693 H       1  UNL1        0.0245
     31 H          10.2807   -1.2509   -5.1522 H       1  UNL1        0.0245
     32 H           9.7697    3.8211   -4.6563 H       1  UNL1        0.0461
     33 H          10.8611    2.4763   -4.4399 H       1  UNL1        0.0461
     34 H          11.0069    2.1240   -6.8889 H       1  UNL1        0.0245
     35 H           9.7660    3.3568   -7.1698 H       1  UNL1        0.0245
     36 H          11.3479    3.8122   -6.5054 H       1  UNL1        0.0245
@<TRIPOS>BOND
     1     1    17    1
     2     1    18    1
     3     1    19    1
     4     2     1    1
     5     2    20    1
     6     2    21    1
     7     3     2    1
     8     4     3    1
     9     4    22    1
    10     4    23    1
    11     5     4    1
    12     5    24    1
    13     5    25    1
    14     5    26    1
    15     6     3    1
    16     7     6    2
    17     8     6    1
    18     9     8    1
    19    10     9    1
    20    11    10    2
    21    12    10    1
    22    13    12    1
    23    13    27    1
    24    13    28    1
    25    14    13    1
    26    14    29    1
    27    14    30    1
    28    14    31    1
    29    15    12    1
    30    15    32    1
    31    15    33    1
    32    16    15    1
    33    16    34    1
    34    16    35    1
    35    16    36    1
