@<TRIPOS>MOLECULE
mol_555_akc_aac00436_10
>538.sdf
 51 54 0 0 0
SMALL
GASTEIGER

@<TRIPOS>ATOM
      1 C           1.3364   -0.0974    0.4614 C.3     1  UNL1       -0.0492
      2 C           2.8497    0.0948    0.4458 C.3     1  UNL1        0.0869
      3 C           3.3916    0.6776   -0.8583 C.3     1  UNL1        0.1090
      4 N           3.2157    2.1337   -0.9269 N.pl3   1  UNL1       -0.2186
      5 C           3.5671    2.7613   -2.2089 C.3     1  UNL1        0.0668
      6 C           3.1745    4.2381   -2.2954 C.3     1  UNL1        0.0208
      7 C           1.6825    4.4789   -2.5959 C.3     1  UNL1       -0.0194
      8 C           1.2910    3.9943   -3.9740 C.ar    1  UNL1       -0.0468
      9 C           0.6623    2.7509   -4.1264 C.ar    1  UNL1       -0.0572
     10 C           0.3799    2.2523   -5.3982 C.ar    1  UNL1       -0.0431
     11 C           0.7112    3.0019   -6.5242 C.ar    1  UNL1        0.0410
     12 CL          0.3883    2.3737   -8.0927 Cl      1  UNL1       -0.0835
     13 C           1.3120    4.2527   -6.3880 C.ar    1  UNL1       -0.0431
     14 C           1.6018    4.7477   -5.1155 C.ar    1  UNL1       -0.0572
     15 C           3.5940    4.9036   -0.9930 C.3     1  UNL1        0.0636
     16 N           3.0265    4.1835    0.1174 N.pl3   1  UNL1       -0.2394
     17 C           3.1253    2.8355    0.2430 C.2     1  UNL1        0.3653
     18 N           3.1213    2.3458    1.4376 N.am    1  UNL1       -0.0080
     19 C           3.2562    0.9882    1.5911 C.2     1  UNL1        0.3156
     20 O           3.6191    0.4902    2.6540 O.2     1  UNL1       -0.2537
     21 C           4.8481    0.2538   -1.0644 C.ar    1  UNL1       -0.0119
     22 C           5.1282   -0.9165   -1.7884 C.ar    1  UNL1       -0.0549
     23 C           6.4436   -1.3612   -1.9461 C.ar    1  UNL1       -0.0498
     24 C           7.5094   -0.6458   -1.3845 C.ar    1  UNL1        0.0548
     25 C           7.2341    0.5272   -0.6693 C.ar    1  UNL1       -0.0498
     26 C           5.9198    0.9651   -0.5021 C.ar    1  UNL1       -0.0549
     27 C           8.9351   -1.1159   -1.5309 C.3     1  UNL1        0.4174
     28 F           9.0503   -2.3230   -2.1519 F       1  UNL1       -0.1659
     29 F           9.6943   -0.2494   -2.2577 F       1  UNL1       -0.1659
     30 F           9.5668   -1.2517   -0.3321 F       1  UNL1       -0.1659
     31 H           0.9933   -0.6182   -0.4381 H       1  UNL1        0.0239
     32 H           1.0488   -0.7083    1.3251 H       1  UNL1        0.0239
     33 H           0.7962    0.8510    0.5437 H       1  UNL1        0.0239
     34 H           3.3004   -0.8935    0.6177 H       1  UNL1        0.0443
     35 H           2.8152    0.2478   -1.6902 H       1  UNL1        0.0730
     36 H           3.1407    2.1866   -3.0371 H       1  UNL1        0.0638
     37 H           4.6552    2.7071   -2.3389 H       1  UNL1        0.0638
     38 H           3.7558    4.6942   -3.1086 H       1  UNL1        0.0362
     39 H           1.0422    4.0093   -1.8391 H       1  UNL1        0.0318
     40 H           1.4655    5.5546   -2.5423 H       1  UNL1        0.0318
     41 H           0.4096    2.1536   -3.2515 H       1  UNL1        0.0621
     42 H          -0.0895    1.2784   -5.5033 H       1  UNL1        0.0632
     43 H           1.5638    4.8392   -7.2680 H       1  UNL1        0.0632
     44 H           2.0817    5.7201   -5.0223 H       1  UNL1        0.0621
     45 H           3.2699    5.9492   -0.9638 H       1  UNL1        0.0636
     46 H           4.6874    4.9036   -0.9015 H       1  UNL1        0.0636
     47 H           3.1000    4.6477    1.0199 H       1  UNL1        0.2442
     48 H           4.3214   -1.5034   -2.2248 H       1  UNL1        0.0621
     49 H           6.6310   -2.2799   -2.5014 H       1  UNL1        0.0623
     50 H           8.0457    1.1014   -0.2246 H       1  UNL1        0.0623
     51 H           5.7446    1.8694    0.0776 H       1  UNL1        0.0621
@<TRIPOS>BOND
     1     1    31    1
     2     1    32    1
     3     1    33    1
     4     2     1    1
     5     2    34    1
     6     3     2    1
     7     4     3    1
     8     5     4    1
     9     5    36    1
    10     5    37    1
    11     6     5    1
    12     7    39    1
    13     7    40    1
    14     8     7    1
    15     9     8   ar
    16     9    41    1
    17    10     9   ar
    18    10    42    1
    19    11    10   ar
    20    12    11    1
    21    13    11   ar
    22    13    43    1
    23    14    13   ar
    24    14     8   ar
    25    14    44    1
    26    15     6    1
    27    15    45    1
    28    15    46    1
    29    16    15    1
    30    16    47    1
    31    17    16    1
    32    17     4    1
    33    18    17    2
    34    19    18    1
    35    19     2    1
    36    20    19    2
    37    22    21   ar
    38    22    48    1
    39    23    22   ar
    40    23    49    1
    41    24    23   ar
    42    25    24   ar
    43    25    50    1
    44    26    25   ar
    45    26    21   ar
    46    26    51    1
    47    27    24    1
    48    28    27    1
    49    29    27    1
    50    30    27    1
    51     3    21    1
    52     3    35    1
    53     6     7    1
    54     6    38    1
