@<TRIPOS>MOLECULE
mol_557_akc_md9112369
>540.sdf
 60 62 0 0 0
SMALL
GASTEIGER

@<TRIPOS>ATOM
      1 C           1.1329    0.2177    0.2525 C.3     1  UNL1       -0.0597
      2 C           2.6566    0.1322    0.1192 C.3     1  UNL1       -0.0139
      3 C           3.2144    1.5323   -0.1833 C.3     1  UNL1       -0.0597
      4 C           3.3843   -0.5339    1.3189 C.3     1  UNL1        0.0899
      5 O           4.7650   -0.6720    0.9400 O.3     1  UNL1       -0.3840
      6 C           3.3755    0.2694    2.6218 C.3     1  UNL1       -0.0191
      7 C           3.8797   -0.7570    3.6398 C.3     1  UNL1       -0.0408
      8 C           3.0797   -2.0459    3.3014 C.3     1  UNL1       -0.0054
      9 C           1.7528   -1.9322    4.0857 C.3     1  UNL1       -0.0556
     10 C           3.9168   -3.3131    3.6663 C.3     1  UNL1       -0.0103
     11 C           3.2207   -4.7134    3.6004 C.3     1  UNL1        0.0965
     12 O           2.0361   -4.5933    4.3993 O.3     1  UNL1       -0.3836
     13 C           3.9865   -5.8384    4.3242 C.2     1  UNL1       -0.0447
     14 C           5.1960   -5.7354    4.9038 C.2     1  UNL1       -0.0967
     15 C           3.2220   -7.1489    4.4151 C.3     1  UNL1       -0.0259
     16 C           2.7621   -7.6442    3.0483 C.3     1  UNL1       -0.0113
     17 C           2.0234   -6.5611    2.2497 C.3     1  UNL1        0.1119
     18 O           0.7534   -6.2898    2.8749 O.3     1  UNL1       -0.4609
     19 C          -0.3233   -7.0438    2.5592 C.2     1  UNL1        0.3042
     20 C          -1.5506   -6.4777    3.2127 C.3     1  UNL1        0.0332
     21 O          -0.3121   -8.0385    1.8483 O.2     1  UNL1       -0.2512
     22 C           2.8389   -5.2093    2.1438 C.3     1  UNL1        0.0409
     23 C           4.0936   -5.4819    1.2668 C.3     1  UNL1       -0.0529
     24 C           1.9169   -4.2134    1.3764 C.3     1  UNL1       -0.0227
     25 C           2.4559   -2.8712    0.9735 C.2     1  UNL1       -0.0808
     26 C           2.9076   -1.9126    1.7908 C.2     1  UNL1       -0.0361
     27 H           0.7032    0.7309   -0.6164 H       1  UNL1        0.0233
     28 H           0.6745   -0.7744    0.2904 H       1  UNL1        0.0233
     29 H           0.8298    0.7705    1.1454 H       1  UNL1        0.0233
     30 H           2.8739   -0.4687   -0.7749 H       1  UNL1        0.0326
     31 H           2.9521    2.2482    0.6021 H       1  UNL1        0.0233
     32 H           4.3043    1.5175   -0.2842 H       1  UNL1        0.0233
     33 H           2.8068    1.9099   -1.1278 H       1  UNL1        0.0233
     34 H           4.9787   -1.6196    0.9306 H       1  UNL1        0.2106
     35 H           4.0362    1.1401    2.5988 H       1  UNL1        0.0296
     36 H           2.3665    0.6157    2.8848 H       1  UNL1        0.0296
     37 H           4.9582   -0.9074    3.5175 H       1  UNL1        0.0275
     38 H           3.7189   -0.4117    4.6696 H       1  UNL1        0.0275
     39 H           0.9928   -2.6413    3.7532 H       1  UNL1        0.0238
     40 H           1.9358   -2.0896    5.1577 H       1  UNL1        0.0238
     41 H           1.2913   -0.9437    3.9960 H       1  UNL1        0.0238
     42 H           4.2564   -3.1502    4.6989 H       1  UNL1        0.0305
     43 H           4.8297   -3.3352    3.0532 H       1  UNL1        0.0305
     44 H           2.3220   -4.4768    5.3215 H       1  UNL1        0.2106
     45 H           5.6353   -6.5753    5.4369 H       1  UNL1        0.0535
     46 H           5.7827   -4.8239    4.8953 H       1  UNL1        0.0535
     47 H           3.8282   -7.9323    4.8862 H       1  UNL1        0.0312
     48 H           2.3511   -7.0121    5.0677 H       1  UNL1        0.0312
     49 H           3.6280   -8.0047    2.4785 H       1  UNL1        0.0304
     50 H           2.1058   -8.5086    3.1996 H       1  UNL1        0.0304
     51 H           1.8360   -6.9421    1.2354 H       1  UNL1        0.0740
     52 H          -2.3551   -6.4224    2.4776 H       1  UNL1        0.0342
     53 H          -1.8404   -7.0982    4.0604 H       1  UNL1        0.0342
     54 H          -1.3620   -5.4577    3.5678 H       1  UNL1        0.0342
     55 H           3.7996   -5.9140    0.3007 H       1  UNL1        0.0237
     56 H           4.6601   -4.5715    1.0520 H       1  UNL1        0.0237
     57 H           4.7857   -6.1920    1.7284 H       1  UNL1        0.0237
     58 H           1.6156   -4.7012    0.4361 H       1  UNL1        0.0315
     59 H           0.9756   -4.0482    1.9128 H       1  UNL1        0.0315
     60 H           2.4075   -2.6678   -0.0959 H       1  UNL1        0.0573
@<TRIPOS>BOND
     1     1    27    1
     2     1    28    1
     3     1    29    1
     4     2     1    1
     5     2    30    1
     6     3     2    1
     7     3    31    1
     8     3    32    1
     9     3    33    1
    10     4     2    1
    11     5     4    1
    12     5    34    1
    13     6     4    1
    14     6    35    1
    15     6    36    1
    16     7     6    1
    17     7    37    1
    18     7    38    1
    19     8     7    1
    20     8     9    1
    21     9    39    1
    22     9    40    1
    23     9    41    1
    24    10     8    1
    25    10    42    1
    26    10    43    1
    27    11    10    1
    28    11    12    1
    29    12    44    1
    30    13    11    1
    31    14    13    2
    32    14    45    1
    33    14    46    1
    34    15    13    1
    35    15    47    1
    36    15    48    1
    37    16    15    1
    38    16    49    1
    39    16    50    1
    40    17    16    1
    41    17    51    1
    42    18    17    1
    43    19    18    1
    44    20    19    1
    45    20    52    1
    46    20    53    1
    47    20    54    1
    48    21    19    2
    49    22    17    1
    50    22    11    1
    51    22    23    1
    52    23    55    1
    53    23    56    1
    54    23    57    1
    55    24    22    1
    56    24    58    1
    57    24    59    1
    58    25    24    1
    59    25    60    1
    60    26    25    2
    61    26     4    1
    62    26     8    1
