@<TRIPOS>MOLECULE
mol_559_akc_s00436_010_2073_x
>542.sdf
 33 34 0 0 0
SMALL
GASTEIGER

@<TRIPOS>ATOM
      1 C           1.1597   -1.2846   -3.5051 C.3     1  UNL1        0.0000
      2 SE          2.3091   -2.4406   -2.4082 Se      1  UNL1        0.0000
      3 C           3.5333   -1.1365   -1.5559 C.2     1  UNL1        0.0000
      4 N           3.1169   -0.2643   -0.4820 N.am    1  UNL1        0.0000
      5 C           1.8277   -0.0975   -0.0452 C.2     1  UNL1        0.0000
      6 O           0.9253   -0.7175   -0.5845 O.2     1  UNL1        0.0000
      7 C           1.4408    0.8375    1.0699 C.ar    1  UNL1        0.0000
      8 C           2.3674    1.5714    1.8472 C.ar    1  UNL1        0.0000
      9 C           1.9144    2.4134    2.8714 C.ar    1  UNL1        0.0000
     10 C           0.5475    2.5281    3.1189 C.ar    1  UNL1        0.0000
     11 N          -0.3361    1.8254    2.3696 N.ar    1  UNL1        0.0000
     12 C           0.0728    0.9970    1.3713 C.ar    1  UNL1        0.0000
     13 N           4.8035   -1.1575   -1.8401 N.am    1  UNL1        0.0000
     14 C           5.4351   -1.9083   -2.8880 C.2     1  UNL1        0.0000
     15 O           4.8204   -2.1560   -3.9153 O.2     1  UNL1        0.0000
     16 C           6.8686   -2.3181   -2.7879 C.ar    1  UNL1        0.0000
     17 C           7.5924   -2.1866   -1.5884 C.ar    1  UNL1        0.0000
     18 N           8.8933   -2.5854   -1.5212 N.ar    1  UNL1        0.0000
     19 C           9.5413   -3.1128   -2.5937 C.ar    1  UNL1        0.0000
     20 C           8.8717   -3.2602   -3.8068 C.ar    1  UNL1        0.0000
     21 C           7.5349   -2.8669   -3.9020 C.ar    1  UNL1        0.0000
     22 H           0.2487   -0.9759   -2.9510 H       1  UNL1        0.0000
     23 H           1.6977   -0.4072   -3.9134 H       1  UNL1        0.0000
     24 H           0.8198   -1.8865   -4.3760 H       1  UNL1        0.0000
     25 H           3.8630    0.2807   -0.0295 H       1  UNL1        0.0000
     26 H           3.4309    1.5065    1.6870 H       1  UNL1        0.0000
     27 H           2.6170    2.9756    3.4741 H       1  UNL1        0.0000
     28 H           0.1843    3.1739    3.9075 H       1  UNL1        0.0000
     29 H          -0.6844    0.4661    0.8096 H       1  UNL1        0.0000
     30 H           7.1251   -1.7835   -0.7008 H       1  UNL1        0.0000
     31 H          10.5768   -3.4181   -2.5056 H       1  UNL1        0.0000
     32 H           9.3838   -3.6765   -4.6661 H       1  UNL1        0.0000
     33 H           7.0262   -2.9869   -4.8498 H       1  UNL1        0.0000
@<TRIPOS>BOND
     1     1    22    1
     2     1    23    1
     3     1    24    1
     4     2     1    1
     5     3     2    1
     6     4     3    1
     7     4    25    1
     8     5     4   am
     9     6     5    2
    10     7     5    1
    11     8     7   ar
    12     8    26    1
    13     9     8   ar
    14     9    27    1
    15    10     9   ar
    16    10    28    1
    17    11    10   ar
    18    12    11   ar
    19    12     7   ar
    20    12    29    1
    21    13     3    2
    22    14    13    1
    23    15    14    2
    24    16    14    1
    25    17    16   ar
    26    17    30    1
    27    18    17   ar
    28    19    18   ar
    29    19    31    1
    30    20    19   ar
    31    20    32    1
    32    21    20   ar
    33    21    16   ar
    34    21    33    1
