@<TRIPOS>MOLECULE
mol_55_akc_aac02582_15
>55.sdf
 36 39 0 0 0
SMALL
GASTEIGER

@<TRIPOS>ATOM
      1 CL          2.4332   -1.6366   -0.2704 Cl      1  UNL1       -0.0820
      2 C           0.9860   -0.7068   -0.1341 C.ar    1  UNL1        0.0614
      3 C          -0.2334   -1.3776   -0.2366 C.ar    1  UNL1       -0.0144
      4 C          -1.4381   -0.6971   -0.1217 C.ar    1  UNL1        0.0914
      5 C          -1.4260    0.6888    0.1328 C.ar    1  UNL1        0.0914
      6 C          -0.2126    1.3558    0.2108 C.ar    1  UNL1       -0.0144
      7 C           0.9968    0.6732    0.0749 C.ar    1  UNL1        0.0614
      8 CL          2.4578    1.5852    0.1752 Cl      1  UNL1       -0.0820
      9 N          -2.5677    1.3695    0.3125 N.ar    1  UNL1       -0.2430
     10 C          -3.7495    0.6879    0.2231 C.ar    1  UNL1        0.0976
     11 C          -4.9308    1.5168    0.5585 C.ar    1  UNL1        0.0025
     12 C          -5.0141    2.8508    0.1153 C.ar    1  UNL1       -0.0525
     13 C          -6.1231    3.6504    0.4079 C.ar    1  UNL1       -0.0611
     14 C          -7.1780    3.1319    1.1526 C.ar    1  UNL1       -0.0617
     15 C          -7.1106    1.8259    1.6266 C.ar    1  UNL1       -0.0611
     16 C          -5.9906    1.0355    1.3493 C.ar    1  UNL1       -0.0525
     17 C          -3.7623   -0.6773   -0.1202 C.ar    1  UNL1        0.0976
     18 N          -2.5917   -1.3676   -0.2588 N.ar    1  UNL1       -0.2430
     19 C          -4.9647   -1.4979   -0.3959 C.ar    1  UNL1        0.0025
     20 C          -6.0645   -1.0077   -1.1249 C.ar    1  UNL1       -0.0525
     21 C          -7.2030   -1.7911   -1.3417 C.ar    1  UNL1       -0.0611
     22 C          -7.2511   -3.0985   -0.8694 C.ar    1  UNL1       -0.0617
     23 C          -6.1596   -3.6262   -0.1871 C.ar    1  UNL1       -0.0611
     24 C          -5.0313   -2.8338    0.0458 C.ar    1  UNL1       -0.0525
     25 H          -0.2550   -2.4512   -0.4068 H       1  UNL1        0.0654
     26 H          -0.2169    2.4306    0.3838 H       1  UNL1        0.0654
     27 H          -4.1990    3.2806   -0.4662 H       1  UNL1        0.0624
     28 H          -6.1588    4.6778    0.0547 H       1  UNL1        0.0618
     29 H          -8.0454    3.7483    1.3727 H       1  UNL1        0.0618
     30 H          -7.9277    1.4181    2.2169 H       1  UNL1        0.0618
     31 H          -5.9644    0.0272    1.7586 H       1  UNL1        0.0624
     32 H          -6.0560    0.0019   -1.5307 H       1  UNL1        0.0624
     33 H          -8.0497   -1.3762   -1.8828 H       1  UNL1        0.0618
     34 H          -8.1335   -3.7090   -1.0424 H       1  UNL1        0.0618
     35 H          -6.1813   -4.6544    0.1641 H       1  UNL1        0.0618
     36 H          -4.1881   -3.2703    0.5805 H       1  UNL1        0.0624
@<TRIPOS>BOND
     1     2     1    1
     2     3     2   ar
     3     3    25    1
     4     4     3   ar
     5     5     4   ar
     6     6     5   ar
     7     6    26    1
     8     7     6   ar
     9     7     2   ar
    10     8     7    1
    11     9     5   ar
    12    10     9   ar
    13    11    10    1
    14    12    11   ar
    15    12    27    1
    16    13    12   ar
    17    13    28    1
    18    14    13   ar
    19    14    29    1
    20    15    14   ar
    21    15    30    1
    22    16    15   ar
    23    16    11   ar
    24    16    31    1
    25    17    10   ar
    26    18    17   ar
    27    18     4   ar
    28    19    17    1
    29    20    19   ar
    30    20    32    1
    31    21    20   ar
    32    21    33    1
    33    22    21   ar
    34    22    34    1
    35    23    22   ar
    36    23    35    1
    37    24    23   ar
    38    24    19   ar
    39    24    36    1
