@<TRIPOS>MOLECULE
mol_560_akc_aac00985_10
>543.sdf
 62 64 0 0 0
SMALL
GASTEIGER

@<TRIPOS>ATOM
      1 C           3.5353    1.0634    0.8037 C.3     1  UNL1        0.0804
      2 O           2.5467    0.2410    0.1890 O.3     1  UNL1       -0.4796
      3 C           3.0874   -0.8989   -0.3621 C.ar    1  UNL1        0.2153
      4 C           2.4519   -1.4170   -1.4605 C.ar    1  UNL1        0.0036
      5 C           2.9140   -2.6227   -2.0052 C.ar    1  UNL1       -0.0326
      6 C           2.0282   -3.2076   -3.0744 C.3     1  UNL1       -0.0388
      7 C           4.1346   -3.2164   -1.5163 C.ar    1  UNL1        0.0512
      8 C           4.8814   -4.3355   -2.0667 C.ar    1  UNL1        0.1793
      9 O           4.4437   -5.0433   -3.1650 O.3     1  UNL1       -0.4517
     10 C           4.4227   -4.4930   -4.4285 C.ar    1  UNL1        0.1292
     11 C           3.7795   -5.2989   -5.3776 C.ar    1  UNL1       -0.0193
     12 C           3.5265   -4.8239   -6.6629 C.ar    1  UNL1       -0.0578
     13 C           3.9122   -3.5317   -7.0061 C.ar    1  UNL1       -0.0499
     14 C           4.5876   -2.7199   -6.0794 C.ar    1  UNL1        0.0583
     15 C           4.8761   -3.2259   -4.7944 C.ar    1  UNL1       -0.0077
     16 C           4.9185   -1.2842   -6.4127 C.3     1  UNL1        0.4175
     17 F           4.6853   -0.9578   -7.7135 F       1  UNL1       -0.1659
     18 F           4.1772   -0.4118   -5.6725 F       1  UNL1       -0.1659
     19 F           6.2189   -0.9726   -6.1695 F       1  UNL1       -0.1659
     20 C           6.0013   -4.8610   -1.3938 C.ar    1  UNL1        0.1646
     21 O           6.8000   -5.9282   -1.6890 O.3     1  UNL1       -0.4913
     22 C           6.6746   -6.6215   -2.9156 C.3     1  UNL1        0.0790
     23 C           6.3748   -4.3011   -0.1804 C.ar    1  UNL1        0.0067
     24 C           5.6644   -3.2513    0.3981 C.ar    1  UNL1        0.0575
     25 N           5.9855   -2.8305    1.7174 N.pl3   1  UNL1       -0.3395
     26 C           6.1816   -3.8752    2.7318 C.3     1  UNL1        0.0181
     27 C           7.5117   -3.6221    3.4377 C.3     1  UNL1       -0.0467
     28 C           5.0220   -3.9048    3.7452 C.3     1  UNL1       -0.0300
     29 C           3.6794   -4.2579    3.0974 C.3     1  UNL1       -0.0110
     30 C           2.5734   -4.3876    4.1318 C.3     1  UNL1       -0.0353
     31 N           1.2903   -4.6583    3.4282 N.4     1  UNL1        0.2185
     32 C           4.6183   -2.6350   -0.3083 C.ar    1  UNL1        0.0996
     33 N           4.0842   -1.5339    0.2716 N.ar    1  UNL1       -0.2109
     34 H           3.9937    0.5683    1.6654 H       1  UNL1        0.0660
     35 H           4.2964    1.3748    0.0794 H       1  UNL1        0.0660
     36 H           3.0329    1.9650    1.1694 H       1  UNL1        0.0660
     37 H           1.5931   -0.8987   -1.8773 H       1  UNL1        0.0673
     38 H           2.2899   -2.8237   -4.0615 H       1  UNL1        0.0278
     39 H           2.0364   -4.2995   -3.0510 H       1  UNL1        0.0278
     40 H           0.9827   -2.9267   -2.8959 H       1  UNL1        0.0278
     41 H           3.4340   -6.2927   -5.1004 H       1  UNL1        0.0654
     42 H           2.9994   -5.4470   -7.3816 H       1  UNL1        0.0619
     43 H           3.6686   -3.1508   -7.9986 H       1  UNL1        0.0623
     44 H           5.3855   -2.5834   -4.0795 H       1  UNL1        0.0660
     45 H           5.7197   -7.1511   -2.9718 H       1  UNL1        0.0660
     46 H           6.8362   -5.9570   -3.7680 H       1  UNL1        0.0660
     47 H           7.4649   -7.3802   -2.9392 H       1  UNL1        0.0660
     48 H           7.2422   -4.7110    0.3338 H       1  UNL1        0.0674
     49 H           5.3924   -2.0387    1.9782 H       1  UNL1        0.1464
     50 H           6.2392   -4.8749    2.2858 H       1  UNL1        0.0495
     51 H           7.4562   -2.7548    4.1032 H       1  UNL1        0.0247
     52 H           7.7957   -4.4933    4.0382 H       1  UNL1        0.0247
     53 H           8.3134   -3.4400    2.7133 H       1  UNL1        0.0247
     54 H           5.2487   -4.6539    4.5156 H       1  UNL1        0.0285
     55 H           4.9379   -2.9382    4.2572 H       1  UNL1        0.0285
     56 H           3.4005   -3.4822    2.3769 H       1  UNL1        0.0317
     57 H           3.7734   -5.1989    2.5405 H       1  UNL1        0.0317
     58 H           2.7426   -5.2228    4.8167 H       1  UNL1        0.0813
     59 H           2.4301   -3.4644    4.7024 H       1  UNL1        0.0813
     60 H           1.0626   -3.8981    2.7744 H       1  UNL1        0.1994
     61 H           1.3374   -5.5314    2.8830 H       1  UNL1        0.1994
     62 H           0.5146   -4.7427    4.0909 H       1  UNL1        0.1994
@<TRIPOS>UNITY_ATOM_ATTR
31 1
charge 1
@<TRIPOS>BOND
     1     1    34    1
     2     1    35    1
     3     1    36    1
     4     2     1    1
     5     3     2    1
     6     4     3   ar
     7     4    37    1
     8     5     4   ar
     9     6     5    1
    10     6    38    1
    11     6    39    1
    12     6    40    1
    13     7     5   ar
    14     8     7   ar
    15     9     8    1
    16    10     9    1
    17    11    10   ar
    18    11    41    1
    19    12    11   ar
    20    12    42    1
    21    13    12   ar
    22    13    43    1
    23    14    13   ar
    24    15    14   ar
    25    15    10   ar
    26    15    44    1
    27    16    14    1
    28    17    16    1
    29    18    16    1
    30    19    16    1
    31    20     8   ar
    32    21    20    1
    33    22    21    1
    34    22    45    1
    35    22    46    1
    36    22    47    1
    37    23    20   ar
    38    23    48    1
    39    24    23   ar
    40    25    24    1
    41    25    49    1
    42    26    25    1
    43    26    50    1
    44    27    26    1
    45    27    51    1
    46    27    52    1
    47    27    53    1
    48    28    26    1
    49    28    54    1
    50    28    55    1
    51    29    28    1
    52    29    56    1
    53    29    57    1
    54    30    29    1
    55    30    58    1
    56    30    59    1
    57    31    30    1
    58    31    60    1
    59    31    61    1
    60    31    62    1
    61    32    24   ar
    62    32     7   ar
    63    33    32   ar
    64    33     3   ar
