@<TRIPOS>MOLECULE
mol_564_akc_jbmcl201008119
>547.sdf
 65 70 0 0 0
SMALL
GASTEIGER

@<TRIPOS>ATOM
      1 C           6.2962    1.6679   -8.8089 C.3     1  UNL1       -0.0613
      2 C           4.9750    2.3926   -8.5957 C.3     1  UNL1       -0.0305
      3 C           4.7159    2.9611   -7.2180 C.ar    1  UNL1       -0.0476
      4 C           5.7446    3.4907   -6.4391 C.ar    1  UNL1       -0.0583
      5 C           5.4475    4.3111   -5.3528 C.ar    1  UNL1       -0.0562
      6 C           4.1152    4.6460   -5.0342 C.ar    1  UNL1       -0.0212
      7 C           3.0877    3.9756   -5.6983 C.ar    1  UNL1       -0.0562
      8 C           3.3889    3.1507   -6.7908 C.ar    1  UNL1       -0.0583
      9 C           3.9289    5.8845   -4.1805 C.3     1  UNL1        0.0928
     10 N           4.3386    7.0840   -4.9664 N.am    1  UNL1       -0.2686
     11 C           3.5176    7.3971   -6.2048 C.3     1  UNL1        0.1283
     12 C           1.9824    7.2982   -5.9367 C.3     1  UNL1        0.0038
     13 C           1.7330    7.1386   -4.4737 C.ar    1  UNL1       -0.0147
     14 C           2.5537    6.3130   -3.7192 C.ar    1  UNL1        0.0456
     15 N           2.2033    6.4693   -2.4010 N.ar    1  UNL1       -0.3560
     16 C           1.4406    7.6194   -2.2797 C.ar    1  UNL1        0.0470
     17 C           1.1105    8.3631   -1.1398 C.ar    1  UNL1       -0.0378
     18 C           0.4795    9.5974   -1.3310 C.ar    1  UNL1       -0.0598
     19 C           0.1572   10.0516   -2.6074 C.ar    1  UNL1       -0.0611
     20 C           0.4497    9.2752   -3.7328 C.ar    1  UNL1       -0.0523
     21 C           1.1115    8.0420   -3.5694 C.ar    1  UNL1        0.0032
     22 C           3.9798    6.6697   -7.4821 C.2     1  UNL1        0.3279
     23 O           5.1562    6.4994   -7.7818 O.2     1  UNL1       -0.2487
     24 O           2.9245    6.3777   -8.2945 O.3     1  UNL1       -0.4666
     25 C           3.2129    5.7401   -9.5413 C.3     1  UNL1        0.0817
     26 C           4.9158    8.0989   -4.1886 C.2     1  UNL1        0.2897
     27 O           5.2925    7.9481   -3.0246 O.2     1  UNL1       -0.2663
     28 C           5.0803    9.4793   -4.7842 C.2     1  UNL1        0.2617
     29 O           4.1102   10.1502   -5.1152 O.2     1  UNL1       -0.2804
     30 C           6.4347   10.0743   -4.9412 C.2     1  UNL1        0.0980
     31 N           7.5262    9.4707   -4.5747 N.2     1  UNL1       -0.2476
     32 C           8.5466   10.3960   -4.8163 C.ar    1  UNL1        0.0678
     33 C           9.8792   10.2309   -4.5038 C.ar    1  UNL1       -0.0360
     34 C          10.7484   11.2882   -4.7746 C.ar    1  UNL1       -0.0597
     35 C          10.2729   12.4792   -5.3549 C.ar    1  UNL1       -0.0614
     36 C           8.9187   12.6368   -5.6652 C.ar    1  UNL1       -0.0562
     37 C           8.0707   11.5856   -5.3819 C.ar    1  UNL1       -0.0161
     38 C           6.5937   11.4568   -5.5440 C.3     1  UNL1        0.0207
     39 H           6.3585    1.3134   -9.8436 H       1  UNL1        0.0233
     40 H           7.1564    2.3249   -8.6448 H       1  UNL1        0.0233
     41 H           6.3858    0.8052   -8.1431 H       1  UNL1        0.0233
     42 H           4.9389    3.2342   -9.3001 H       1  UNL1        0.0311
     43 H           4.1598    1.7140   -8.8707 H       1  UNL1        0.0311
     44 H           6.7880    3.3786   -6.7217 H       1  UNL1        0.0620
     45 H           6.2719    4.8079   -4.8398 H       1  UNL1        0.0621
     46 H           2.0458    4.1717   -5.4584 H       1  UNL1        0.0621
     47 H           2.5678    2.7330   -7.3689 H       1  UNL1        0.0620
     48 H           4.5695    5.7659   -3.2978 H       1  UNL1        0.0616
     49 H           3.7014    8.4355   -6.4879 H       1  UNL1        0.0620
     50 H           1.5257    6.4385   -6.4385 H       1  UNL1        0.0337
     51 H           1.4824    8.1885   -6.3343 H       1  UNL1        0.0337
     52 H           2.6915    6.0524   -1.6194 H       1  UNL1        0.1657
     53 H           1.3978    8.0371   -0.1457 H       1  UNL1        0.0638
     54 H           0.2669   10.2281   -0.4706 H       1  UNL1        0.0618
     55 H          -0.2918   11.0331   -2.7369 H       1  UNL1        0.0618
     56 H           0.2476    9.6657   -4.7259 H       1  UNL1        0.0624
     57 H           4.2371    5.9034   -9.8864 H       1  UNL1        0.0661
     58 H           3.0109    4.6704   -9.4465 H       1  UNL1        0.0661
     59 H           2.5269    6.1462  -10.2902 H       1  UNL1        0.0661
     60 H          10.2254    9.3115   -4.0474 H       1  UNL1        0.0639
     61 H          11.8025   11.1895   -4.5273 H       1  UNL1        0.0618
     62 H          10.9674   13.2900   -5.5496 H       1  UNL1        0.0618
     63 H           8.5499   13.5598   -6.1001 H       1  UNL1        0.0621
     64 H           6.2910   11.4481   -6.5945 H       1  UNL1        0.0378
     65 H           6.0428   12.1985   -4.9628 H       1  UNL1        0.0378
@<TRIPOS>BOND
     1     1    39    1
     2     1    40    1
     3     1    41    1
     4     2     1    1
     5     2    42    1
     6     2    43    1
     7     3     2    1
     8     4     3   ar
     9     4    44    1
    10     5     4   ar
    11     5    45    1
    12     6     5   ar
    13     7     6   ar
    14     7    46    1
    15     8     7   ar
    16     8     3   ar
    17     8    47    1
    18    10     9    1
    19    11    10    1
    20    12    11    1
    21    12    50    1
    22    12    51    1
    23    13    12    1
    24    14    13   ar
    25    14     9    1
    26    15    14   ar
    27    15    52    1
    28    16    15   ar
    29    17    16   ar
    30    17    53    1
    31    18    17   ar
    32    18    54    1
    33    19    18   ar
    34    19    55    1
    35    20    19   ar
    36    20    56    1
    37    21    20   ar
    38    21    13   ar
    39    21    16   ar
    40    23    22    2
    41    24    22    1
    42    25    24    1
    43    25    57    1
    44    25    58    1
    45    25    59    1
    46    26    10   am
    47    27    26    2
    48    28    26    1
    49    29    28    2
    50    30    28    1
    51    31    30    2
    52    32    31    1
    53    33    32   ar
    54    33    60    1
    55    34    33   ar
    56    34    61    1
    57    35    34   ar
    58    35    62    1
    59    36    35   ar
    60    36    63    1
    61    37    36   ar
    62    37    32   ar
    63    38    37    1
    64    38    30    1
    65    38    64    1
    66    38    65    1
    67     9    48    1
    68     9     6    1
    69    11    22    1
    70    11    49    1
