@<TRIPOS>MOLECULE
mol_565_akc_jbmcl201007078
>548.sdf
 80 82 0 0 0
SMALL
GASTEIGER

@<TRIPOS>ATOM
      1 C           1.9457   12.7840   -5.5349 C.3     1  UNL1       -0.0653
      2 C           1.8189   11.2830   -5.7060 C.3     1  UNL1       -0.0559
      3 C           3.1718   10.6322   -5.9771 C.3     1  UNL1       -0.0532
      4 C           3.0175    9.1339   -6.1394 C.3     1  UNL1       -0.0510
      5 C           4.3396    8.4388   -6.4154 C.3     1  UNL1       -0.0295
      6 C           4.0837    6.9502   -6.5590 C.3     1  UNL1        0.0477
      7 O           5.3007    6.2665   -6.8288 O.3     1  UNL1       -0.3797
      8 C           5.0318    4.8686   -6.9461 C.3     1  UNL1        0.0482
      9 C           6.3224    4.1370   -7.2341 C.3     1  UNL1       -0.0238
     10 C           6.1465    2.6194   -7.4593 C.3     1  UNL1       -0.0261
     11 C           5.5603    1.9047   -6.2159 C.3     1  UNL1       -0.0444
     12 C           5.4902    0.3848   -6.4513 C.3     1  UNL1       -0.0398
     13 C           4.5937    0.1120   -7.6627 C.3     1  UNL1       -0.0473
     14 C           5.1874    0.7770   -8.9144 C.3     1  UNL1       -0.0398
     15 C           5.2698    2.2975   -8.6901 C.3     1  UNL1       -0.0444
     16 C           6.6006    0.2299   -9.1757 C.3     1  UNL1       -0.0444
     17 C           7.5261    0.5189   -7.9733 C.3     1  UNL1       -0.0261
     18 C           8.9705    0.0317   -8.2877 C.3     1  UNL1       -0.0233
     19 C           9.8900    0.3224   -7.1157 C.3     1  UNL1        0.0554
     20 O          11.2770    0.1027   -7.3219 O.3     1  UNL1       -0.3274
     21 P          12.1743    0.6699   -6.0157 P.3     1  UNL1        0.2127
     22 O          11.0040    0.1789   -4.8401 O.co2   1  UNL1       -0.4373
     23 O          11.8899    2.1849   -5.8840 O.2     1  UNL1       -0.5172
     24 O          13.3447    1.1609   -7.1913 O.3     1  UNL1       -0.3221
     25 C          14.4616    1.8461   -6.6585 C.3     1  UNL1        0.0947
     26 C          15.3911    2.2369   -7.8050 C.3     1  UNL1       -0.0064
     27 N          14.7786    3.1839   -8.8735 N.4     1  UNL1        0.2385
     28 C          13.5765    2.5284   -9.5667 C.3     1  UNL1       -0.0417
     29 C          14.3047    4.4814   -8.2359 C.3     1  UNL1       -0.0417
     30 C          15.8454    3.4740   -9.9098 C.3     1  UNL1       -0.0417
     31 C           6.9023   -0.1654   -6.7237 C.3     1  UNL1       -0.0444
     32 C           7.5469    2.0444   -7.7093 C.3     1  UNL1       -0.0415
     33 H           0.9658   13.2274   -5.3439 H       1  UNL1        0.0230
     34 H           2.6023   13.0234   -4.6921 H       1  UNL1        0.0230
     35 H           2.3617   13.2433   -6.4377 H       1  UNL1        0.0230
     36 H           1.3730   10.8494   -4.8005 H       1  UNL1        0.0263
     37 H           1.1316   11.0676   -6.5360 H       1  UNL1        0.0263
     38 H           3.6150   11.0640   -6.8846 H       1  UNL1        0.0265
     39 H           3.8599   10.8511   -5.1478 H       1  UNL1        0.0265
     40 H           2.5673    8.7130   -5.2284 H       1  UNL1        0.0266
     41 H           2.3186    8.9272   -6.9610 H       1  UNL1        0.0266
     42 H           4.8065    8.8271   -7.3313 H       1  UNL1        0.0287
     43 H           5.0562    8.6165   -5.6052 H       1  UNL1        0.0287
     44 H           3.6459    6.5570   -5.6324 H       1  UNL1        0.0560
     45 H           3.3816    6.7715   -7.3844 H       1  UNL1        0.0560
     46 H           4.5940    4.5157   -6.0074 H       1  UNL1        0.0560
     47 H           4.3140    4.7222   -7.7589 H       1  UNL1        0.0560
     48 H           6.8015    4.5904   -8.1132 H       1  UNL1        0.0293
     49 H           7.0209    4.3175   -6.4073 H       1  UNL1        0.0293
     50 H           6.1751    2.1141   -5.3303 H       1  UNL1        0.0273
     51 H           4.5532    2.2757   -5.9940 H       1  UNL1        0.0273
     52 H           5.0710   -0.1020   -5.5622 H       1  UNL1        0.0301
     53 H           3.5850    0.4980   -7.4761 H       1  UNL1        0.0271
     54 H           4.4967   -0.9693   -7.8217 H       1  UNL1        0.0271
     55 H           4.5479    0.5700   -9.7786 H       1  UNL1        0.0301
     56 H           4.2553    2.6885   -8.5573 H       1  UNL1        0.0273
     57 H           5.6847    2.7815   -9.5839 H       1  UNL1        0.0273
     58 H           6.5477   -0.8511   -9.3583 H       1  UNL1        0.0273
     59 H           7.0091    0.6853  -10.0866 H       1  UNL1        0.0273
     60 H           8.9786   -1.0461   -8.4963 H       1  UNL1        0.0293
     61 H           9.3563    0.5185   -9.1917 H       1  UNL1        0.0293
     62 H           9.8006    1.3664   -6.8252 H       1  UNL1        0.0564
     63 H           9.5477   -0.3250   -6.3084 H       1  UNL1        0.0564
     64 H          14.1639    2.7309   -6.0898 H       1  UNL1        0.0618
     65 H          14.9890    1.1730   -5.9745 H       1  UNL1        0.0618
     66 H          16.2777    2.7455   -7.4082 H       1  UNL1        0.0838
     67 H          15.7132    1.3406   -8.3483 H       1  UNL1        0.0838
     68 H          12.7085    2.5527   -8.9085 H       1  UNL1        0.0778
     69 H          13.3475    3.1153  -10.4630 H       1  UNL1        0.0778
     70 H          13.8550    1.5098   -9.8530 H       1  UNL1        0.0778
     71 H          15.1442    4.9216   -7.6901 H       1  UNL1        0.0778
     72 H          13.9809    5.1551   -9.0351 H       1  UNL1        0.0778
     73 H          13.4682    4.2743   -7.5638 H       1  UNL1        0.0778
     74 H          16.6951    3.9521   -9.4135 H       1  UNL1        0.0778
     75 H          16.1552    2.5269  -10.3649 H       1  UNL1        0.0778
     76 H          15.4302    4.1402  -10.6720 H       1  UNL1        0.0778
     77 H           6.8566   -1.2522   -6.8705 H       1  UNL1        0.0273
     78 H           7.5093    0.0066   -5.8275 H       1  UNL1        0.0273
     79 H           8.0344    2.5591   -8.5502 H       1  UNL1        0.0276
     80 H           8.1333    2.2785   -6.8161 H       1  UNL1        0.0276
@<TRIPOS>UNITY_ATOM_ATTR
22 1
charge -1
27 1
charge 1
@<TRIPOS>BOND
     1     1    33    1
     2     1    34    1
     3     1    35    1
     4     2     1    1
     5     2    36    1
     6     2    37    1
     7     3     2    1
     8     3    38    1
     9     3    39    1
    10     4     3    1
    11     4    40    1
    12     4    41    1
    13     5     4    1
    14     5    42    1
    15     5    43    1
    16     6     5    1
    17     6    44    1
    18     6    45    1
    19     7     6    1
    20     8     7    1
    21     8    46    1
    22     8    47    1
    23     9     8    1
    24     9    48    1
    25     9    49    1
    26    10     9    1
    27    11    10    1
    28    11    50    1
    29    11    51    1
    30    12    11    1
    31    12    52    1
    32    13    12    1
    33    13    53    1
    34    13    54    1
    35    14    13    1
    36    14    55    1
    37    15    14    1
    38    15    10    1
    39    15    56    1
    40    15    57    1
    41    16    14    1
    42    16    58    1
    43    16    59    1
    44    17    16    1
    45    17    18    1
    46    18    60    1
    47    18    61    1
    48    19    18    1
    49    19    62    1
    50    19    63    1
    51    20    19    1
    52    23    21    2
    53    24    21    1
    54    25    24    1
    55    25    64    1
    56    25    65    1
    57    26    25    1
    58    26    66    1
    59    26    67    1
    60    27    26    1
    61    28    27    1
    62    28    68    1
    63    28    69    1
    64    28    70    1
    65    29    27    1
    66    29    71    1
    67    29    72    1
    68    29    73    1
    69    30    27    1
    70    30    74    1
    71    30    75    1
    72    30    76    1
    73    31    17    1
    74    31    12    1
    75    31    77    1
    76    31    78    1
    77    32    17    1
    78    32    10    1
    79    32    79    1
    80    32    80    1
    81    21    22    1
    82    21    20    1
