@<TRIPOS>MOLECULE
mol_566_akc_tsw2010176
>549.sdf
 48 49 0 0 0
SMALL
GASTEIGER

@<TRIPOS>ATOM
      1 C           1.4637    0.4437   -0.0447 C.3     1  UNL1        0.0788
      2 O           2.5311   -0.3794   -0.5020 O.3     1  UNL1       -0.4951
      3 C           3.2458   -1.0641    0.4368 C.ar    1  UNL1        0.1201
      4 C           3.0234   -1.0545    1.8127 C.ar    1  UNL1       -0.0195
      5 C           3.8347   -1.8113    2.6630 C.ar    1  UNL1       -0.0501
      6 C           4.8881   -2.5829    2.1480 C.ar    1  UNL1       -0.0027
      7 C           5.7366   -3.4247    3.0523 C.3     1  UNL1       -0.0075
      8 N           5.1465   -4.8054    3.1848 N.4     1  UNL1        0.2340
      9 C           5.9506   -5.7362    4.0442 C.3     1  UNL1        0.0077
     10 C           5.2928   -7.1362    4.1595 C.3     1  UNL1        0.0077
     11 N           6.0793   -8.0812    5.0192 N.4     1  UNL1        0.2340
     12 C           5.4456   -9.4433    5.1394 C.3     1  UNL1       -0.0075
     13 C           6.2842  -10.3577    5.9781 C.ar    1  UNL1       -0.0027
     14 C           6.1151  -10.4098    7.3696 C.ar    1  UNL1       -0.0501
     15 C           6.8861  -11.2799    8.1496 C.ar    1  UNL1       -0.0195
     16 C           7.8405  -12.0997    7.5517 C.ar    1  UNL1        0.1201
     17 O           8.6431  -12.9999    8.1901 O.3     1  UNL1       -0.4951
     18 C           8.4405  -13.1822    9.5876 C.3     1  UNL1        0.0788
     19 C           8.0282  -12.0307    6.1705 C.ar    1  UNL1       -0.0195
     20 C           7.2619  -11.1670    5.3851 C.ar    1  UNL1       -0.0501
     21 C           5.1057   -2.5912    0.7641 C.ar    1  UNL1       -0.0501
     22 C           4.2892   -1.8349   -0.0786 C.ar    1  UNL1       -0.0195
     23 H           0.7085   -0.1484    0.4825 H       1  UNL1        0.0660
     24 H           1.8378    1.2576    0.5852 H       1  UNL1        0.0660
     25 H           0.9846    0.8891   -0.9217 H       1  UNL1        0.0660
     26 H           2.2277   -0.4566    2.2498 H       1  UNL1        0.0654
     27 H           3.6337   -1.7672    3.7330 H       1  UNL1        0.0623
     28 H           6.7508   -3.5393    2.6546 H       1  UNL1        0.0866
     29 H           5.7973   -2.9973    4.0591 H       1  UNL1        0.0866
     30 H           4.1854   -4.6658    3.5350 H       1  UNL1        0.2019
     31 H           5.0337   -5.1541    2.2193 H       1  UNL1        0.2019
     32 H           6.9436   -5.8159    3.5896 H       1  UNL1        0.0867
     33 H           6.0355   -5.2705    5.0315 H       1  UNL1        0.0867
     34 H           4.2963   -7.0509    4.6059 H       1  UNL1        0.0867
     35 H           5.2089   -7.5977    3.1700 H       1  UNL1        0.0867
     36 H           7.0348   -8.2455    4.6642 H       1  UNL1        0.2019
     37 H           6.2037   -7.7400    5.9859 H       1  UNL1        0.2019
     38 H           4.4519   -9.3027    5.5788 H       1  UNL1        0.0866
     39 H           5.3266   -9.8367    4.1238 H       1  UNL1        0.0866
     40 H           5.3635   -9.8054    7.8751 H       1  UNL1        0.0623
     41 H           6.7098  -11.3091    9.2216 H       1  UNL1        0.0654
     42 H           8.6556  -12.2596   10.1364 H       1  UNL1        0.0660
     43 H           7.4264  -13.5388    9.7969 H       1  UNL1        0.0660
     44 H           9.1429  -13.9472    9.9317 H       1  UNL1        0.0660
     45 H           8.7698  -12.6787    5.7036 H       1  UNL1        0.0654
     46 H           7.4290  -11.1730    4.3096 H       1  UNL1        0.0623
     47 H           5.9171   -3.1595    0.3127 H       1  UNL1        0.0623
     48 H           4.4704   -1.8296   -1.1531 H       1  UNL1        0.0654
@<TRIPOS>UNITY_ATOM_ATTR
8 1
charge 1
11 1
charge 1
@<TRIPOS>BOND
     1     1    23    1
     2     1    24    1
     3     1    25    1
     4     2     1    1
     5     3     2    1
     6     4     3   ar
     7     4    26    1
     8     5     4   ar
     9     5    27    1
    10     6     5   ar
    11     7     6    1
    12     7    28    1
    13     7    29    1
    14     8     7    1
    15     8    30    1
    16     8    31    1
    17     9     8    1
    18     9    32    1
    19     9    33    1
    20    10     9    1
    21    10    34    1
    22    10    35    1
    23    11    10    1
    24    11    36    1
    25    11    37    1
    26    12    11    1
    27    12    38    1
    28    12    39    1
    29    13    12    1
    30    14    13   ar
    31    14    40    1
    32    15    14   ar
    33    15    41    1
    34    16    15   ar
    35    17    16    1
    36    18    17    1
    37    18    42    1
    38    18    43    1
    39    18    44    1
    40    19    16   ar
    41    19    45    1
    42    20    19   ar
    43    20    13   ar
    44    20    46    1
    45    21     6   ar
    46    21    47    1
    47    22    21   ar
    48    22     3   ar
    49    22    48    1
