@<TRIPOS>MOLECULE
mol_568_akc_jbmc201005018
>551.sdf
 35 37 0 0 0
SMALL
GASTEIGER

@<TRIPOS>ATOM
      1 O           1.0375    0.3547   -0.1072 O.3     1  UNL1       -0.3914
      2 C           2.4684    0.2188   -0.1437 C.3     1  UNL1        0.0613
      3 C           2.8085   -1.1991    0.2962 C.3     1  UNL1       -0.0040
      4 C           4.2916   -1.5988    0.2871 C.3     1  UNL1        0.0482
      5 N           5.2118   -0.6930    0.9905 N.pl3   1  UNL1       -0.3367
      6 C           5.4900    0.5761    0.4788 C.ar    1  UNL1        0.0310
      7 C           4.5053    1.5697    0.3887 C.ar    1  UNL1       -0.0227
      8 C           3.0802    1.2805    0.7699 C.3     1  UNL1        0.0003
      9 C           4.8580    2.8723   -0.0075 C.ar    1  UNL1       -0.0384
     10 C           6.1763    3.1786   -0.3319 C.ar    1  UNL1        0.0413
     11 CL          6.5977    4.7849   -0.7795 Cl      1  UNL1       -0.0835
     12 C           7.1541    2.1941   -0.2796 C.ar    1  UNL1       -0.0416
     13 C           6.8106    0.9023    0.1271 C.ar    1  UNL1       -0.0392
     14 C           4.4133   -2.9355    1.0312 C.ar    1  UNL1       -0.0272
     15 C           4.8185   -4.1113    0.3898 C.ar    1  UNL1       -0.0558
     16 C           4.9449   -5.3015    1.1158 C.ar    1  UNL1       -0.0474
     17 C           4.6687   -5.3221    2.4872 C.ar    1  UNL1        0.0179
     18 BR          4.8505   -6.9255    3.4641 Br      1  UNL1       -0.0503
     19 C           4.2659   -4.1650    3.1397 C.ar    1  UNL1       -0.0474
     20 C           4.1459   -2.9786    2.4186 C.ar    1  UNL1       -0.0558
     21 H           0.7466    0.2222    0.8096 H       1  UNL1        0.2098
     22 H           2.7668    0.3760   -1.1855 H       1  UNL1        0.0597
     23 H           2.3580   -1.3556    1.2847 H       1  UNL1        0.0311
     24 H           2.2604   -1.8973   -0.3549 H       1  UNL1        0.0311
     25 H           4.6335   -1.7249   -0.7499 H       1  UNL1        0.0548
     26 H           6.0856   -1.1920    1.1603 H       1  UNL1        0.1467
     27 H           2.4805    2.1977    0.7163 H       1  UNL1        0.0339
     28 H           3.0332    0.9731    1.8232 H       1  UNL1        0.0339
     29 H           4.1025    3.6539   -0.0436 H       1  UNL1        0.0635
     30 H           8.1850    2.4257   -0.5320 H       1  UNL1        0.0633
     31 H           7.5962    0.1524    0.1832 H       1  UNL1        0.0636
     32 H           5.0447   -4.1144   -0.6748 H       1  UNL1        0.0621
     33 H           5.2685   -6.2065    0.6122 H       1  UNL1        0.0629
     34 H           4.0511   -4.1647    4.2073 H       1  UNL1        0.0629
     35 H           3.8544   -2.0702    2.9434 H       1  UNL1        0.0621
@<TRIPOS>BOND
     1     1    21    1
     2     2     1    1
     3     2    22    1
     4     3     2    1
     5     3    23    1
     6     3    24    1
     7     4     3    1
     8     5     4    1
     9     5    26    1
    10     6     5    1
    11     7     6   ar
    12     8     7    1
    13     8     2    1
    14     8    27    1
    15     8    28    1
    16     9     7   ar
    17     9    29    1
    18    10     9   ar
    19    11    10    1
    20    12    10   ar
    21    12    30    1
    22    13    12   ar
    23    13     6   ar
    24    13    31    1
    25    15    14   ar
    26    15    32    1
    27    16    15   ar
    28    16    33    1
    29    17    16   ar
    30    18    17    1
    31    19    17   ar
    32    19    34    1
    33    20    19   ar
    34    20    14   ar
    35    20    35    1
    36     4    14    1
    37     4    25    1
