@<TRIPOS>MOLECULE
mol_569_akc_jacdkq189
>552.sdf
 36 37 0 0 0
SMALL
GASTEIGER

@<TRIPOS>ATOM
      1 C           1.8415   -1.3828   -0.5876 C.3     1  UNL1       -0.0306
      2 C           2.4656   -0.0079   -0.4349 C.3     1  UNL1        0.0900
      3 O           3.1671    0.2869   -1.6512 O.3     1  UNL1       -0.4616
      4 C           4.5105    0.0916   -1.6389 C.2     1  UNL1        0.3387
      5 O           5.1976   -0.1082   -0.6522 O.2     1  UNL1       -0.2452
      6 C           4.9903    0.0374   -3.0388 C.2     1  UNL1        0.0777
      7 C           5.9118   -0.8608   -3.4415 C.2     1  UNL1        0.0185
      8 C           6.6366   -1.8695   -2.5950 C.3     1  UNL1       -0.0259
      9 N           6.2387   -0.9046   -4.7855 N.am    1  UNL1       -0.3001
     10 C           5.5863   -0.2176   -5.7649 C.2     1  UNL1        0.1350
     11 S           5.9722   -0.4113   -7.3680 S.2     1  UNL1       -0.0185
     12 N           4.5834    0.6078   -5.3723 N.am    1  UNL1       -0.3152
     13 C           4.4036    1.0424   -3.9958 C.3     1  UNL1        0.0810
     14 C           4.9930    2.4350   -3.8166 C.ar    1  UNL1       -0.0191
     15 C           6.3583    2.6856   -4.0515 C.ar    1  UNL1       -0.0563
     16 C           6.8896    3.9678   -3.9027 C.ar    1  UNL1       -0.0580
     17 C           6.0661    5.0216   -3.5174 C.ar    1  UNL1       -0.0202
     18 C           4.7169    4.7804   -3.2792 C.ar    1  UNL1        0.1172
     19 O           3.8762    5.7857   -2.9016 O.3     1  UNL1       -0.5068
     20 C           4.1765    3.5049   -3.4235 C.ar    1  UNL1       -0.0149
     21 H           1.2851   -1.6686    0.3085 H       1  UNL1        0.0262
     22 H           1.1606   -1.3977   -1.4459 H       1  UNL1        0.0262
     23 H           2.6109   -2.1370   -0.7850 H       1  UNL1        0.0262
     24 H           1.6840    0.7485   -0.3101 H       1  UNL1        0.0695
     25 H           3.1126    0.0349    0.4477 H       1  UNL1        0.0695
     26 H           6.6181   -2.8533   -3.0779 H       1  UNL1        0.0290
     27 H           7.6832   -1.5702   -2.4759 H       1  UNL1        0.0290
     28 H           6.2069   -2.0082   -1.6021 H       1  UNL1        0.0290
     29 H           6.9482   -1.5561   -5.1004 H       1  UNL1        0.1535
     30 H           4.1433    1.1545   -6.1001 H       1  UNL1        0.1486
     31 H           3.3137    1.0933   -3.8834 H       1  UNL1        0.0601
     32 H           7.0227    1.8805   -4.3584 H       1  UNL1        0.0621
     33 H           7.9460    4.1387   -4.0938 H       1  UNL1        0.0619
     34 H           6.4916    6.0140   -3.4090 H       1  UNL1        0.0654
     35 H           4.3864    6.6091   -2.8439 H       1  UNL1        0.2921
     36 H           3.1169    3.3568   -3.2290 H       1  UNL1        0.0657
@<TRIPOS>BOND
     1     1    21    1
     2     1    22    1
     3     1    23    1
     4     2     1    1
     5     2    24    1
     6     2    25    1
     7     3     2    1
     8     4     3    1
     9     5     4    2
    10     6     4    1
    11     7     6    2
    12     8     7    1
    13     8    26    1
    14     8    27    1
    15     8    28    1
    16     9     7    1
    17     9    29    1
    18    10     9    1
    19    11    10    2
    20    12    10    1
    21    12    30    1
    22    13    12    1
    23    13     6    1
    24    15    14   ar
    25    15    32    1
    26    16    15   ar
    27    16    33    1
    28    17    16   ar
    29    17    34    1
    30    18    17   ar
    31    19    18    1
    32    19    35    1
    33    20    18   ar
    34    20    14   ar
    35    20    36    1
    36    13    14    1
    37    13    31    1
