@<TRIPOS>MOLECULE
mol_56_akc_jejmech201412051
>56.sdf
 36 38 0 0 0
SMALL
GASTEIGER

@<TRIPOS>ATOM
      1 C           3.1309   -5.8672    2.1838 C.3     1  UNL1        0.0788
      2 O           2.4666   -5.4680    0.9900 O.3     1  UNL1       -0.4951
      3 C           3.2679   -5.1312   -0.0677 C.ar    1  UNL1        0.1202
      4 C           4.6488   -4.9650   -0.0150 C.ar    1  UNL1       -0.0182
      5 C           5.3587   -4.6541   -1.1774 C.ar    1  UNL1       -0.0371
      6 C           4.7033   -4.4699   -2.4034 C.ar    1  UNL1        0.0315
      7 N           5.4973   -4.2708   -3.5587 N.pl3   1  UNL1       -0.3145
      8 C           5.0575   -3.7540   -4.7957 C.ar    1  UNL1        0.0321
      9 C           4.9797   -2.3756   -4.9775 C.ar    1  UNL1       -0.0385
     10 C           4.6953   -1.8557   -6.2331 C.ar    1  UNL1       -0.0338
     11 C           4.5155   -2.6741   -7.3272 C.ar    1  UNL1        0.0780
     12 N           4.3990   -2.0813   -8.5010 N.ar    1  UNL1       -0.2146
     13 C           4.3088   -2.8565   -9.5795 C.ar    1  UNL1        0.2148
     14 N           4.3198   -2.1858  -10.7798 N.pl3   1  UNL1       -0.3274
     15 N           4.2239   -4.1910   -9.5552 N.ar    1  UNL1       -0.1995
     16 C           4.3475   -4.7830   -8.3593 C.ar    1  UNL1        0.1291
     17 N           4.3711   -6.1809   -8.3966 N.pl3   1  UNL1       -0.3425
     18 C           4.5261   -4.0683   -7.1614 C.ar    1  UNL1        0.0418
     19 C           4.7767   -4.6026   -5.8701 C.ar    1  UNL1       -0.0281
     20 C           3.3184   -4.6357   -2.4473 C.ar    1  UNL1       -0.0371
     21 C           2.6058   -4.9482   -1.2831 C.ar    1  UNL1       -0.0182
     22 H           3.8231   -6.6969    1.9996 H       1  UNL1        0.0660
     23 H           3.6477   -5.0183    2.6443 H       1  UNL1        0.0660
     24 H           2.3732   -6.2203    2.8900 H       1  UNL1        0.0660
     25 H           5.2096   -5.0866    0.9055 H       1  UNL1        0.0655
     26 H           6.4400   -4.5642   -1.1175 H       1  UNL1        0.0637
     27 H           6.3436   -3.7730   -3.2838 H       1  UNL1        0.1522
     28 H           5.1849   -1.6939   -4.1515 H       1  UNL1        0.0637
     29 H           4.6724   -0.7756   -6.3744 H       1  UNL1        0.0639
     30 H           3.6015   -2.5561  -11.3911 H       1  UNL1        0.1452
     31 H           4.2572   -1.1971  -10.5737 H       1  UNL1        0.1452
     32 H           4.2308   -6.4547   -9.3650 H       1  UNL1        0.1437
     33 H           3.6698   -6.5926   -7.7870 H       1  UNL1        0.1437
     34 H           4.8282   -5.6795   -5.7283 H       1  UNL1        0.0644
     35 H           2.7765   -4.5304   -3.3826 H       1  UNL1        0.0637
     36 H           1.5273   -5.0762   -1.3327 H       1  UNL1        0.0655
@<TRIPOS>BOND
     1     1    22    1
     2     1    23    1
     3     1    24    1
     4     2     1    1
     5     3     2    1
     6     4     3   ar
     7     4    25    1
     8     5     4   ar
     9     5    26    1
    10     6     5   ar
    11     7     6    1
    12     7    27    1
    13     8     7    1
    14     9     8   ar
    15     9    28    1
    16    10     9   ar
    17    10    29    1
    18    11    10   ar
    19    12    11   ar
    20    13    12   ar
    21    14    13    1
    22    14    30    1
    23    14    31    1
    24    15    13   ar
    25    16    15   ar
    26    17    16    1
    27    17    32    1
    28    17    33    1
    29    18    16   ar
    30    18    11   ar
    31    19    18   ar
    32    19     8   ar
    33    19    34    1
    34    20     6   ar
    35    20    35    1
    36    21    20   ar
    37    21     3   ar
    38    21    36    1
