@<TRIPOS>MOLECULE
mol_570_akc_jacdkq189
>552_2.sdf
 36 37 0 0 0
SMALL
GASTEIGER

@<TRIPOS>ATOM
      1 C           2.9354   -1.5462   -0.1333 C.3     1  UNL1       -0.0306
      2 C           4.3007   -0.9096    0.0039 C.3     1  UNL1        0.0900
      3 O           4.5981   -0.1847   -1.1993 O.3     1  UNL1       -0.4616
      4 C           4.4419    1.1557   -1.1632 C.2     1  UNL1        0.3387
      5 O           3.9754    1.7866   -0.2253 O.2     1  UNL1       -0.2452
      6 C           4.9121    1.8041   -2.4179 C.2     1  UNL1        0.0777
      7 C           5.9491    1.3695   -3.1736 C.2     1  UNL1        0.0185
      8 C           6.7921    0.1303   -3.0171 C.3     1  UNL1       -0.0259
      9 N           6.3786    2.1685   -4.2183 N.am    1  UNL1       -0.3001
     10 C           5.8242    3.3454   -4.5916 C.2     1  UNL1        0.1350
     11 S           6.4307    4.2217   -5.8659 S.2     1  UNL1       -0.0185
     12 N           4.7476    3.7672   -3.8957 N.am    1  UNL1       -0.3152
     13 C           4.2558    3.1445   -2.6757 C.3     1  UNL1        0.0810
     14 C           2.7327    3.1544   -2.7287 C.ar    1  UNL1       -0.0191
     15 C           2.0060    3.9188   -1.7989 C.ar    1  UNL1       -0.0563
     16 C           0.6137    4.0014   -1.8692 C.ar    1  UNL1       -0.0580
     17 C          -0.0769    3.3212   -2.8695 C.ar    1  UNL1       -0.0202
     18 C           0.6337    2.5573   -3.7890 C.ar    1  UNL1        0.1172
     19 O          -0.0061    1.8823   -4.7854 O.3     1  UNL1       -0.5068
     20 C           2.0239    2.4664   -3.7285 C.ar    1  UNL1       -0.0149
     21 H           2.7057   -2.1688    0.7358 H       1  UNL1        0.0262
     22 H           2.1609   -0.7790   -0.2357 H       1  UNL1        0.0262
     23 H           2.8919   -2.1665   -1.0349 H       1  UNL1        0.0262
     24 H           4.3615   -0.2784    0.8977 H       1  UNL1        0.0695
     25 H           5.0653   -1.6872    0.1074 H       1  UNL1        0.0695
     26 H           6.8964   -0.3731   -3.9862 H       1  UNL1        0.0290
     27 H           7.7954    0.4065   -2.6732 H       1  UNL1        0.0290
     28 H           6.4129   -0.6213   -2.3299 H       1  UNL1        0.0290
     29 H           7.1810    1.8706   -4.7671 H       1  UNL1        0.1535
     30 H           4.3351    4.6453   -4.1819 H       1  UNL1        0.1486
     31 H           4.5815    3.8254   -1.8770 H       1  UNL1        0.0601
     32 H           2.5247    4.4604   -1.0088 H       1  UNL1        0.0621
     33 H           0.0699    4.6033   -1.1426 H       1  UNL1        0.0619
     34 H          -1.1583    3.4011   -2.9159 H       1  UNL1        0.0654
     35 H          -0.9586    2.0541   -4.7145 H       1  UNL1        0.2921
     36 H           2.5525    1.8793   -4.4750 H       1  UNL1        0.0657
@<TRIPOS>BOND
     1     1    21    1
     2     1    22    1
     3     1    23    1
     4     2     1    1
     5     2    24    1
     6     2    25    1
     7     3     2    1
     8     4     3    1
     9     5     4    2
    10     6     4    1
    11     7     6    2
    12     8     7    1
    13     8    26    1
    14     8    27    1
    15     8    28    1
    16     9     7    1
    17     9    29    1
    18    10     9    1
    19    11    10    2
    20    12    10    1
    21    12    30    1
    22    13    12    1
    23    13     6    1
    24    13    31    1
    25    14    13    1
    26    15    14   ar
    27    15    32    1
    28    16    15   ar
    29    16    33    1
    30    17    16   ar
    31    17    34    1
    32    18    17   ar
    33    19    18    1
    34    19    35    1
    35    20    18   ar
    36    20    14   ar
    37    20    36    1
