@<TRIPOS>MOLECULE
mol_571_akc_aac00250_10
>553.sdf
 81 85 0 0 0
SMALL
GASTEIGER

@<TRIPOS>ATOM
      1 C           2.4078   -0.4180    1.8737 C.3     1  UNL1       -0.0281
      2 C           3.1826   -0.5761    0.5690 C.3     1  UNL1        0.0946
      3 C           2.3439   -1.3011   -0.4744 C.3     1  UNL1       -0.0281
      4 O           3.4674    0.7428    0.1055 O.3     1  UNL1       -0.4885
      5 C           4.5805    1.0412   -0.6292 C.ar    1  UNL1        0.1353
      6 C           5.5238    0.0805   -1.0111 C.ar    1  UNL1        0.0254
      7 C           6.6794    0.4254   -1.7197 C.ar    1  UNL1        0.1220
      8 N           7.7234   -0.5076   -1.9331 N.pl3   1  UNL1       -0.2050
      9 C           8.0541   -1.5742   -1.1575 C.2     1  UNL1        0.2565
     10 N           7.9662   -1.4197    0.0869 N.2     1  UNL1       -0.4083
     11 C           8.6696   -2.8607   -1.6216 C.ar    1  UNL1        0.1463
     12 C           8.7753   -3.2428   -2.9434 C.ar    1  UNL1       -0.0286
     13 C           9.3871   -4.4670   -3.1937 C.ar    1  UNL1       -0.0581
     14 C           9.8538   -5.2409   -2.1301 C.ar    1  UNL1       -0.0435
     15 C           9.6887   -4.7682   -0.8376 C.ar    1  UNL1        0.0285
     16 N           9.1025   -3.5830   -0.5447 N.ar    1  UNL1       -0.2477
     17 C           6.8239    1.7505   -2.1377 C.ar    1  UNL1       -0.0161
     18 C           5.8683    2.7226   -1.7870 C.ar    1  UNL1       -0.0437
     19 C           4.7552    2.3980   -0.9976 C.ar    1  UNL1        0.0591
     20 C           3.8144    3.4377   -0.5455 C.ar    1  UNL1        0.1392
     21 C           2.8615    3.4802    0.4582 C.ar    1  UNL1       -0.0151
     22 C           2.2084    4.7217    0.3702 C.ar    1  UNL1       -0.0151
     23 C           2.8747    5.4416   -0.5956 C.ar    1  UNL1        0.1392
     24 O           3.8327    4.6561   -1.1871 O.2     1  UNL1       -0.4546
     25 C           2.7330    6.8108   -1.0730 C.ar    1  UNL1        0.0591
     26 C           2.5900    7.9258   -0.2341 C.ar    1  UNL1        0.1353
     27 O           2.6695    7.9906    1.1325 O.3     1  UNL1       -0.4885
     28 C           3.6539    7.2521    1.8663 C.3     1  UNL1        0.0946
     29 C           5.0855    7.4911    1.3939 C.3     1  UNL1       -0.0281
     30 C           3.5028    7.6914    3.3232 C.3     1  UNL1       -0.0281
     31 C           2.2448    9.1852   -0.7787 C.ar    1  UNL1        0.0254
     32 C           2.0713    9.3952   -2.1475 C.ar    1  UNL1        0.1220
     33 N           1.6820   10.6154   -2.7568 N.pl3   1  UNL1       -0.2050
     34 C           1.2937   11.8320   -2.2906 C.2     1  UNL1        0.2565
     35 N           1.4299   12.1052   -1.0764 N.2     1  UNL1       -0.4083
     36 C           0.7194   12.9446   -3.1381 C.ar    1  UNL1        0.1463
     37 N           0.5524   14.0665   -2.3734 N.ar    1  UNL1       -0.2477
     38 C           0.0280   15.1372   -3.0141 C.ar    1  UNL1        0.0285
     39 C          -0.3356   15.1278   -4.3523 C.ar    1  UNL1       -0.0435
     40 C          -0.1529   13.9573   -5.0881 C.ar    1  UNL1       -0.0581
     41 C           0.3898   12.8309   -4.4755 C.ar    1  UNL1       -0.0286
     42 C           2.2808    8.2824   -2.9775 C.ar    1  UNL1       -0.0161
     43 C           2.6013    7.0193   -2.4542 C.ar    1  UNL1       -0.0437
     44 H           2.1334   -1.3899    2.2939 H       1  UNL1        0.0265
     45 H           3.0176    0.1187    2.6098 H       1  UNL1        0.0265
     46 H           1.4998    0.1762    1.7259 H       1  UNL1        0.0265
     47 H           4.0922   -1.1378    0.8089 H       1  UNL1        0.0727
     48 H           1.4739   -0.6990   -0.7621 H       1  UNL1        0.0265
     49 H           2.9216   -1.4693   -1.3887 H       1  UNL1        0.0265
     50 H           1.9960   -2.2699   -0.1042 H       1  UNL1        0.0265
     51 H           5.3475   -0.9661   -0.7966 H       1  UNL1        0.0695
     52 H           8.0758   -0.4624   -2.8910 H       1  UNL1        0.2983
     53 H           8.6232   -2.0865    0.5023 H       1  UNL1        0.2551
     54 H           8.4001   -2.6405   -3.7605 H       1  UNL1        0.0641
     55 H           9.5037   -4.8267   -4.2147 H       1  UNL1        0.0619
     56 H          10.3357   -6.1987   -2.3102 H       1  UNL1        0.0633
     57 H          10.0379   -5.3501    0.0130 H       1  UNL1        0.0830
     58 H           7.6961    2.0601   -2.7119 H       1  UNL1        0.0658
     59 H           6.0263    3.7501   -2.1140 H       1  UNL1        0.0627
     60 H           2.6435    2.6964    1.1710 H       1  UNL1        0.0656
     61 H           1.3992    5.0822    0.9896 H       1  UNL1        0.0656
     62 H           3.4291    6.1885    1.8546 H       1  UNL1        0.0727
     63 H           5.3759    8.5374    1.5307 H       1  UNL1        0.0265
     64 H           5.7811    6.8607    1.9598 H       1  UNL1        0.0265
     65 H           5.2115    7.2580    0.3348 H       1  UNL1        0.0265
     66 H           3.7650    8.7482    3.4453 H       1  UNL1        0.0265
     67 H           2.4614    7.5868    3.6489 H       1  UNL1        0.0265
     68 H           4.1357    7.0938    3.9864 H       1  UNL1        0.0265
     69 H           2.1217    9.9717   -0.0482 H       1  UNL1        0.0695
     70 H           1.6278   10.4939   -3.7696 H       1  UNL1        0.2983
     71 H           1.1786   13.0988   -0.9756 H       1  UNL1        0.2551
     72 H          -0.1020   16.0352   -2.4133 H       1  UNL1        0.0830
     73 H          -0.7577   16.0152   -4.8158 H       1  UNL1        0.0633
     74 H          -0.4393   13.9296   -6.1380 H       1  UNL1        0.0619
     75 H           0.5234   11.9195   -5.0415 H       1  UNL1        0.0641
     76 H           2.1637    8.3608   -4.0577 H       1  UNL1        0.0658
     77 H           2.6969    6.1774   -3.1396 H       1  UNL1        0.0627
     78 H           2.3776   11.9161   -0.8022 H       1  UNL1        0.2551
     79 H           7.0685   -1.7364    0.3940 H       1  UNL1        0.2551
     80 H           8.0953   -0.4546    0.3285 H       1  UNL1        0.2551
     81 H           0.7887   11.5403   -0.5511 H       1  UNL1        0.2551
@<TRIPOS>BOND
     1     1    44    1
     2     1    45    1
     3     1    46    1
     4     2     1    1
     5     2    47    1
     6     3     2    1
     7     3    48    1
     8     3    49    1
     9     3    50    1
    10     4     2    1
    11     5     4    1
    12     6     5   ar
    13     6    51    1
    14     7     6   ar
    15     8     7    1
    16     8    52    1
    17     9     8    1
    18    10     9    2
    19    10    53    1
    20    10    79    1
    21    11     9    1
    22    12    11   ar
    23    12    54    1
    24    13    12   ar
    25    13    55    1
    26    14    13   ar
    27    14    56    1
    28    15    14   ar
    29    15    57    1
    30    16    15   ar
    31    16    11   ar
    32    17     7   ar
    33    17    58    1
    34    18    17   ar
    35    18    59    1
    36    19    18   ar
    37    19     5   ar
    38    20    19    1
    39    21    20   ar
    40    21    60    1
    41    22    21   ar
    42    22    61    1
    43    23    22   ar
    44    24    23   ar
    45    24    20   ar
    46    25    23    1
    47    26    25   ar
    48    27    26    1
    49    28    27    1
    50    28    62    1
    51    29    28    1
    52    29    63    1
    53    29    64    1
    54    29    65    1
    55    30    28    1
    56    30    66    1
    57    30    67    1
    58    30    68    1
    59    31    26   ar
    60    31    69    1
    61    32    31   ar
    62    33    32    1
    63    33    70    1
    64    34    33    1
    65    35    34    2
    66    35    71    1
    67    35    78    1
    68    36    34    1
    69    37    36   ar
    70    38    37   ar
    71    38    72    1
    72    39    38   ar
    73    39    73    1
    74    40    39   ar
    75    40    74    1
    76    41    40   ar
    77    41    36   ar
    78    41    75    1
    79    42    32   ar
    80    42    76    1
    81    43    42   ar
    82    43    25   ar
    83    43    77    1
    84    10    80    1
    85    35    81    1
