@<TRIPOS>MOLECULE
mol_572_akc_jparint200912009
>554.sdf
 40 42 0 0 0
SMALL
GASTEIGER

@<TRIPOS>ATOM
      1 C           0.9113    0.0015   -0.1712 C.3     1  UNL1       -0.0465
      2 C           2.4041   -0.0370   -0.1364 C.2     1  UNL1       -0.0866
      3 C           3.1949    0.8814   -0.7153 C.2     1  UNL1       -0.0588
      4 C           4.6675    0.8336   -0.6969 C.ar    1  UNL1       -0.0245
      5 C           5.3605   -0.3912   -0.6976 C.ar    1  UNL1       -0.0436
      6 C           6.7685   -0.3964   -0.7089 C.ar    1  UNL1        0.0242
      7 C           7.4317    0.8199   -0.7389 C.ar    1  UNL1        0.1360
      8 C           6.7928    2.0568   -0.7558 C.ar    1  UNL1       -0.0182
      9 C           5.3892    2.0364   -0.7399 C.ar    1  UNL1       -0.0511
     10 O           8.7750    0.6192   -0.7558 O.2     1  UNL1       -0.4545
     11 C           8.9916   -0.7304   -0.7508 C.ar    1  UNL1        0.1392
     12 C           7.7808   -1.4071   -0.6987 C.ar    1  UNL1        0.0031
     13 C           7.5290   -2.8687   -0.6282 C.3     1  UNL1       -0.0355
     14 C          10.3959   -1.1255   -0.8137 C.ar    1  UNL1        0.0212
     15 C          11.3755   -0.3977   -0.1225 C.ar    1  UNL1       -0.0056
     16 C          12.7354   -0.7497   -0.1615 C.ar    1  UNL1        0.1619
     17 C          13.1068   -1.8604   -0.9212 C.ar    1  UNL1        0.1585
     18 C          12.1481   -2.5867   -1.6303 C.ar    1  UNL1       -0.0159
     19 C          10.8012   -2.2280   -1.5744 C.ar    1  UNL1       -0.0474
     20 O          14.3798   -2.3434   -1.0225 O.3     1  UNL1       -0.5033
     21 O          13.5118    0.0803    0.5959 O.3     1  UNL1       -0.4914
     22 C          14.9228    0.0488    0.4705 C.3     1  UNL1        0.0790
     23 H           0.5304   -0.8955   -0.6699 H       1  UNL1        0.0272
     24 H           0.5161    0.0203    0.8489 H       1  UNL1        0.0272
     25 H           0.5298    0.8777   -0.7039 H       1  UNL1        0.0272
     26 H           2.8333   -0.8750    0.4076 H       1  UNL1        0.0569
     27 H           2.7529    1.7300   -1.2331 H       1  UNL1        0.0620
     28 H           4.8292   -1.3360   -0.7008 H       1  UNL1        0.0631
     29 H           7.3552    2.9817   -0.7830 H       1  UNL1        0.0655
     30 H           4.8616    2.9893   -0.7525 H       1  UNL1        0.0625
     31 H           6.8381   -3.0956    0.1906 H       1  UNL1        0.0279
     32 H           7.0797   -3.2220   -1.5618 H       1  UNL1        0.0279
     33 H           8.4437   -3.4403   -0.4474 H       1  UNL1        0.0279
     34 H          11.0788    0.4699    0.4658 H       1  UNL1        0.0662
     35 H          12.4503   -3.4489   -2.2203 H       1  UNL1        0.0655
     36 H          10.0778   -2.8084   -2.1382 H       1  UNL1        0.0626
     37 H          14.7678   -2.3090   -0.1364 H       1  UNL1        0.2923
     38 H          15.3318   -0.7889    1.0433 H       1  UNL1        0.0660
     39 H          15.2529    0.0293   -0.5718 H       1  UNL1        0.0660
     40 H          15.3168    0.9636    0.9250 H       1  UNL1        0.0660
@<TRIPOS>BOND
     1     1    23    1
     2     1    24    1
     3     1    25    1
     4     2     1    1
     5     2    26    1
     6     3     2    2
     7     3    27    1
     8     4     3    1
     9     5     4   ar
    10     5    28    1
    11     6     5   ar
    12     7     6   ar
    13     8     7   ar
    14     8    29    1
    15     9     8   ar
    16     9     4   ar
    17     9    30    1
    18    10     7   ar
    19    11    10   ar
    20    12    11   ar
    21    12     6   ar
    22    13    12    1
    23    13    31    1
    24    13    32    1
    25    13    33    1
    26    14    11    1
    27    15    14   ar
    28    15    34    1
    29    16    15   ar
    30    17    16   ar
    31    18    17   ar
    32    18    35    1
    33    19    18   ar
    34    19    14   ar
    35    19    36    1
    36    20    17    1
    37    20    37    1
    38    21    16    1
    39    22    21    1
    40    22    38    1
    41    22    39    1
    42    22    40    1
