@<TRIPOS>MOLECULE
mol_574_akc_jejmech201002015
>556.sdf
 60 65 0 0 0
SMALL
GASTEIGER

@<TRIPOS>ATOM
      1 C           1.5569   -3.4401    4.9896 C.3     1  UNL1        0.0138
      2 N           2.6542   -2.6833    4.4314 N.ar    1  UNL1       -0.3265
      3 C           3.2076   -1.5560    5.0170 C.ar    1  UNL1        0.0526
      4 C           2.9058   -0.8968    6.2189 C.ar    1  UNL1       -0.0375
      5 C           3.6524    0.2368    6.5549 C.ar    1  UNL1       -0.0598
      6 C           4.6638    0.7022    5.7166 C.ar    1  UNL1       -0.0610
      7 C           4.9560    0.0429    4.5196 C.ar    1  UNL1       -0.0504
      8 C           4.2259   -1.1081    4.1609 C.ar    1  UNL1        0.0292
      9 C           4.2690   -2.0075    3.0640 C.ar    1  UNL1        0.1376
     10 N           5.0596   -2.0507    1.9621 N.ar    1  UNL1       -0.1429
     11 N           4.8389   -3.0559    1.1106 N.ar    1  UNL1       -0.1213
     12 C           3.8843   -3.9938    1.3628 C.ar    1  UNL1        0.2187
     13 S           3.5343   -5.1736    0.0896 S.3     1  UNL1       -0.0084
     14 C           4.9849   -6.1949    0.0918 C.ar    1  UNL1        0.2018
     15 N           5.8268   -6.1585    1.1150 N.ar    1  UNL1       -0.1881
     16 C           6.8472   -7.0039    1.0505 C.ar    1  UNL1        0.2231
     17 N           7.0073   -7.8530    0.0412 N.ar    1  UNL1       -0.1807
     18 C           6.1265   -7.8334   -0.9509 C.ar    1  UNL1        0.2231
     19 N           5.0894   -7.0131   -0.9518 N.ar    1  UNL1       -0.1881
     20 N           6.3332   -8.6530   -2.0411 N.pl3   1  UNL1       -0.2995
     21 C           7.3523   -9.6932   -1.9918 C.3     1  UNL1        0.0149
     22 C           8.0428   -9.7610   -3.3556 C.3     1  UNL1       -0.0371
     23 C           7.0346   -9.9362   -4.4913 C.3     1  UNL1       -0.0502
     24 C           5.9196   -8.8918   -4.4198 C.3     1  UNL1       -0.0371
     25 C           5.2796   -8.8336   -3.0307 C.3     1  UNL1        0.0149
     26 N           7.7938   -6.9922    2.0495 N.pl3   1  UNL1       -0.2995
     27 C           7.6915   -6.0794    3.1771 C.3     1  UNL1        0.0149
     28 C           9.0322   -5.3643    3.3552 C.3     1  UNL1       -0.0371
     29 C          10.1930   -6.3546    3.4567 C.3     1  UNL1       -0.0502
     30 C          10.1917   -7.3381    2.2865 C.3     1  UNL1       -0.0371
     31 C           8.8297   -8.0134    2.1182 C.3     1  UNL1        0.0149
     32 N           3.0470   -4.0060    2.4280 N.ar    1  UNL1       -0.2005
     33 C           3.2989   -2.9760    3.2578 C.ar    1  UNL1        0.1646
     34 H           1.8691   -3.8307    5.9614 H       1  UNL1        0.0456
     35 H           0.6988   -2.7726    5.1024 H       1  UNL1        0.0456
     36 H           1.2914   -4.2678    4.3281 H       1  UNL1        0.0456
     37 H           2.1189   -1.2498    6.8796 H       1  UNL1        0.0638
     38 H           3.4413    0.7605    7.4831 H       1  UNL1        0.0618
     39 H           5.2314    1.5878    5.9955 H       1  UNL1        0.0618
     40 H           5.7484    0.4111    3.8704 H       1  UNL1        0.0625
     41 H           6.8845  -10.6582   -1.7581 H       1  UNL1        0.0464
     42 H           8.1224   -9.5184   -1.2327 H       1  UNL1        0.0464
     43 H           8.7647  -10.5850   -3.3684 H       1  UNL1        0.0280
     44 H           8.6083   -8.8344   -3.5180 H       1  UNL1        0.0280
     45 H           7.5496   -9.8590   -5.4557 H       1  UNL1        0.0266
     46 H           6.5975  -10.9403   -4.4387 H       1  UNL1        0.0266
     47 H           6.3375   -7.9063   -4.6630 H       1  UNL1        0.0280
     48 H           5.1557   -9.1124   -5.1735 H       1  UNL1        0.0280
     49 H           4.5384   -8.0267   -3.0341 H       1  UNL1        0.0464
     50 H           4.7381   -9.7660   -2.8267 H       1  UNL1        0.0464
     51 H           7.4487   -6.6503    4.0823 H       1  UNL1        0.0464
     52 H           6.9088   -5.3222    3.0616 H       1  UNL1        0.0464
     53 H           9.0018   -4.7356    4.2518 H       1  UNL1        0.0280
     54 H           9.2031   -4.6992    2.4991 H       1  UNL1        0.0280
     55 H          11.1432   -5.8091    3.4788 H       1  UNL1        0.0266
     56 H          10.1184   -6.9095    4.3996 H       1  UNL1        0.0266
     57 H          10.4458   -6.8004    1.3643 H       1  UNL1        0.0280
     58 H          10.9669   -8.0974    2.4398 H       1  UNL1        0.0280
     59 H           8.8741   -8.6626    1.2368 H       1  UNL1        0.0464
     60 H           8.6322   -8.6687    2.9762 H       1  UNL1        0.0464
@<TRIPOS>BOND
     1     1    34    1
     2     1    35    1
     3     1    36    1
     4     2     1    1
     5     3     2   ar
     6     4     3   ar
     7     4    37    1
     8     5     4   ar
     9     5    38    1
    10     6     5   ar
    11     6    39    1
    12     7     6   ar
    13     7    40    1
    14     8     7   ar
    15     8     3   ar
    16     9     8   ar
    17    10     9   ar
    18    11    10   ar
    19    12    11   ar
    20    13    12    1
    21    14    13    1
    22    15    14   ar
    23    16    15   ar
    24    17    16   ar
    25    18    17   ar
    26    19    18   ar
    27    19    14   ar
    28    20    18    1
    29    21    20    1
    30    21    41    1
    31    21    42    1
    32    22    21    1
    33    22    43    1
    34    22    44    1
    35    23    22    1
    36    23    45    1
    37    23    46    1
    38    24    23    1
    39    24    47    1
    40    24    48    1
    41    25    24    1
    42    25    20    1
    43    25    49    1
    44    25    50    1
    45    26    16    1
    46    27    26    1
    47    27    51    1
    48    27    52    1
    49    28    27    1
    50    28    53    1
    51    28    54    1
    52    29    28    1
    53    29    55    1
    54    29    56    1
    55    30    29    1
    56    30    57    1
    57    30    58    1
    58    31    30    1
    59    31    26    1
    60    31    59    1
    61    31    60    1
    62    32    12   ar
    63    33    32   ar
    64    33     2   ar
    65    33     9   ar
