@<TRIPOS>MOLECULE
mol_575_akc_journalpntd0000675
>557.sdf
 43 45 0 0 0
SMALL
GASTEIGER

@<TRIPOS>ATOM
      1 C           1.1815   -0.1378    0.0343 C.3     1  UNL1       -0.0216
      2 C           2.7033    0.0159   -0.0330 C.3     1  UNL1       -0.0234
      3 C           3.0244    1.2623   -0.8698 C.3     1  UNL1       -0.0097
      4 C           4.5078    1.4223   -1.1420 C.3     1  UNL1       -0.0432
      5 C           5.0140    0.1947   -1.8707 C.3     1  UNL1       -0.0123
      6 C           4.7941   -1.0518   -1.0371 C.3     1  UNL1       -0.0313
      7 N           3.3409   -1.2349   -0.6438 N.4     1  UNL1        0.2406
      8 C           3.2019   -2.4595    0.2765 C.3     1  UNL1       -0.0004
      9 C           3.5791   -3.7740   -0.3521 C.ar    1  UNL1        0.0599
     10 C           2.6525   -4.4612   -1.1517 C.ar    1  UNL1        0.1360
     11 O           1.4031   -3.8926   -1.2537 O.3     1  UNL1       -0.5056
     12 C           2.9698   -5.6670   -1.8223 C.ar    1  UNL1        0.0437
     13 C           2.0698   -6.3812   -2.6562 C.ar    1  UNL1       -0.0490
     14 C           2.4583   -7.5509   -3.3079 C.ar    1  UNL1       -0.0596
     15 C           3.7543   -8.0170   -3.1560 C.ar    1  UNL1       -0.0413
     16 C           4.6479   -7.3184   -2.3404 C.ar    1  UNL1        0.0670
     17 CL          6.2613   -7.9419   -2.2155 Cl      1  UNL1       -0.0813
     18 C           4.2791   -6.1510   -1.6524 C.ar    1  UNL1        0.0930
     19 N           5.1570   -5.5048   -0.8533 N.ar    1  UNL1       -0.2497
     20 C           4.8203   -4.3749   -0.1932 C.ar    1  UNL1        0.0507
     21 C           5.9314   -3.8199    0.6508 C.3     1  UNL1       -0.0218
     22 H           0.8698   -0.9006    0.7517 H       1  UNL1        0.0284
     23 H           0.7171    0.8006    0.3588 H       1  UNL1        0.0284
     24 H           0.7623   -0.3949   -0.9449 H       1  UNL1        0.0284
     25 H           3.1262    0.1235    0.9731 H       1  UNL1        0.0848
     26 H           2.6621    2.1556   -0.3459 H       1  UNL1        0.0320
     27 H           2.4872    1.2227   -1.8266 H       1  UNL1        0.0320
     28 H           4.6840    2.3172   -1.7488 H       1  UNL1        0.0269
     29 H           5.0535    1.5568   -0.1995 H       1  UNL1        0.0269
     30 H           4.5077    0.0944   -2.8384 H       1  UNL1        0.0317
     31 H           6.0836    0.3066   -2.0795 H       1  UNL1        0.0317
     32 H           5.0923   -1.9270   -1.6205 H       1  UNL1        0.0814
     33 H           5.3767   -1.0022   -0.1108 H       1  UNL1        0.0814
     34 H           2.8135   -1.4719   -1.4969 H       1  UNL1        0.2039
     35 H           3.7792   -2.2401    1.1791 H       1  UNL1        0.0869
     36 H           2.1601   -2.5121    0.6026 H       1  UNL1        0.0869
     37 H           0.7489   -4.6049   -1.3874 H       1  UNL1        0.2922
     38 H           1.0536   -6.0360   -2.8244 H       1  UNL1        0.0625
     39 H           1.7564   -8.0901   -3.9407 H       1  UNL1        0.0618
     40 H           4.0710   -8.9201   -3.6732 H       1  UNL1        0.0633
     41 H           6.5670   -4.6330    1.0178 H       1  UNL1        0.0293
     42 H           6.5548   -3.1486    0.0533 H       1  UNL1        0.0293
     43 H           5.5642   -3.2887    1.5314 H       1  UNL1        0.0293
@<TRIPOS>UNITY_ATOM_ATTR
7 1
charge 1
@<TRIPOS>BOND
     1     1    22    1
     2     1    23    1
     3     1    24    1
     4     2     1    1
     5     2    25    1
     6     3     2    1
     7     3    26    1
     8     3    27    1
     9     4     3    1
    10     4    28    1
    11     4    29    1
    12     5     4    1
    13     5    30    1
    14     5    31    1
    15     6     5    1
    16     6    32    1
    17     6    33    1
    18     7     6    1
    19     7     2    1
    20     7    34    1
    21     8     7    1
    22     8    35    1
    23     8    36    1
    24     9     8    1
    25    10     9   ar
    26    11    10    1
    27    11    37    1
    28    12    10   ar
    29    13    12   ar
    30    13    38    1
    31    14    13   ar
    32    14    39    1
    33    15    14   ar
    34    15    40    1
    35    16    15   ar
    36    17    16    1
    37    18    16   ar
    38    18    12   ar
    39    19    18   ar
    40    20    19   ar
    41    20     9   ar
    42    21    20    1
    43    21    41    1
    44    21    42    1
    45    21    43    1
