@<TRIPOS>MOLECULE
mol_576_akc_journalpntd0000675
>558.sdf
 51 53 0 0 0
SMALL
GASTEIGER

@<TRIPOS>ATOM
      1 C           1.9476    1.0414    0.7614 C.3     1  UNL1        0.0790
      2 O           2.4222    0.0223   -0.1250 O.3     1  UNL1       -0.4914
      3 C           3.0706    0.4921   -1.2424 C.ar    1  UNL1        0.1621
      4 C           2.6755    1.6673   -1.8854 C.ar    1  UNL1       -0.0077
      5 C           3.3692    2.1404   -3.0032 C.ar    1  UNL1       -0.0018
      6 C           2.9355    3.3955   -3.6453 C.2     1  UNL1        0.0529
      7 N           1.9272    4.0416   -3.1574 N.2     1  UNL1       -0.1875
      8 N           1.5820    5.2056   -3.7546 N.am    1  UNL1       -0.2029
      9 C           0.4745    5.8882   -3.2712 C.2     1  UNL1        0.2668
     10 O          -0.2990    5.4652   -2.4099 O.2     1  UNL1       -0.2683
     11 C           0.1901    7.2158   -3.8766 C.ar    1  UNL1        0.0799
     12 C          -1.1234    7.7110   -3.8780 C.ar    1  UNL1        0.1319
     13 O          -2.1628    7.0033   -3.3306 O.3     1  UNL1       -0.5057
     14 C          -1.4130    8.9622   -4.4420 C.ar    1  UNL1       -0.0083
     15 C          -2.8017    9.5334   -4.4659 C.3     1  UNL1       -0.0362
     16 C          -0.3630    9.7153   -4.9863 C.ar    1  UNL1       -0.0553
     17 C           0.9467    9.2433   -4.9610 C.ar    1  UNL1       -0.0606
     18 C           1.2297    7.9967   -4.4027 C.ar    1  UNL1       -0.0460
     19 C           4.4686    1.4469   -3.4926 C.ar    1  UNL1       -0.0494
     20 C           4.8446    0.2503   -2.8796 C.ar    1  UNL1       -0.0157
     21 C           4.1228   -0.2650   -1.7867 C.ar    1  UNL1        0.1624
     22 O           4.4003   -1.4879   -1.2141 O.3     1  UNL1       -0.4837
     23 C           5.0990   -2.4044   -2.0669 C.3     1  UNL1        0.1148
     24 C           4.9172   -3.8551   -1.6837 C.ar    1  UNL1       -0.0104
     25 C           3.7844   -4.3043   -0.9964 C.ar    1  UNL1       -0.0554
     26 C           3.5880   -5.6693   -0.7721 C.ar    1  UNL1       -0.0614
     27 C           4.5162   -6.5990   -1.2399 C.ar    1  UNL1       -0.0617
     28 C           5.6478   -6.1667   -1.9260 C.ar    1  UNL1       -0.0614
     29 C           5.8469   -4.8033   -2.1482 C.ar    1  UNL1       -0.0554
     30 H           2.7711    1.6820    1.0986 H       1  UNL1        0.0660
     31 H           1.1498    1.6441    0.3151 H       1  UNL1        0.0660
     32 H           1.5142    0.5556    1.6403 H       1  UNL1        0.0660
     33 H           1.8070    2.2233   -1.5457 H       1  UNL1        0.0662
     34 H           3.4981    3.7470   -4.5253 H       1  UNL1        0.0851
     35 H           2.0995    5.5256   -4.5622 H       1  UNL1        0.1776
     36 H          -1.7866    6.2604   -2.8056 H       1  UNL1        0.2922
     37 H          -2.8219   10.4848   -3.9235 H       1  UNL1        0.0279
     38 H          -3.1160    9.7068   -5.5016 H       1  UNL1        0.0279
     39 H          -3.5417    8.8754   -4.0021 H       1  UNL1        0.0279
     40 H          -0.5675   10.6924   -5.4203 H       1  UNL1        0.0621
     41 H           1.7514    9.8550   -5.3637 H       1  UNL1        0.0618
     42 H           2.2655    7.6765   -4.3559 H       1  UNL1        0.0626
     43 H           5.0316    1.8104   -4.3473 H       1  UNL1        0.0625
     44 H           5.7115   -0.2676   -3.2787 H       1  UNL1        0.0655
     45 H           4.7344   -2.3283   -3.0999 H       1  UNL1        0.0748
     46 H           6.1673   -2.1586   -2.0267 H       1  UNL1        0.0748
     47 H           3.0379   -3.5937   -0.6468 H       1  UNL1        0.0621
     48 H           2.7008   -6.0069   -0.2442 H       1  UNL1        0.0618
     49 H           4.3517   -7.6609   -1.0768 H       1  UNL1        0.0618
     50 H           6.3673   -6.8903   -2.3004 H       1  UNL1        0.0618
     51 H           6.7246   -4.4842   -2.7061 H       1  UNL1        0.0621
@<TRIPOS>BOND
     1     1    30    1
     2     1    31    1
     3     1    32    1
     4     2     1    1
     5     3     2    1
     6     4     3   ar
     7     4    33    1
     8     5     4   ar
     9     6     5    1
    10     6    34    1
    11     7     6    2
    12     8     7    1
    13     8    35    1
    14     9     8   am
    15    10     9    2
    16    11     9    1
    17    12    11   ar
    18    13    12    1
    19    13    36    1
    20    14    12   ar
    21    15    14    1
    22    15    37    1
    23    15    38    1
    24    15    39    1
    25    16    14   ar
    26    16    40    1
    27    17    16   ar
    28    17    41    1
    29    18    17   ar
    30    18    11   ar
    31    18    42    1
    32    19     5   ar
    33    19    43    1
    34    20    19   ar
    35    20    44    1
    36    21    20   ar
    37    21     3   ar
    38    22    21    1
    39    23    22    1
    40    23    45    1
    41    23    46    1
    42    24    23    1
    43    25    24   ar
    44    25    47    1
    45    26    25   ar
    46    26    48    1
    47    27    26   ar
    48    27    49    1
    49    28    27   ar
    50    28    50    1
    51    29    28   ar
    52    29    24   ar
    53    29    51    1
