@<TRIPOS>MOLECULE
mol_577_akc_s00436_010_1826_x
>559.sdf
 23 24 0 0 0
SMALL
GASTEIGER

@<TRIPOS>ATOM
      1 O           1.2558   -0.2175   -0.2164 O.co2   1  UNL1       -0.5735
      2 N           2.2540   -0.1410    0.5129 N.pl3   1  UNL1        0.1186
      3 O           2.6570    0.8785    1.0862 O.2     1  UNL1        0.0446
      4 C           2.9970   -1.3482    0.6932 C.ar    1  UNL1        0.4380
      5 C           2.8215   -2.6134    0.1864 C.ar    1  UNL1        0.0595
      6 C           3.8806   -3.3837    0.7301 C.ar    1  UNL1       -0.0078
      7 C           4.6278   -2.5360    1.5313 C.ar    1  UNL1        0.1545
      8 O           4.0852   -1.2785    1.5060 O.2     1  UNL1       -0.3992
      9 C           5.8027   -2.7523    2.3321 C.2     1  UNL1        0.0884
     10 N           6.3363   -3.9318    2.3842 N.2     1  UNL1       -0.1791
     11 N           7.4330   -4.1213    3.1829 N.am    1  UNL1       -0.1552
     12 C           8.0822   -5.3920    3.1939 C.3     1  UNL1        0.0753
     13 C           9.2448   -5.1383    4.1162 C.3     1  UNL1        0.1118
     14 O           8.8119   -4.0729    4.9690 O.3     1  UNL1       -0.4475
     15 C           7.7749   -3.4263    4.3415 C.2     1  UNL1        0.4227
     16 O           7.2601   -2.4160    4.7943 O.2     1  UNL1       -0.2244
     17 H           2.0364   -2.9369   -0.4836 H       1  UNL1        0.0722
     18 H           4.0862   -4.4339    0.5670 H       1  UNL1        0.0658
     19 H           6.2017   -1.8671    2.8528 H       1  UNL1        0.0883
     20 H           7.3913   -6.1273    3.6210 H       1  UNL1        0.0520
     21 H           8.3857   -5.7043    2.1913 H       1  UNL1        0.0520
     22 H           9.5015   -6.0183    4.7125 H       1  UNL1        0.0714
     23 H          10.1362   -4.8023    3.5754 H       1  UNL1        0.0714
@<TRIPOS>UNITY_ATOM_ATTR
1 1
charge -1
2 1
charge 1
@<TRIPOS>BOND
     1     2     1    1
     2     3     2    2
     3     4     2    1
     4     5     4   ar
     5     5    17    1
     6     6     5   ar
     7     6    18    1
     8     7     6   ar
     9     8     7   ar
    10     8     4   ar
    11     9     7    1
    12     9    19    1
    13    10     9    2
    14    11    10    1
    15    12    11    1
    16    12    20    1
    17    12    21    1
    18    13    12    1
    19    13    22    1
    20    13    23    1
    21    14    13    1
    22    15    14    1
    23    15    11   am
    24    16    15    2
