@<TRIPOS>MOLECULE
mol_579_akc_jejmech200910022
>561.sdf
 43 45 0 0 0
SMALL
GASTEIGER

@<TRIPOS>ATOM
      1 C           3.0192   -4.0620    1.5552 C.3     1  UNL1        0.0790
      2 O           2.3103   -3.4700    0.4760 O.3     1  UNL1       -0.4915
      3 C           3.0274   -3.1365   -0.6440 C.ar    1  UNL1        0.1615
      4 C           4.3257   -2.6012   -0.6950 C.ar    1  UNL1        0.1621
      5 O           5.0206   -2.4284    0.4707 O.3     1  UNL1       -0.4914
      6 C           6.0213   -1.4131    0.4875 C.3     1  UNL1        0.0790
      7 C           4.8728   -2.2893   -1.9468 C.ar    1  UNL1       -0.0086
      8 C           4.1440   -2.4645   -3.1308 C.ar    1  UNL1       -0.0133
      9 C           2.8293   -2.9273   -3.0618 C.ar    1  UNL1       -0.0503
     10 C           2.2871   -3.2747   -1.8256 C.ar    1  UNL1       -0.0157
     11 C           4.7890   -2.1675   -4.4258 C.ar    1  UNL1       -0.0002
     12 C           5.2027   -0.8994   -4.5990 C.ar    1  UNL1        0.0313
     13 C           5.9493   -0.4689   -5.7621 C.ar    1  UNL1        0.3378
     14 O           6.4456    0.6596   -5.8036 O.2     1  UNL1       -0.2452
     15 O           6.1532   -1.3580   -6.7924 O.2     1  UNL1       -0.4220
     16 C           5.3368   -2.4872   -6.7917 C.ar    1  UNL1        0.1433
     17 C           4.9274   -2.9351   -8.0369 C.ar    1  UNL1        0.0267
     18 C           3.9471   -3.9209   -8.1128 C.ar    1  UNL1        0.1650
     19 O           3.2446   -4.1461   -9.2679 O.3     1  UNL1       -0.4913
     20 C           3.1635   -3.0324  -10.1606 C.3     1  UNL1        0.0790
     21 C           3.6267   -4.6540   -6.9583 C.ar    1  UNL1        0.1623
     22 O           2.7632   -5.7147   -6.8669 O.3     1  UNL1       -0.4914
     23 C           2.6416   -6.5165   -8.0351 C.3     1  UNL1        0.0790
     24 C           4.0997   -4.2187   -5.7130 C.ar    1  UNL1       -0.0051
     25 C           4.8209   -3.0273   -5.6216 C.ar    1  UNL1        0.0290
     26 H           3.5782   -4.9468    1.2342 H       1  UNL1        0.0660
     27 H           3.6589   -3.3441    2.0717 H       1  UNL1        0.0660
     28 H           2.2731   -4.3870    2.2875 H       1  UNL1        0.0660
     29 H           6.8592   -1.6547   -0.1731 H       1  UNL1        0.0660
     30 H           5.5942   -0.4349    0.2425 H       1  UNL1        0.0660
     31 H           6.4241   -1.3608    1.5035 H       1  UNL1        0.0660
     32 H           5.8906   -1.9188   -2.0254 H       1  UNL1        0.0661
     33 H           2.2231   -3.0417   -3.9530 H       1  UNL1        0.0625
     34 H           1.2707   -3.6594   -1.7815 H       1  UNL1        0.0655
     35 H           5.0289   -0.1177   -3.8709 H       1  UNL1        0.0695
     36 H           5.2856   -2.4037   -8.9091 H       1  UNL1        0.0692
     37 H           2.9126   -2.0966   -9.6435 H       1  UNL1        0.0660
     38 H           4.1026   -2.9311  -10.7130 H       1  UNL1        0.0660
     39 H           2.3686   -3.2305  -10.8844 H       1  UNL1        0.0660
     40 H           1.9168   -6.0776   -8.7268 H       1  UNL1        0.0660
     41 H           3.6101   -6.6855   -8.5186 H       1  UNL1        0.0660
     42 H           2.2496   -7.4905   -7.7301 H       1  UNL1        0.0660
     43 H           3.7758   -4.7515   -4.8215 H       1  UNL1        0.0662
@<TRIPOS>BOND
     1     1    26    1
     2     1    27    1
     3     1    28    1
     4     2     1    1
     5     3     2    1
     6     4     3   ar
     7     5     4    1
     8     6     5    1
     9     6    29    1
    10     6    30    1
    11     6    31    1
    12     7     4   ar
    13     7    32    1
    14     8     7   ar
    15     9     8   ar
    16     9    33    1
    17    10     9   ar
    18    10     3   ar
    19    10    34    1
    20    11     8    1
    21    12    11   ar
    22    12    35    1
    23    13    12   ar
    24    14    13    2
    25    15    13   ar
    26    16    15   ar
    27    17    16   ar
    28    17    36    1
    29    18    17   ar
    30    19    18    1
    31    20    19    1
    32    20    37    1
    33    20    38    1
    34    20    39    1
    35    21    18   ar
    36    22    21    1
    37    23    22    1
    38    23    40    1
    39    23    41    1
    40    23    42    1
    41    24    21   ar
    42    24    43    1
    43    25    24   ar
    44    25    11   ar
    45    25    16   ar
