@<TRIPOS>MOLECULE
mol_580_akc_jejmech200911035
>562.sdf
 47 48 0 0 0
SMALL
GASTEIGER

@<TRIPOS>ATOM
      1 C           2.8155   10.9694    4.3976 C.3     1  UNL1        0.0790
      2 O           4.0223   10.2485    4.6233 O.3     1  UNL1       -0.4914
      3 C           4.2151    9.1245    3.8603 C.ar    1  UNL1        0.1618
      4 C           3.3473    8.6365    2.8800 C.ar    1  UNL1       -0.0092
      5 C           3.6565    7.4629    2.1695 C.ar    1  UNL1       -0.0212
      6 C           2.7868    6.9386    1.1037 C.2     1  UNL1       -0.0512
      7 C           1.4500    7.0552    1.0849 C.2     1  UNL1       -0.0182
      8 C           0.6643    6.5020   -0.0569 C.2     1  UNL1        0.1635
      9 O           1.2157    5.9406   -1.0023 O.2     1  UNL1       -0.2922
     10 C          -0.8332    6.6365   -0.0042 C.3     1  UNL1        0.0724
     11 C          -1.2951    8.0680    0.0016 C.2     1  UNL1        0.1635
     12 O          -1.3852    8.7037    1.0512 O.2     1  UNL1       -0.2922
     13 C          -1.5954    8.6943   -1.3178 C.2     1  UNL1       -0.0182
     14 C          -2.0560    9.9532   -1.3764 C.2     1  UNL1       -0.0512
     15 C          -2.3797   10.6625   -2.6232 C.ar    1  UNL1       -0.0212
     16 C          -3.3766   11.6431   -2.6031 C.ar    1  UNL1       -0.0509
     17 C          -3.6902   12.3620   -3.7597 C.ar    1  UNL1       -0.0160
     18 C          -3.0028   12.1160   -4.9524 C.ar    1  UNL1        0.1585
     19 O          -3.3440   12.8450   -6.0572 O.3     1  UNL1       -0.5033
     20 C          -1.9923   11.1510   -4.9940 C.ar    1  UNL1        0.1618
     21 O          -1.2115   10.7767   -6.0542 O.3     1  UNL1       -0.4914
     22 C          -1.4167   11.4198   -7.3029 C.3     1  UNL1        0.0790
     23 C          -1.6887   10.4393   -3.8223 C.ar    1  UNL1       -0.0092
     24 C           4.8658    6.8030    2.4362 C.ar    1  UNL1       -0.0509
     25 C           5.7398    7.2857    3.4111 C.ar    1  UNL1       -0.0160
     26 C           5.4056    8.4354    4.1122 C.ar    1  UNL1        0.1585
     27 O           6.2794    8.8912    5.0615 O.3     1  UNL1       -0.5033
     28 H           2.7820   11.3695    3.3789 H       1  UNL1        0.0660
     29 H           1.9385   10.3485    4.6092 H       1  UNL1        0.0660
     30 H           2.7973   11.8168    5.0894 H       1  UNL1        0.0660
     31 H           2.4309    9.1662    2.6446 H       1  UNL1        0.0661
     32 H           3.2975    6.4164    0.2953 H       1  UNL1        0.0625
     33 H           0.8918    7.5415    1.8767 H       1  UNL1        0.0653
     34 H          -1.2702    6.1115   -0.8616 H       1  UNL1        0.0426
     35 H          -1.2154    6.1284    0.8881 H       1  UNL1        0.0426
     36 H          -1.4311    8.0882   -2.2012 H       1  UNL1        0.0653
     37 H          -2.2274   10.5130   -0.4574 H       1  UNL1        0.0625
     38 H          -3.9247   11.8551   -1.6875 H       1  UNL1        0.0625
     39 H          -4.4742   13.1125   -3.7091 H       1  UNL1        0.0655
     40 H          -4.0559   13.4635   -5.8263 H       1  UNL1        0.2923
     41 H          -2.4248   11.2345   -7.6864 H       1  UNL1        0.0660
     42 H          -1.1878   12.4883   -7.2416 H       1  UNL1        0.0660
     43 H          -0.7147   10.9797   -8.0184 H       1  UNL1        0.0660
     44 H          -0.8821    9.7112   -3.8653 H       1  UNL1        0.0661
     45 H           5.1383    5.9030    1.8885 H       1  UNL1        0.0625
     46 H           6.6739    6.7725    3.6192 H       1  UNL1        0.0655
     47 H           5.8637    9.7001    5.4185 H       1  UNL1        0.2923
@<TRIPOS>BOND
     1     1    28    1
     2     1    29    1
     3     1    30    1
     4     2     1    1
     5     3     2    1
     6     4     3   ar
     7     4    31    1
     8     5     4   ar
     9     6     5    1
    10     6    32    1
    11     7     6    2
    12     7    33    1
    13     8     7    1
    14     9     8    2
    15    10     8    1
    16    10    34    1
    17    10    35    1
    18    11    10    1
    19    12    11    2
    20    13    11    1
    21    13    36    1
    22    14    13    2
    23    14    37    1
    24    15    14    1
    25    16    15   ar
    26    16    38    1
    27    17    16   ar
    28    17    39    1
    29    18    17   ar
    30    19    18    1
    31    19    40    1
    32    20    18   ar
    33    21    20    1
    34    22    21    1
    35    22    41    1
    36    22    42    1
    37    22    43    1
    38    23    20   ar
    39    23    15   ar
    40    23    44    1
    41    24     5   ar
    42    24    45    1
    43    25    24   ar
    44    25    46    1
    45    26    25   ar
    46    26     3   ar
    47    27    26    1
    48    27    47    1
