@<TRIPOS>MOLECULE
mol_582_akc_s00436_010_1973_0
>564.sdf
 47 48 0 0 0
SMALL
GASTEIGER

@<TRIPOS>ATOM
      1 C           7.1083    4.1480    0.3813 C.3     1  UNL1       -0.0646
      2 C           7.8042    2.9895   -0.3222 C.3     1  UNL1       -0.0450
      3 C           6.8743    1.8179   -0.6939 C.3     1  UNL1        0.0325
      4 C           5.7728    2.2507   -1.6620 C.3     1  UNL1       -0.0541
      5 C           6.2822    1.1246    0.5364 C.2     1  UNL1        0.2164
      6 O           5.0752    1.0417    0.7507 O.2     1  UNL1       -0.2755
      7 N           7.2200    0.5476    1.3624 N.am    1  UNL1       -0.3037
      8 C           6.8639    0.0039    2.6705 C.3     1  UNL1        0.1004
      9 C           7.3307   -1.4335    2.7682 C.3     1  UNL1       -0.0177
     10 C           6.9911   -1.9535    4.1453 C.3     1  UNL1        0.0267
     11 C           7.6728   -1.1339    5.2213 C.2     1  UNL1        0.2219
     12 O           8.0822   -1.6916    6.2386 O.2     1  UNL1       -0.2752
     13 N           7.7675    0.2390    4.9962 N.am    1  UNL1       -0.2403
     14 C           8.3927    1.0627    6.0444 C.3     1  UNL1        0.0263
     15 C           7.4321    2.1149    6.6212 C.3     1  UNL1       -0.0113
     16 C           8.0475    2.9528    7.7158 C.ar    1  UNL1       -0.0459
     17 C           8.7434    4.1308    7.4103 C.ar    1  UNL1       -0.0585
     18 C           9.2534    4.9375    8.4282 C.ar    1  UNL1       -0.0615
     19 C           9.0827    4.5717    9.7638 C.ar    1  UNL1       -0.0617
     20 C           8.4174    3.3882   10.0782 C.ar    1  UNL1       -0.0615
     21 C           7.9060    2.5799    9.0600 C.ar    1  UNL1       -0.0585
     22 C           7.5270    0.8614    3.7651 C.2     1  UNL1        0.2421
     23 O           7.8232    2.0407    3.5514 O.2     1  UNL1       -0.2731
     24 H           7.8505    4.8779    0.7204 H       1  UNL1        0.0230
     25 H           6.4217    4.6677   -0.2931 H       1  UNL1        0.0230
     26 H           6.5468    3.8094    1.2572 H       1  UNL1        0.0230
     27 H           8.2825    3.3704   -1.2328 H       1  UNL1        0.0270
     28 H           8.6191    2.6381    0.3204 H       1  UNL1        0.0270
     29 H           7.4803    1.0609   -1.2103 H       1  UNL1        0.0391
     30 H           5.1658    1.3903   -1.9649 H       1  UNL1        0.0237
     31 H           5.0935    2.9796   -1.2089 H       1  UNL1        0.0237
     32 H           6.2008    2.6941   -2.5667 H       1  UNL1        0.0237
     33 H           8.1868    0.8191    1.2349 H       1  UNL1        0.1495
     34 H           5.7802    0.0671    2.8212 H       1  UNL1        0.0595
     35 H           8.4131   -1.5007    2.5949 H       1  UNL1        0.0292
     36 H           6.8429   -2.0483    2.0026 H       1  UNL1        0.0292
     37 H           7.3299   -2.9928    4.2316 H       1  UNL1        0.0359
     38 H           5.9129   -1.9335    4.3305 H       1  UNL1        0.0359
     39 H           8.7651    0.4305    6.8580 H       1  UNL1        0.0473
     40 H           9.2710    1.5534    5.6062 H       1  UNL1        0.0473
     41 H           7.0728    2.7874    5.8322 H       1  UNL1        0.0329
     42 H           6.5316    1.6186    7.0049 H       1  UNL1        0.0329
     43 H           8.8750    4.4400    6.3738 H       1  UNL1        0.0620
     44 H           9.7742    5.8605    8.1843 H       1  UNL1        0.0618
     45 H           9.4631    5.2091   10.5567 H       1  UNL1        0.0618
     46 H           8.2848    3.1000   11.1182 H       1  UNL1        0.0618
     47 H           7.3808    1.6661    9.3253 H       1  UNL1        0.0620
@<TRIPOS>BOND
     1     1    24    1
     2     1    25    1
     3     1    26    1
     4     2     1    1
     5     2    27    1
     6     2    28    1
     7     4     3    1
     8     4    30    1
     9     4    31    1
    10     4    32    1
    11     5     3    1
    12     6     5    2
    13     7     5   am
    14     7    33    1
    15     9     8    1
    16     9    35    1
    17     9    36    1
    18    10     9    1
    19    10    37    1
    20    10    38    1
    21    11    10    1
    22    12    11    2
    23    13    11   am
    24    14    13    1
    25    14    39    1
    26    14    40    1
    27    15    14    1
    28    15    41    1
    29    15    42    1
    30    16    15    1
    31    17    16   ar
    32    17    43    1
    33    18    17   ar
    34    18    44    1
    35    19    18   ar
    36    19    45    1
    37    20    19   ar
    38    20    46    1
    39    21    20   ar
    40    21    16   ar
    41    21    47    1
    42    22    13   am
    43    22     8    1
    44    23    22    2
    45     3    29    1
    46     3     2    1
    47     8    34    1
    48     8     7    1
