@<TRIPOS>MOLECULE
mol_583_akc_jejmech201004004
>565.sdf
 51 55 0 0 0
SMALL
GASTEIGER

@<TRIPOS>ATOM
      1 C           6.9903   -8.0970    3.2122 C.3     1  UNL1        0.0790
      2 O           5.9424   -7.2218    2.7949 O.3     1  UNL1       -0.4915
      3 C           6.0118   -6.8103    1.4889 C.ar    1  UNL1        0.1615
      4 C           7.1788   -6.4509    0.7992 C.ar    1  UNL1        0.1618
      5 O           8.3686   -6.4876    1.4720 O.3     1  UNL1       -0.4914
      6 C           9.3881   -5.6097    1.0089 C.3     1  UNL1        0.0790
      7 C           7.0842   -6.1247   -0.5621 C.ar    1  UNL1       -0.0110
      8 C           5.8485   -6.1366   -1.2467 C.ar    1  UNL1       -0.0175
      9 C           4.6855   -6.3904   -0.5079 C.ar    1  UNL1       -0.0527
     10 C           4.7721   -6.7227    0.8463 C.ar    1  UNL1       -0.0160
     11 C           5.8775   -5.9938   -2.7773 C.3     1  UNL1        0.0919
     12 N           6.7464   -7.0889   -3.3258 N.pl3   1  UNL1       -0.2868
     13 C           6.1827   -8.4515   -3.0536 C.3     1  UNL1        0.0199
     14 C           4.6907   -8.6330   -3.4823 C.3     1  UNL1       -0.0095
     15 C           4.0508   -7.3451   -3.9146 C.ar    1  UNL1       -0.0155
     16 C           4.5403   -6.1248   -3.4784 C.ar    1  UNL1        0.0455
     17 N           3.9167   -5.1294   -4.1824 N.ar    1  UNL1       -0.3560
     18 C           3.2188   -5.6979   -5.2330 C.ar    1  UNL1        0.0470
     19 C           2.6477   -5.0979   -6.3632 C.ar    1  UNL1       -0.0378
     20 C           2.0989   -5.9388   -7.3382 C.ar    1  UNL1       -0.0598
     21 C           2.0882   -7.3208   -7.1732 C.ar    1  UNL1       -0.0611
     22 C           2.6445   -7.9064   -6.0291 C.ar    1  UNL1       -0.0523
     23 C           3.2349   -7.0835   -5.0498 C.ar    1  UNL1        0.0032
     24 C           7.0028   -6.8990   -4.7043 C.ar    1  UNL1        0.2213
     25 N           7.0448   -5.6508   -5.1923 N.ar    1  UNL1       -0.2026
     26 C           6.9960   -5.5155   -6.5267 C.ar    1  UNL1        0.1357
     27 CL          6.8986   -3.8868   -7.0620 Cl      1  UNL1       -0.0618
     28 C           6.9676   -6.5409   -7.4217 C.ar    1  UNL1        0.0122
     29 C           7.0322   -7.7621   -6.8257 C.ar    1  UNL1        0.1357
     30 CL          7.0099   -9.1987   -7.7640 Cl      1  UNL1       -0.0618
     31 N           7.0727   -7.9725   -5.5030 N.ar    1  UNL1       -0.2026
     32 H           7.3361   -8.7589    2.4103 H       1  UNL1        0.0660
     33 H           7.8181   -7.5203    3.6346 H       1  UNL1        0.0660
     34 H           6.5949   -8.7324    4.0111 H       1  UNL1        0.0660
     35 H           9.8231   -5.9689    0.0713 H       1  UNL1        0.0660
     36 H           9.0154   -4.5856    0.9073 H       1  UNL1        0.0660
     37 H          10.1855   -5.6044    1.7584 H       1  UNL1        0.0660
     38 H           7.9823   -5.9349   -1.1453 H       1  UNL1        0.0659
     39 H           3.7060   -6.3920   -0.9806 H       1  UNL1        0.0622
     40 H           3.8668   -6.9649    1.3998 H       1  UNL1        0.0655
     41 H           6.3096   -5.0037   -2.9759 H       1  UNL1        0.0616
     42 H           6.2493   -8.6421   -1.9725 H       1  UNL1        0.0468
     43 H           6.8038   -9.2439   -3.4823 H       1  UNL1        0.0468
     44 H           4.1229   -9.0516   -2.6429 H       1  UNL1        0.0329
     45 H           4.6436   -9.3697   -4.2930 H       1  UNL1        0.0329
     46 H           4.1512   -4.1473   -4.1346 H       1  UNL1        0.1657
     47 H           2.6745   -4.0226   -6.5114 H       1  UNL1        0.0638
     48 H           1.6872   -5.5064   -8.2477 H       1  UNL1        0.0618
     49 H           1.6728   -7.9584   -7.9498 H       1  UNL1        0.0618
     50 H           2.6735   -8.9864   -5.9314 H       1  UNL1        0.0624
     51 H           6.8962   -6.4024   -8.4881 H       1  UNL1        0.0678
@<TRIPOS>BOND
     1     1    32    1
     2     1    33    1
     3     1    34    1
     4     2     1    1
     5     3     2    1
     6     4     3   ar
     7     5     4    1
     8     6     5    1
     9     6    35    1
    10     6    36    1
    11     6    37    1
    12     7     4   ar
    13     7    38    1
    14     8     7   ar
    15     9     8   ar
    16     9    39    1
    17    10     9   ar
    18    10     3   ar
    19    10    40    1
    20    12    11    1
    21    13    12    1
    22    13    42    1
    23    13    43    1
    24    14    13    1
    25    14    44    1
    26    14    45    1
    27    15    14    1
    28    16    15   ar
    29    16    11    1
    30    17    16   ar
    31    17    46    1
    32    18    17   ar
    33    19    18   ar
    34    19    47    1
    35    20    19   ar
    36    20    48    1
    37    21    20   ar
    38    21    49    1
    39    22    21   ar
    40    22    50    1
    41    23    22   ar
    42    23    15   ar
    43    23    18   ar
    44    24    12    1
    45    25    24   ar
    46    26    25   ar
    47    27    26    1
    48    28    26   ar
    49    28    51    1
    50    29    28   ar
    51    30    29    1
    52    31    29   ar
    53    31    24   ar
    54    11    41    1
    55    11     8    1
