@<TRIPOS>MOLECULE
mol_584_akc_jbmcl200910117
>566.sdf
 42 44 0 0 0
SMALL
GASTEIGER

@<TRIPOS>ATOM
      1 O           0.6215    1.4299   -0.5023 O.co2   1  UNL1       -0.5760
      2 N           1.8155    1.6122   -0.7806 N.pl3   1  UNL1        0.0796
      3 O           2.3411    1.3035   -1.8594 O.2     1  UNL1        0.0414
      4 C           2.6692    2.2229    0.2460 C.ar    1  UNL1        0.2734
      5 C           2.1216    2.5729    1.4857 C.ar    1  UNL1        0.0190
      6 C           2.9428    3.1174    2.4808 C.ar    1  UNL1       -0.0135
      7 C           4.3056    3.3113    2.2439 C.ar    1  UNL1        0.1216
      8 O           5.2240    3.7913    3.1357 O.3     1  UNL1       -0.4837
      9 C           4.8059    4.0885    4.4779 C.3     1  UNL1        0.1516
     10 C           4.8302    2.7957    5.3129 C.3     1  UNL1        0.1280
     11 O           4.3641    3.0767    6.6312 O.3     1  UNL1       -0.4882
     12 C           4.3387    2.0350    7.5179 C.ar    1  UNL1        0.1207
     13 C           4.7108    0.7156    7.2522 C.ar    1  UNL1       -0.0199
     14 C           4.6330   -0.2522    8.2599 C.ar    1  UNL1       -0.0583
     15 C           4.1843    0.0925    9.5336 C.ar    1  UNL1       -0.0615
     16 C           3.8111    1.4070    9.8029 C.ar    1  UNL1       -0.0583
     17 C           3.8887    2.3717    8.7973 C.ar    1  UNL1       -0.0199
     18 C           5.7951    5.1024    5.0773 C.3     1  UNL1        0.0644
     19 N           5.8088    6.3644    4.3584 N.ar    1  UNL1       -0.3332
     20 C           4.9623    7.4194    4.5471 C.ar    1  UNL1        0.0241
     21 C           5.3949    8.3803    3.6616 C.ar    1  UNL1        0.0454
     22 N           6.4825    7.9370    2.9543 N.ar    1  UNL1       -0.2441
     23 C           6.7106    6.7210    3.3969 C.ar    1  UNL1        0.0960
     24 C           4.8356    2.9818    0.9907 C.ar    1  UNL1       -0.0135
     25 C           4.0271    2.4355   -0.0110 C.ar    1  UNL1        0.0190
     26 H           1.0643    2.4239    1.6977 H       1  UNL1        0.0686
     27 H           2.4763    3.3673    3.4281 H       1  UNL1        0.0656
     28 H           3.8153    4.5582    4.5019 H       1  UNL1        0.0786
     29 H           4.1893    2.0397    4.8444 H       1  UNL1        0.0734
     30 H           5.8552    2.4027    5.3409 H       1  UNL1        0.0734
     31 H           5.0640    0.4015    6.2762 H       1  UNL1        0.0654
     32 H           4.9235   -1.2788    8.0493 H       1  UNL1        0.0619
     33 H           4.1246   -0.6618   10.3138 H       1  UNL1        0.0618
     34 H           3.4594    1.6815   10.7938 H       1  UNL1        0.0619
     35 H           3.5947    3.3956    9.0149 H       1  UNL1        0.0654
     36 H           5.5441    5.3371    6.1189 H       1  UNL1        0.0530
     37 H           6.8189    4.7122    5.0553 H       1  UNL1        0.0530
     38 H           4.1535    7.4085    5.2636 H       1  UNL1        0.0825
     39 H           4.9852    9.3685    3.4976 H       1  UNL1        0.0845
     40 H           7.5036    6.0664    3.0596 H       1  UNL1        0.1029
     41 H           5.8936    3.1454    0.7929 H       1  UNL1        0.0656
     42 H           4.4706    2.1798   -0.9711 H       1  UNL1        0.0686
@<TRIPOS>UNITY_ATOM_ATTR
1 1
charge -1
2 1
charge 1
@<TRIPOS>BOND
     1     2     1    1
     2     3     2    2
     3     4     2    1
     4     5     4   ar
     5     5    26    1
     6     6     5   ar
     7     6    27    1
     8     7     6   ar
     9     8     7    1
    10     9     8    1
    11     9    28    1
    12    10     9    1
    13    10    29    1
    14    10    30    1
    15    11    10    1
    16    12    11    1
    17    13    12   ar
    18    13    31    1
    19    14    13   ar
    20    14    32    1
    21    15    14   ar
    22    15    33    1
    23    16    15   ar
    24    16    34    1
    25    17    16   ar
    26    17    12   ar
    27    17    35    1
    28    18     9    1
    29    18    36    1
    30    18    37    1
    31    19    18    1
    32    20    19   ar
    33    20    38    1
    34    21    20   ar
    35    21    39    1
    36    22    21   ar
    37    23    22   ar
    38    23    19   ar
    39    23    40    1
    40    24     7   ar
    41    24    41    1
    42    25    24   ar
    43    25     4   ar
    44    25    42    1
