@<TRIPOS>MOLECULE
mol_585_akc_147864192012696254
>567.sdf
 35 36 0 0 0
SMALL
GASTEIGER

@<TRIPOS>ATOM
      1 C           9.2014    1.5315   -0.3895 C.3     1  UNL1       -0.0618
      2 C           8.4378    0.8347    0.7256 C.3     1  UNL1       -0.0375
      3 C           7.0359    0.4825    0.3012 C.2     1  UNL1       -0.0850
      4 C           6.5267   -0.7623    0.2393 C.2     1  UNL1       -0.0511
      5 C           7.2930   -1.9924    0.6223 C.3     1  UNL1        0.1078
      6 O           6.4795   -3.1621    0.4987 O.3     1  UNL1       -0.4872
      7 C           7.1298   -4.3454    0.7729 C.ar    1  UNL1        0.1324
      8 C           8.1169   -4.4208    1.7711 C.ar    1  UNL1       -0.0192
      9 C           8.7540   -5.6220    2.0663 C.ar    1  UNL1       -0.0576
     10 C           8.3913   -6.7753    1.3868 C.ar    1  UNL1       -0.0500
     11 C           7.3849   -6.7290    0.4115 C.ar    1  UNL1        0.0362
     12 C           6.7505   -5.5195    0.0906 C.ar    1  UNL1        0.0740
     13 C           5.7157   -5.5261   -0.9762 C.2     1  UNL1        0.1906
     14 O           5.1875   -4.5131   -1.4200 O.2     1  UNL1       -0.2871
     15 C           5.3120   -6.8300   -1.5447 C.2     1  UNL1       -0.0077
     16 C           5.8976   -7.9877   -1.2178 C.2     1  UNL1        0.0004
     17 C           5.4991   -9.3128   -1.7867 C.3     1  UNL1       -0.0359
     18 C           7.0156   -7.9987   -0.2460 C.2     1  UNL1        0.1898
     19 O           7.6080   -9.0395    0.0176 O.2     1  UNL1       -0.2870
     20 H          10.2359    1.7145   -0.0807 H       1  UNL1        0.0233
     21 H           9.2238    0.9203   -1.2981 H       1  UNL1        0.0233
     22 H           8.7466    2.4966   -0.6351 H       1  UNL1        0.0233
     23 H           9.0040   -0.0524    1.0292 H       1  UNL1        0.0305
     24 H           8.3918    1.4887    1.6036 H       1  UNL1        0.0305
     25 H           6.3925    1.3193    0.0333 H       1  UNL1        0.0570
     26 H           5.4948   -0.9006   -0.0780 H       1  UNL1        0.0602
     27 H           8.1703   -2.0929   -0.0280 H       1  UNL1        0.0742
     28 H           7.5892   -1.8556    1.6668 H       1  UNL1        0.0742
     29 H           8.4052   -3.5586    2.3627 H       1  UNL1        0.0654
     30 H           9.5226   -5.6593    2.8353 H       1  UNL1        0.0619
     31 H           8.8850   -7.7156    1.6289 H       1  UNL1        0.0625
     32 H           4.5025   -6.7865   -2.2662 H       1  UNL1        0.0660
     33 H           6.3336   -9.7649   -2.3329 H       1  UNL1        0.0279
     34 H           5.1988   -9.9968   -0.9856 H       1  UNL1        0.0279
     35 H           4.6557   -9.2246   -2.4793 H       1  UNL1        0.0279
@<TRIPOS>BOND
     1     1    20    1
     2     1    21    1
     3     1    22    1
     4     2     1    1
     5     2    23    1
     6     2    24    1
     7     3     2    1
     8     3    25    1
     9     4     3    2
    10     4    26    1
    11     5     4    1
    12     5    27    1
    13     5    28    1
    14     6     5    1
    15     7     6    1
    16     8     7   ar
    17     8    29    1
    18     9     8   ar
    19     9    30    1
    20    10     9   ar
    21    10    31    1
    22    11    10   ar
    23    12    11   ar
    24    12     7   ar
    25    13    12    1
    26    14    13    2
    27    15    13    1
    28    15    32    1
    29    16    15    2
    30    17    16    1
    31    17    33    1
    32    17    34    1
    33    17    35    1
    34    18    16    1
    35    18    11    1
    36    19    18    2
