@<TRIPOS>MOLECULE
mol_586_akc_jm900564x
>568.sdf
 58 61 0 0 0
SMALL
GASTEIGER

@<TRIPOS>ATOM
      1 N          11.3199    6.0620   23.1502 N.pl3   1  UNL1       -0.2430
      2 C          11.2503    5.4562   21.9175 C.2     1  UNL1        0.3624
      3 N          11.3731    4.1669   21.7706 N.2     1  UNL1        0.1514
      4 O          11.5764    3.5310   23.0057 O.2     1  UNL1       -0.3111
      5 C          11.0388    6.2920   20.6961 C.ar    1  UNL1        0.0696
      6 C          11.4138    5.7893   19.4469 C.ar    1  UNL1       -0.0433
      7 C          11.2079    6.5437   18.2883 C.ar    1  UNL1       -0.0191
      8 C          10.6213    7.8087   18.3639 C.ar    1  UNL1        0.1205
      9 O          10.3673    8.6336   17.2975 O.3     1  UNL1       -0.4920
     10 C          10.7247    8.1200   16.0102 C.3     1  UNL1        0.0896
     11 C          10.3718    9.1543   14.9399 C.3     1  UNL1       -0.0186
     12 C          10.7565    8.7205   13.5189 C.3     1  UNL1       -0.0484
     13 C          10.0588    7.4582   13.0041 C.3     1  UNL1       -0.0349
     14 C           8.5571    7.6253   12.7171 C.3     1  UNL1        0.0233
     15 N           7.8342    6.4075   13.0776 N.ar    1  UNL1       -0.3460
     16 C           7.1758    6.2771   14.2794 C.ar    1  UNL1        0.0129
     17 C           7.2397    4.9484   14.6308 C.ar    1  UNL1        0.0021
     18 C           6.9736    4.3944   15.9196 C.2     1  UNL1       -0.0262
     19 C           6.2571    4.8911   16.9291 C.2     1  UNL1        0.0981
     20 N           5.4981    6.0231   17.0034 N.am    1  UNL1       -0.2648
     21 C           4.9552    6.1378   18.2689 C.2     1  UNL1        0.3105
     22 O           4.2145    7.0307   18.6520 O.2     1  UNL1       -0.2521
     23 N           5.3826    5.0700   19.0103 N.am    1  UNL1       -0.2349
     24 C           6.1708    4.2336   18.2687 C.2     1  UNL1        0.2657
     25 O           6.6818    3.1879   18.6122 O.2     1  UNL1       -0.2684
     26 C           7.7449    4.2289   13.5012 C.ar    1  UNL1        0.0071
     27 C           8.0275    2.8697   13.2483 C.ar    1  UNL1       -0.0520
     28 C           8.5093    2.4830   11.9951 C.ar    1  UNL1       -0.0611
     29 C           8.7138    3.4283   10.9948 C.ar    1  UNL1       -0.0598
     30 C           8.4884    4.7891   11.2311 C.ar    1  UNL1       -0.0376
     31 C           8.0160    5.1673   12.4982 C.ar    1  UNL1        0.0496
     32 C          10.2449    8.3099   19.6144 C.ar    1  UNL1       -0.0191
     33 C          10.4523    7.5586   20.7792 C.ar    1  UNL1       -0.0433
     34 H          11.6671    5.3891   23.8308 H       1  UNL1        0.2886
     35 H          11.8431    6.9287   23.1729 H       1  UNL1        0.2886
     36 H          11.4975    2.5905   22.7582 H       1  UNL1        0.3605
     37 H          11.8696    4.8049   19.3657 H       1  UNL1        0.0627
     38 H          11.5152    6.1045   17.3455 H       1  UNL1        0.0654
     39 H          11.8040    7.9274   15.9761 H       1  UNL1        0.0696
     40 H          10.1672    7.1957   15.8273 H       1  UNL1        0.0696
     41 H           9.3062    9.3996   15.0010 H       1  UNL1        0.0298
     42 H          10.8984   10.0889   15.1747 H       1  UNL1        0.0298
     43 H          10.5640    9.5472   12.8258 H       1  UNL1        0.0267
     44 H          11.8394    8.5414   13.4962 H       1  UNL1        0.0267
     45 H          10.5484    7.1479   12.0722 H       1  UNL1        0.0282
     46 H          10.2407    6.6378   13.7089 H       1  UNL1        0.0282
     47 H           8.1213    8.4411   13.3031 H       1  UNL1        0.0492
     48 H           8.3636    7.8343   11.6605 H       1  UNL1        0.0492
     49 H           6.8851    7.1607   14.8297 H       1  UNL1        0.0815
     50 H           7.4685    3.4412   16.1165 H       1  UNL1        0.0644
     51 H           5.3040    6.6664   16.2535 H       1  UNL1        0.1565
     52 H           5.1361    4.9119   19.9714 H       1  UNL1        0.1594
     53 H           7.8717    2.1228   14.0211 H       1  UNL1        0.0624
     54 H           8.7210    1.4338   11.8043 H       1  UNL1        0.0618
     55 H           9.0709    3.1041   10.0198 H       1  UNL1        0.0618
     56 H           8.6784    5.5208   10.4527 H       1  UNL1        0.0638
     57 H           9.7755    9.2885   19.6839 H       1  UNL1        0.0654
     58 H          10.1271    7.9590   21.7352 H       1  UNL1        0.0627
@<TRIPOS>BOND
     1     1    34    1
     2     1    35    1
     3     2     1    1
     4     3     2    2
     5     4     3    1
     6     4    36    1
     7     5     2    1
     8     6     5   ar
     9     6    37    1
    10     7     6   ar
    11     7    38    1
    12     8     7   ar
    13     9     8    1
    14    10     9    1
    15    10    39    1
    16    10    40    1
    17    11    10    1
    18    11    41    1
    19    11    42    1
    20    12    11    1
    21    12    43    1
    22    12    44    1
    23    13    12    1
    24    13    45    1
    25    13    46    1
    26    14    13    1
    27    14    47    1
    28    14    48    1
    29    15    14    1
    30    16    15   ar
    31    16    49    1
    32    17    16   ar
    33    18    17    1
    34    18    50    1
    35    19    18    2
    36    20    19    1
    37    20    51    1
    38    21    20   am
    39    22    21    2
    40    23    21   am
    41    23    52    1
    42    24    23   am
    43    24    19    1
    44    25    24    2
    45    26    17   ar
    46    27    26   ar
    47    27    53    1
    48    28    27   ar
    49    28    54    1
    50    29    28   ar
    51    29    55    1
    52    30    29   ar
    53    30    56    1
    54    31    30   ar
    55    31    15   ar
    56    31    26   ar
    57    32     8   ar
    58    32    57    1
    59    33    32   ar
    60    33     5   ar
    61    33    58    1
