@<TRIPOS>MOLECULE
mol_588_akc_jmm0011155_0
>570.sdf
 13 12 0 0 0
SMALL
GASTEIGER

@<TRIPOS>ATOM
      1 O           3.2700    0.4107   -1.2004 O.co2   1  UNL1       -0.7245
      2 S           2.7251   -0.0298    0.0804 S.3     1  UNL1       -0.0793
      3 O           1.2766    0.1115    0.2146 O.2     1  UNL1       -0.1853
      4 O           3.2650   -1.2902    0.5851 O.2     1  UNL1       -0.1853
      5 C           3.3447    1.1690    1.2329 C.3     1  UNL1        0.0684
      6 C           4.8635    1.1792    1.2531 C.3     1  UNL1        0.0297
      7 N           5.3510    2.1456    2.2545 N.3     1  UNL1       -0.2315
      8 CL          7.1134    2.2122    2.3108 Cl      1  UNL1       -0.0241
      9 H           2.9455    2.1460    0.9397 H       1  UNL1        0.0503
     10 H           2.9376    0.9088    2.2162 H       1  UNL1        0.0503
     11 H           5.2482    0.1817    1.4974 H       1  UNL1        0.0453
     12 H           5.2514    1.4498    0.2644 H       1  UNL1        0.0453
     13 H           4.9778    1.8777    3.1643 H       1  UNL1        0.1409
@<TRIPOS>UNITY_ATOM_ATTR
1 1
charge -1
@<TRIPOS>BOND
     1     2     1    1
     2     3     2    2
     3     4     2    2
     4     5     2    1
     5     5     9    1
     6     5    10    1
     7     6     5    1
     8     6    11    1
     9     6    12    1
    10     7     6    1
    11     7    13    1
    12     8     7    1
