@<TRIPOS>MOLECULE
mol_589_akc_s00284_009_9447_2
>571.sdf
 49 51 0 0 0
SMALL
GASTEIGER

@<TRIPOS>ATOM
      1 C           1.4605   -0.4985    1.0925 C.3     1  UNL1       -0.0612
      2 C           2.3862   -0.1180   -0.0590 C.3     1  UNL1       -0.0287
      3 C           2.9782    1.2636    0.1113 C.ar    1  UNL1       -0.0210
      4 C           2.2054    2.3456   -0.3569 C.ar    1  UNL1       -0.0562
      5 C           2.6202    3.6712   -0.1912 C.ar    1  UNL1       -0.0542
      6 C           3.8061    3.9649    0.4817 C.ar    1  UNL1       -0.0230
      7 C           4.1994    5.3663    0.6823 C.2     1  UNL1       -0.0509
      8 C           4.9092    5.7900    1.7398 C.2     1  UNL1       -0.0138
      9 C           5.2503    7.2314    1.8880 C.2     1  UNL1        0.1861
     10 O           4.6559    8.1040    1.2622 O.2     1  UNL1       -0.2873
     11 C           6.3143    7.5876    2.8621 C.ar    1  UNL1        0.0217
     12 C           7.3954    6.7352    3.1264 C.ar    1  UNL1       -0.0509
     13 C           8.3821    7.1181    4.0382 C.ar    1  UNL1       -0.0611
     14 C           8.2985    8.3519    4.6825 C.ar    1  UNL1       -0.0617
     15 C           7.2327    9.2099    4.4135 C.ar    1  UNL1       -0.0611
     16 C           6.2451    8.8320    3.5004 C.ar    1  UNL1       -0.0509
     17 C           4.6037    2.9008    0.9132 C.ar    1  UNL1       -0.0277
     18 C           4.2101    1.5620    0.7234 C.ar    1  UNL1        0.1122
     19 S           5.3663    0.3291    1.3247 S.O2    1  UNL1        0.0726
     20 O           6.2077    0.9570    2.3251 O.2     1  UNL1       -0.1500
     21 O           4.6424   -0.8816    1.6363 O.2     1  UNL1       -0.1500
     22 N           6.3020   -0.0051   -0.0387 N.pl3   1  UNL1       -0.2162
     23 C           7.0950    1.0104   -0.6414 C.ar    1  UNL1        0.0481
     24 C           8.3304    1.3574   -0.0941 C.ar    1  UNL1       -0.0379
     25 C           9.1418    2.2979   -0.7358 C.ar    1  UNL1       -0.0416
     26 C           8.6980    2.9061   -1.9098 C.ar    1  UNL1        0.0411
     27 CL          9.7065    4.0414   -2.7212 Cl      1  UNL1       -0.0835
     28 C           7.4479    2.5898   -2.4391 C.ar    1  UNL1       -0.0416
     29 C           6.6443    1.6377   -1.8052 C.ar    1  UNL1       -0.0379
     30 H           1.0857   -1.5185    0.9564 H       1  UNL1        0.0233
     31 H           1.9681   -0.4488    2.0608 H       1  UNL1        0.0233
     32 H           0.5920    0.1688    1.1398 H       1  UNL1        0.0233
     33 H           3.1628   -0.8718   -0.2063 H       1  UNL1        0.0311
     34 H           1.8044   -0.1457   -0.9900 H       1  UNL1        0.0311
     35 H           1.2521    2.1623   -0.8535 H       1  UNL1        0.0621
     36 H           1.9877    4.4724   -0.5695 H       1  UNL1        0.0624
     37 H           3.8615    6.0783   -0.0692 H       1  UNL1        0.0625
     38 H           5.2317    5.1206    2.5275 H       1  UNL1        0.0656
     39 H           7.5016    5.7816    2.6168 H       1  UNL1        0.0625
     40 H           9.2222    6.4570    4.2395 H       1  UNL1        0.0618
     41 H           9.0702    8.6492    5.3886 H       1  UNL1        0.0618
     42 H           7.1729   10.1756    4.9099 H       1  UNL1        0.0618
     43 H           5.4199    9.5105    3.2907 H       1  UNL1        0.0625
     44 H           5.5575    3.1091    1.3962 H       1  UNL1        0.0643
     45 H           5.8675   -0.6948   -0.6503 H       1  UNL1        0.1737
     46 H           8.6860    0.8735    0.8145 H       1  UNL1        0.0637
     47 H          10.1197    2.5393   -0.3279 H       1  UNL1        0.0633
     48 H           7.1003    3.0708   -3.3501 H       1  UNL1        0.0633
     49 H           5.6766    1.3926   -2.2325 H       1  UNL1        0.0637
@<TRIPOS>BOND
     1     1    30    1
     2     1    31    1
     3     1    32    1
     4     2     1    1
     5     2    33    1
     6     2    34    1
     7     3     2    1
     8     4     3   ar
     9     4    35    1
    10     5     4   ar
    11     5    36    1
    12     6     5   ar
    13     7     6    1
    14     7    37    1
    15     8     7    2
    16     8    38    1
    17     9     8    1
    18    10     9    2
    19    11     9    1
    20    12    11   ar
    21    12    39    1
    22    13    12   ar
    23    13    40    1
    24    14    13   ar
    25    14    41    1
    26    15    14   ar
    27    15    42    1
    28    16    15   ar
    29    16    11   ar
    30    16    43    1
    31    17     6   ar
    32    17    44    1
    33    18    17   ar
    34    18     3   ar
    35    19    18    1
    36    20    19    2
    37    21    19    2
    38    22    19    1
    39    22    45    1
    40    23    22    1
    41    24    23   ar
    42    24    46    1
    43    25    24   ar
    44    25    47    1
    45    26    25   ar
    46    27    26    1
    47    28    26   ar
    48    28    48    1
    49    29    28   ar
    50    29    23   ar
    51    29    49    1
