@<TRIPOS>MOLECULE
mol_58_akc_jbmcl200907081
>58.sdf
 60 65 0 0 0
SMALL
GASTEIGER

@<TRIPOS>ATOM
      1 CL         -2.1493   -0.1532   -0.1901 Cl      1  UNL1       -0.0835
      2 C          -0.4295   -0.1114   -0.1835 C.ar    1  UNL1        0.0410
      3 C           0.2895   -1.3034   -0.1369 C.ar    1  UNL1       -0.0430
      4 C           1.6858   -1.2725   -0.1109 C.ar    1  UNL1       -0.0538
      5 C           2.3765   -0.0480   -0.1270 C.ar    1  UNL1       -0.0085
      6 C           1.6332    1.1438   -0.1943 C.ar    1  UNL1       -0.0538
      7 C           0.2358    1.1116   -0.2166 C.ar    1  UNL1       -0.0430
      8 C           3.8961   -0.0326   -0.0131 C.3     1  UNL1        0.1192
      9 N           4.4978    0.4742   -1.2220 N.pl3   1  UNL1       -0.2273
     10 C           5.1852    1.6497   -1.2367 C.cat   1  UNL1        0.3732
     11 N           5.4917    2.3539   -0.1897 N.2     1  UNL1       -0.0761
     12 C           5.1372    1.8361    1.0391 C.2     1  UNL1        0.1516
     13 C           4.3872    0.7249    1.1797 C.2     1  UNL1        0.0121
     14 C           3.9876    0.1762    2.5268 C.3     1  UNL1       -0.0207
     15 C           5.0110    0.4875    3.6131 C.3     1  UNL1       -0.0231
     16 C           5.4707    1.9165    3.5355 C.ar    1  UNL1       -0.0365
     17 C           5.5610    2.5529    2.2775 C.ar    1  UNL1        0.0202
     18 C           6.0489    3.8653    2.2298 C.ar    1  UNL1       -0.0509
     19 C           6.4302    4.5323    3.3987 C.ar    1  UNL1       -0.0611
     20 C           6.3385    3.8930    4.6334 C.ar    1  UNL1       -0.0615
     21 C           5.8687    2.5845    4.7022 C.ar    1  UNL1       -0.0579
     22 N           5.4990    2.0168   -2.5255 N.pl3   1  UNL1       -0.2216
     23 C           6.1166    1.0652   -3.4716 C.3     1  UNL1        0.0762
     24 C           7.5387    1.4989   -3.8904 C.3     1  UNL1        0.0413
     25 N           7.5072    2.8749   -4.4043 N.pl3   1  UNL1       -0.3242
     26 C           6.9727    3.8487   -3.4350 C.3     1  UNL1        0.0413
     27 C           5.5712    3.4282   -2.9403 C.3     1  UNL1        0.0762
     28 C           8.0003    3.2141   -5.6460 C.ar    1  UNL1        0.0298
     29 C           7.4328    4.2428   -6.4115 C.ar    1  UNL1       -0.0407
     30 C           7.9001    4.5566   -7.6968 C.ar    1  UNL1       -0.0600
     31 C           8.9642    3.8502   -8.2455 C.ar    1  UNL1       -0.0616
     32 C           9.5592    2.8369   -7.5061 C.ar    1  UNL1       -0.0600
     33 C           9.0792    2.5273   -6.2272 C.ar    1  UNL1       -0.0407
     34 H          -0.2295   -2.2579   -0.1088 H       1  UNL1        0.0632
     35 H           2.2311   -2.2125   -0.0581 H       1  UNL1        0.0622
     36 H           2.1438    2.1070   -0.2036 H       1  UNL1        0.0622
     37 H          -0.3242    2.0427   -0.2475 H       1  UNL1        0.0632
     38 H           4.2468   -1.0691    0.0858 H       1  UNL1        0.0770
     39 H           3.9442    0.3254   -2.0569 H       1  UNL1        0.2453
     40 H           3.0126    0.6017    2.7994 H       1  UNL1        0.0315
     41 H           3.8580   -0.9118    2.4802 H       1  UNL1        0.0315
     42 H           4.5665    0.2724    4.5921 H       1  UNL1        0.0316
     43 H           5.8870   -0.1644    3.4996 H       1  UNL1        0.0316
     44 H           6.1320    4.3790    1.2748 H       1  UNL1        0.0625
     45 H           6.8022    5.5516    3.3424 H       1  UNL1        0.0618
     46 H           6.6389    4.4111    5.5401 H       1  UNL1        0.0618
     47 H           5.8139    2.0869    5.6678 H       1  UNL1        0.0620
     48 H           6.1842    0.0590   -3.0449 H       1  UNL1        0.0650
     49 H           5.4762    0.9993   -4.3593 H       1  UNL1        0.0650
     50 H           8.2181    1.4538   -3.0306 H       1  UNL1        0.0493
     51 H           7.8986    0.7785   -4.6332 H       1  UNL1        0.0493
     52 H           7.6588    3.8919   -2.5804 H       1  UNL1        0.0493
     53 H           6.9246    4.8651   -3.8417 H       1  UNL1        0.0493
     54 H           4.8556    3.5655   -3.7619 H       1  UNL1        0.0650
     55 H           5.2523    4.1003   -2.1358 H       1  UNL1        0.0650
     56 H           6.5758    4.7970   -6.0388 H       1  UNL1        0.0636
     57 H           7.4213    5.3469   -8.2686 H       1  UNL1        0.0618
     58 H           9.3270    4.0890   -9.2409 H       1  UNL1        0.0618
     59 H          10.3991    2.2837   -7.9165 H       1  UNL1        0.0618
     60 H           9.5914    1.7451   -5.6732 H       1  UNL1        0.0636
@<TRIPOS>BOND
     1     2     1    1
     2     3     2   ar
     3     3    34    1
     4     4     3   ar
     5     4    35    1
     6     5     4   ar
     7     6     5   ar
     8     6    36    1
     9     7     6   ar
    10     7     2   ar
    11     7    37    1
    12     8     5    1
    13     8    38    1
    14     9     8    1
    15     9    39    1
    16    10     9    1
    17    11    10    2
    18    12    11    1
    19    13    12    2
    20    13     8    1
    21    14    13    1
    22    14    40    1
    23    14    41    1
    24    15    14    1
    25    15    42    1
    26    15    43    1
    27    16    15    1
    28    17    16   ar
    29    17    12    1
    30    18    17   ar
    31    18    44    1
    32    19    18   ar
    33    19    45    1
    34    20    19   ar
    35    20    46    1
    36    21    20   ar
    37    21    16   ar
    38    21    47    1
    39    22    10    1
    40    23    22    1
    41    23    48    1
    42    23    49    1
    43    24    23    1
    44    24    50    1
    45    24    51    1
    46    25    24    1
    47    26    25    1
    48    26    52    1
    49    26    53    1
    50    27    26    1
    51    27    22    1
    52    27    54    1
    53    27    55    1
    54    28    25    1
    55    29    28   ar
    56    29    56    1
    57    30    29   ar
    58    30    57    1
    59    31    30   ar
    60    31    58    1
    61    32    31   ar
    62    32    59    1
    63    33    32   ar
    64    33    28   ar
    65    33    60    1
