@<TRIPOS>MOLECULE
mol_590_akc_jbmcl200903020
>572.sdf
 56 59 0 0 0
SMALL
GASTEIGER

@<TRIPOS>ATOM
      1 C           0.1118    2.3454    0.2006 C.3     1  UNL1        0.0788
      2 O           1.3887    1.7412   -0.0060 O.3     1  UNL1       -0.4949
      3 C           2.3045    1.9301    0.9911 C.ar    1  UNL1        0.1271
      4 C           2.2285    2.9086    1.9615 C.ar    1  UNL1        0.0226
      5 C           3.1592    2.9618    3.0156 C.ar    1  UNL1        0.1362
      6 O           2.9223    3.9433    3.9487 O.3     1  UNL1       -0.4942
      7 C           2.9750    5.2613    3.3768 C.3     1  UNL1        0.0788
      8 C           4.1780    1.9815    3.1774 C.ar    1  UNL1        0.0845
      9 C           4.3095    1.0744    2.0778 C.ar    1  UNL1        0.1362
     10 O           5.3903    0.2131    2.0583 O.3     1  UNL1       -0.4942
     11 C           5.1239   -1.0846    1.5266 C.3     1  UNL1        0.0788
     12 C           3.3876    1.0644    1.0096 C.ar    1  UNL1        0.0226
     13 C           4.8741    1.6946    4.5059 C.ar    1  UNL1        0.0908
     14 N           5.1680    0.3781    4.6612 N.ar    1  UNL1       -0.2135
     15 C           5.2406   -0.1501    5.8719 C.ar    1  UNL1        0.2192
     16 N           5.0030    0.5385    6.9884 N.ar    1  UNL1       -0.2143
     17 C           4.8331    1.8616    6.8575 C.ar    1  UNL1        0.0766
     18 C           4.5312    2.5967    8.0032 C.ar    1  UNL1       -0.0356
     19 C           4.4087    3.9864    7.9805 C.ar    1  UNL1       -0.0597
     20 C           4.6849    4.6727    6.8104 C.ar    1  UNL1       -0.0610
     21 C           4.9657    3.9510    5.6518 C.ar    1  UNL1       -0.0505
     22 C           4.9054    2.5353    5.6334 C.ar    1  UNL1        0.0267
     23 N           5.4792   -1.5170    5.9473 N.pl3   1  UNL1       -0.2895
     24 C           4.9225   -2.2068    7.1038 C.3     1  UNL1        0.0551
     25 C           5.9507   -2.3629    8.2325 C.3     1  UNL1       -0.0159
     26 N           7.1997   -3.0473    7.6743 N.4     1  UNL1        0.2353
     27 C           8.1721   -3.4248    8.7458 C.3     1  UNL1       -0.0430
     28 C           7.8139   -2.1754    6.5770 C.3     1  UNL1       -0.0159
     29 C           6.7929   -1.9351    5.4383 C.3     1  UNL1        0.0551
     30 H          -0.2748    2.1556    1.2106 H       1  UNL1        0.0660
     31 H           0.1626    3.4210    0.0013 H       1  UNL1        0.0660
     32 H          -0.5943    1.9022   -0.5063 H       1  UNL1        0.0660
     33 H           1.4152    3.6250    1.9515 H       1  UNL1        0.0691
     34 H           3.8312    5.3750    2.7010 H       1  UNL1        0.0660
     35 H           2.0423    5.5088    2.8612 H       1  UNL1        0.0660
     36 H           3.0958    5.9781    4.1947 H       1  UNL1        0.0660
     37 H           4.1696   -1.4885    1.8837 H       1  UNL1        0.0660
     38 H           5.1571   -1.0691    0.4325 H       1  UNL1        0.0660
     39 H           5.9168   -1.7573    1.8685 H       1  UNL1        0.0660
     40 H           3.4750    0.3528    0.1947 H       1  UNL1        0.0691
     41 H           4.3553    2.0701    8.9377 H       1  UNL1        0.0639
     42 H           4.1157    4.5265    8.8782 H       1  UNL1        0.0618
     43 H           4.6408    5.7592    6.7832 H       1  UNL1        0.0618
     44 H           5.1852    4.4936    4.7355 H       1  UNL1        0.0625
     45 H           4.6151   -3.2070    6.7711 H       1  UNL1        0.0517
     46 H           4.0092   -1.7273    7.4799 H       1  UNL1        0.0517
     47 H           5.5552   -3.0060    9.0247 H       1  UNL1        0.0830
     48 H           6.2676   -1.4031    8.6538 H       1  UNL1        0.0830
     49 H           6.8877   -3.9170    7.2229 H       1  UNL1        0.2032
     50 H           8.9886   -3.9834    8.2808 H       1  UNL1        0.0778
     51 H           8.5383   -2.5165    9.2286 H       1  UNL1        0.0778
     52 H           7.6512   -4.0665    9.4634 H       1  UNL1        0.0778
     53 H           8.1275   -1.2383    7.0503 H       1  UNL1        0.0830
     54 H           8.6936   -2.7082    6.1998 H       1  UNL1        0.0830
     55 H           6.6553   -2.8770    4.8929 H       1  UNL1        0.0517
     56 H           7.2208   -1.2250    4.7203 H       1  UNL1        0.0517
@<TRIPOS>UNITY_ATOM_ATTR
26 1
charge 1
@<TRIPOS>BOND
     1     1    30    1
     2     1    31    1
     3     1    32    1
     4     2     1    1
     5     3     2    1
     6     4     3   ar
     7     4    33    1
     8     5     4   ar
     9     6     5    1
    10     7     6    1
    11     7    34    1
    12     7    35    1
    13     7    36    1
    14     8     5   ar
    15     9     8   ar
    16    10     9    1
    17    11    10    1
    18    11    37    1
    19    11    38    1
    20    11    39    1
    21    12     9   ar
    22    12     3   ar
    23    12    40    1
    24    13     8    1
    25    14    13   ar
    26    15    14   ar
    27    16    15   ar
    28    17    16   ar
    29    18    17   ar
    30    18    41    1
    31    19    18   ar
    32    19    42    1
    33    20    19   ar
    34    20    43    1
    35    21    20   ar
    36    21    44    1
    37    22    21   ar
    38    22    13   ar
    39    22    17   ar
    40    23    15    1
    41    24    23    1
    42    24    45    1
    43    24    46    1
    44    25    24    1
    45    25    47    1
    46    25    48    1
    47    26    25    1
    48    26    49    1
    49    27    26    1
    50    27    50    1
    51    27    51    1
    52    27    52    1
    53    28    26    1
    54    28    53    1
    55    28    54    1
    56    29    28    1
    57    29    23    1
    58    29    55    1
    59    29    56    1
