@<TRIPOS>MOLECULE
mol_591_akc_jbmcl200903039
>573.sdf
 26 28 0 0 0
SMALL
GASTEIGER

@<TRIPOS>ATOM
      1 O           0.8752   -0.2061    0.1117 O.3     1  UNL1       -0.3795
      2 C           2.2750   -0.0352    0.1080 C.3     1  UNL1        0.1607
      3 C           2.9137   -0.9090    1.1947 C.3     1  UNL1        0.0207
      4 C           4.1301   -0.1297    1.7042 C.3     1  UNL1        0.0836
      5 N           3.7629    1.2480    1.4601 N.pl3   1  UNL1       -0.2178
      6 C           4.7428    2.3084    1.5463 C.3     1  UNL1        0.1097
      7 C           4.0613    3.6253    1.2791 C.ar    1  UNL1        0.0425
      8 C           4.5922    4.8282    1.7635 C.ar    1  UNL1       -0.0509
      9 C           3.9347    6.0319    1.5117 C.ar    1  UNL1       -0.0611
     10 C           2.7607    6.0409    0.7595 C.ar    1  UNL1       -0.0576
     11 C           2.2457    4.8475    0.2508 C.ar    1  UNL1       -0.0105
     12 C           2.8839    3.6333    0.5055 C.ar    1  UNL1        0.1829
     13 N           2.3115    2.4463    0.0015 N.2     1  UNL1       -0.0434
     14 C           2.7741    1.3472    0.5128 C.2     1  UNL1        0.3184
     15 H           0.5139    0.5463    0.6165 H       1  UNL1        0.2106
     16 H           2.6717   -0.2774   -0.8827 H       1  UNL1        0.0721
     17 H           2.2024   -1.0806    2.0133 H       1  UNL1        0.0332
     18 H           3.1973   -1.8948    0.8109 H       1  UNL1        0.0332
     19 H           4.2940   -0.3117    2.7705 H       1  UNL1        0.0727
     20 H           5.0348   -0.4054    1.1493 H       1  UNL1        0.0727
     21 H           5.5364    2.1584    0.8027 H       1  UNL1        0.0779
     22 H           5.1944    2.3093    2.5438 H       1  UNL1        0.0779
     23 H           5.5086    4.8312    2.3493 H       1  UNL1        0.0623
     24 H           4.3337    6.9630    1.9065 H       1  UNL1        0.0618
     25 H           2.2424    6.9781    0.5698 H       1  UNL1        0.0619
     26 H           1.3305    4.8553   -0.3369 H       1  UNL1        0.0661
@<TRIPOS>BOND
     1     1    15    1
     2     2     1    1
     3     2    16    1
     4     3     2    1
     5     3    17    1
     6     3    18    1
     7     4     3    1
     8     4    19    1
     9     4    20    1
    10     5     4    1
    11     6     5    1
    12     6    21    1
    13     6    22    1
    14     7     6    1
    15     8     7   ar
    16     8    23    1
    17     9     8   ar
    18     9    24    1
    19    10     9   ar
    20    10    25    1
    21    11    10   ar
    22    11    26    1
    23    12    11   ar
    24    12     7   ar
    25    13    12    1
    26    14    13    2
    27    14     2    1
    28    14     5    1
