@<TRIPOS>MOLECULE
mol_592_akc_jejmech200804016
>574.sdf
 50 52 0 0 0
SMALL
GASTEIGER

@<TRIPOS>ATOM
      1 C           1.0503    0.0002    0.2300 C.3     1  UNL1        0.0789
      2 O           2.4306   -0.1909   -0.0777 O.3     1  UNL1       -0.4932
      3 C           3.0086    0.7536   -0.8783 C.ar    1  UNL1        0.1464
      4 C           2.6227    2.1012   -0.8496 C.ar    1  UNL1       -0.0174
      5 C           3.2741    3.0575   -1.6386 C.ar    1  UNL1       -0.0510
      6 C           4.3483    2.6986   -2.4531 C.ar    1  UNL1       -0.0228
      7 C           4.9790    3.7222   -3.2981 C.2     1  UNL1       -0.0509
      8 C           6.2637    3.6850   -3.6825 C.2     1  UNL1       -0.0138
      9 C           6.8153    4.7536   -4.5563 C.2     1  UNL1        0.1861
     10 O           6.2729    5.8517   -4.6616 O.2     1  UNL1       -0.2873
     11 C           8.0832    4.4582   -5.2755 C.ar    1  UNL1        0.0217
     12 C           8.4188    3.1594   -5.6845 C.ar    1  UNL1       -0.0509
     13 C           9.6130    2.9284   -6.3707 C.ar    1  UNL1       -0.0611
     14 C          10.4701    3.9896   -6.6583 C.ar    1  UNL1       -0.0617
     15 C          10.1355    5.2852   -6.2645 C.ar    1  UNL1       -0.0611
     16 C           8.9424    5.5212   -5.5790 C.ar    1  UNL1       -0.0509
     17 C           4.7341    1.3539   -2.4873 C.ar    1  UNL1       -0.0246
     18 C           4.0778    0.3855   -1.7027 C.ar    1  UNL1        0.1472
     19 S           4.5439   -1.3181   -1.9734 S.O2    1  UNL1        0.0622
     20 O           3.3822   -2.1667   -1.8326 O.2     1  UNL1       -0.1529
     21 O           5.3220   -1.3378   -3.1960 O.2     1  UNL1       -0.1529
     22 N           5.6479   -1.6464   -0.7302 N.3     1  UNL1       -0.1855
     23 C           5.0654   -2.2456    0.4812 C.3     1  UNL1        0.0425
     24 C           6.0902   -2.6206    1.5314 C.ar    1  UNL1       -0.0319
     25 C           5.7194   -2.5792    2.8854 C.ar    1  UNL1       -0.0573
     26 C           6.5961   -3.0091    3.8826 C.ar    1  UNL1       -0.0615
     27 C           7.8562   -3.4920    3.5406 C.ar    1  UNL1       -0.0617
     28 C           8.2392   -3.5442    2.2014 C.ar    1  UNL1       -0.0615
     29 C           7.3600   -3.1174    1.2005 C.ar    1  UNL1       -0.0573
     30 H           0.8968    0.8658    0.8822 H       1  UNL1        0.0660
     31 H           0.4513    0.0852   -0.6830 H       1  UNL1        0.0660
     32 H           0.7056   -0.8795    0.7820 H       1  UNL1        0.0660
     33 H           1.8159    2.4514   -0.2126 H       1  UNL1        0.0655
     34 H           2.9332    4.0912   -1.6001 H       1  UNL1        0.0625
     35 H           4.3411    4.5465   -3.6158 H       1  UNL1        0.0625
     36 H           6.9389    2.8981   -3.3713 H       1  UNL1        0.0656
     37 H           7.7555    2.3181   -5.5026 H       1  UNL1        0.0625
     38 H           9.8696    1.9212   -6.6913 H       1  UNL1        0.0618
     39 H          11.3959    3.8081   -7.1992 H       1  UNL1        0.0618
     40 H          10.8005    6.1132   -6.4975 H       1  UNL1        0.0618
     41 H           8.6840    6.5358   -5.2815 H       1  UNL1        0.0625
     42 H           5.5301    1.0413   -3.1603 H       1  UNL1        0.0644
     43 H           6.2377   -0.8427   -0.5214 H       1  UNL1        0.1484
     44 H           4.3669   -1.5288    0.9211 H       1  UNL1        0.0490
     45 H           4.5281   -3.1641    0.2204 H       1  UNL1        0.0490
     46 H           4.7297   -2.2286    3.1712 H       1  UNL1        0.0621
     47 H           6.2877   -2.9814    4.9245 H       1  UNL1        0.0618
     48 H           8.5335   -3.8399    4.3165 H       1  UNL1        0.0618
     49 H           9.2187   -3.9344    1.9353 H       1  UNL1        0.0618
     50 H           7.6680   -3.1965    0.1594 H       1  UNL1        0.0621
@<TRIPOS>BOND
     1     1    30    1
     2     1    31    1
     3     1    32    1
     4     2     1    1
     5     3     2    1
     6     4     3   ar
     7     4    33    1
     8     5     4   ar
     9     5    34    1
    10     6     5   ar
    11     7     6    1
    12     7    35    1
    13     8     7    2
    14     8    36    1
    15     9     8    1
    16    10     9    2
    17    11     9    1
    18    12    11   ar
    19    12    37    1
    20    13    12   ar
    21    13    38    1
    22    14    13   ar
    23    14    39    1
    24    15    14   ar
    25    15    40    1
    26    16    15   ar
    27    16    11   ar
    28    16    41    1
    29    17     6   ar
    30    17    42    1
    31    18    17   ar
    32    18     3   ar
    33    19    18    1
    34    20    19    2
    35    21    19    2
    36    22    19    1
    37    22    43    1
    38    23    22    1
    39    23    44    1
    40    23    45    1
    41    24    23    1
    42    25    24   ar
    43    25    46    1
    44    26    25   ar
    45    26    47    1
    46    27    26   ar
    47    27    48    1
    48    28    27   ar
    49    28    49    1
    50    29    28   ar
    51    29    24   ar
    52    29    50    1
