@<TRIPOS>MOLECULE
mol_593_akc_jbmc200811031
>575.sdf
 33 34 0 0 0
SMALL
GASTEIGER

@<TRIPOS>ATOM
      1 C           2.3964    2.0247   -1.6357 C.3     1  UNL1       -0.0383
      2 C           1.0713    1.3283   -1.4986 C.ar    1  UNL1       -0.0310
      3 C          -0.0368    2.0282   -0.9853 C.ar    1  UNL1       -0.0423
      4 C          -1.3192    1.4431   -0.8574 C.ar    1  UNL1        0.0318
      5 S          -2.5121    2.5701   -0.1236 S.3     1  UNL1       -0.0747
      6 C          -4.0869    1.7514   -0.0212 C.ar    1  UNL1        0.1667
      7 C          -4.4760    0.9897    1.0973 C.ar    1  UNL1        0.2939
      8 C          -5.7111    0.3122    1.1706 C.ar    1  UNL1        0.0288
      9 C          -6.6180    0.3802    0.1053 C.ar    1  UNL1        0.0677
     10 C          -6.2826    1.1701   -1.0019 C.ar    1  UNL1        0.0288
     11 C          -5.0463    1.8451   -1.0473 C.ar    1  UNL1        0.2939
     12 N          -4.7894    2.6314   -2.2434 N.pl3   1  UNL1        0.0810
     13 O          -4.6640    3.8525   -2.1047 O.co2   1  UNL1       -0.5760
     14 O          -4.7776    2.0172   -3.3191 O.2     1  UNL1        0.0415
     15 C          -7.9248   -0.3806    0.1273 C.3     1  UNL1        0.4178
     16 F          -8.0875   -1.1387    1.2436 F       1  UNL1       -0.1659
     17 F          -9.0004    0.4476    0.0673 F       1  UNL1       -0.1659
     18 F          -8.0382   -1.2297   -0.9281 F       1  UNL1       -0.1659
     19 N          -3.5970    0.8366    2.2450 N.pl3   1  UNL1        0.0810
     20 O          -2.5412    0.2164    2.0774 O.co2   1  UNL1       -0.5760
     21 O          -4.0125    1.2855    3.3218 O.2     1  UNL1        0.0415
     22 C          -1.4614    0.1139   -1.2914 C.ar    1  UNL1        0.0561
     23 CL         -2.9416   -0.7755   -1.3144 Cl      1  UNL1       -0.0823
     24 C          -0.3554   -0.6014   -1.7757 C.ar    1  UNL1       -0.0237
     25 C           0.8995   -0.0052   -1.8706 C.ar    1  UNL1        0.0453
     26 CL          2.2084   -0.9623   -2.4609 Cl      1  UNL1       -0.0832
     27 H           3.1496    1.5447   -1.0031 H       1  UNL1        0.0278
     28 H           2.7274    2.0044   -2.6795 H       1  UNL1        0.0278
     29 H           2.3322    3.0760   -1.3369 H       1  UNL1        0.0278
     30 H           0.1117    3.0651   -0.6769 H       1  UNL1        0.0632
     31 H          -5.9529   -0.2839    2.0534 H       1  UNL1        0.0691
     32 H          -6.9791    1.2478   -1.8396 H       1  UNL1        0.0691
     33 H          -0.4762   -1.6375   -2.0865 H       1  UNL1        0.0647
@<TRIPOS>UNITY_ATOM_ATTR
12 1
charge 1
13 1
charge -1
19 1
charge 1
20 1
charge -1
@<TRIPOS>BOND
     1     1    27    1
     2     1    28    1
     3     1    29    1
     4     2     1    1
     5     3     2   ar
     6     3    30    1
     7     4     3   ar
     8     5     4    1
     9     6     5    1
    10     7     6   ar
    11     8     7   ar
    12     8    31    1
    13     9     8   ar
    14    10     9   ar
    15    10    32    1
    16    11    10   ar
    17    11     6   ar
    18    12    11    1
    19    13    12    1
    20    14    12    2
    21    15     9    1
    22    16    15    1
    23    17    15    1
    24    18    15    1
    25    19     7    1
    26    20    19    1
    27    21    19    2
    28    22     4   ar
    29    23    22    1
    30    24    22   ar
    31    24    33    1
    32    25    24   ar
    33    25     2   ar
    34    26    25    1
