@<TRIPOS>MOLECULE
mol_594_akc_jexppara200812004
>576.sdf
 45 48 0 0 0
SMALL
GASTEIGER

@<TRIPOS>ATOM
      1 C          -1.7307    1.4011    2.1056 C.3     1  UNL1        0.0154
      2 N          -1.2374    0.7430    0.9185 N.ar    1  UNL1       -0.3066
      3 C          -1.6048   -0.4969    0.4427 C.ar    1  UNL1        0.2157
      4 C          -0.9678   -0.6560   -0.7605 C.ar    1  UNL1        0.0774
      5 N          -0.2143    0.4464   -1.0420 N.ar    1  UNL1       -0.2315
      6 C          -0.3623    1.2752   -0.0163 C.ar    1  UNL1        0.1695
      7 C           0.2935    2.5498    0.0547 C.ar    1  UNL1        0.1689
      8 N           0.6620    3.1439    1.1678 N.ar    1  UNL1       -0.1365
      9 N           1.2880    4.3562    0.9247 N.ar    1  UNL1       -0.1254
     10 C           1.3323    4.6721   -0.3563 C.ar    1  UNL1        0.1846
     11 S           0.6685    3.4256   -1.3604 S.2     1  UNL1       -0.0276
     12 N           1.8780    5.8001   -0.8826 N.pl3   1  UNL1       -0.3052
     13 C           1.3798    6.4125   -2.1085 C.3     1  UNL1        0.0299
     14 C           2.5642    6.7109   -3.0287 C.3     1  UNL1        0.0308
     15 N           3.5908    7.5280   -2.3671 N.am    1  UNL1       -0.2945
     16 C           3.9953    7.0555   -1.0243 C.3     1  UNL1        0.0308
     17 C           2.8022    6.6443   -0.1208 C.3     1  UNL1        0.0299
     18 C           4.3043    8.5728   -2.9598 C.2     1  UNL1        0.2467
     19 O           5.1122    9.2561   -2.3324 O.2     1  UNL1       -0.2700
     20 C           4.0644    8.9327   -4.3893 C.ar    1  UNL1        0.0369
     21 C           3.9768   10.2888   -4.7287 C.ar    1  UNL1       -0.0496
     22 C           3.6845   10.6679   -6.0417 C.ar    1  UNL1       -0.0610
     23 C           3.4695    9.6956   -7.0183 C.ar    1  UNL1       -0.0617
     24 C           3.6088    8.3465   -6.6999 C.ar    1  UNL1       -0.0610
     25 C           3.9490    7.9689   -5.3994 C.ar    1  UNL1       -0.0496
     26 N          -2.4771   -1.4160    1.0869 N.pl3   1  UNL1        0.0750
     27 O          -2.9498   -1.0997    2.1816 O.2     1  UNL1       -0.1246
     28 O          -2.7019   -2.4747    0.4841 O.2     1  UNL1       -0.1246
     29 H          -2.8240    1.4049    2.0766 H       1  UNL1        0.0457
     30 H          -1.3583    0.8619    2.9800 H       1  UNL1        0.0457
     31 H          -1.4036    2.4390    2.1510 H       1  UNL1        0.0457
     32 H          -1.0136   -1.4999   -1.4385 H       1  UNL1        0.0869
     33 H           0.6584    5.7967   -2.6528 H       1  UNL1        0.0480
     34 H           0.8652    7.3471   -1.8590 H       1  UNL1        0.0480
     35 H           3.0502    5.7756   -3.3347 H       1  UNL1        0.0480
     36 H           2.1621    7.2075   -3.9111 H       1  UNL1        0.0480
     37 H           4.6365    6.1809   -1.1915 H       1  UNL1        0.0480
     38 H           4.6018    7.8088   -0.5110 H       1  UNL1        0.0480
     39 H           2.2724    7.5442    0.2150 H       1  UNL1        0.0480
     40 H           3.1905    6.1371    0.7702 H       1  UNL1        0.0480
     41 H           4.1331   11.0530   -3.9697 H       1  UNL1        0.0625
     42 H           3.6179   11.7217   -6.3012 H       1  UNL1        0.0618
     43 H           3.2105    9.9902   -8.0325 H       1  UNL1        0.0618
     44 H           3.4545    7.5879   -7.4634 H       1  UNL1        0.0618
     45 H           4.1003    6.9159   -5.1820 H       1  UNL1        0.0625
@<TRIPOS>BOND
     1     1    29    1
     2     1    30    1
     3     1    31    1
     4     2     1    1
     5     3     2   ar
     6     4     3   ar
     7     4    32    1
     8     5     4   ar
     9     6     5   ar
    10     6     2   ar
    11     7     6    1
    12     8     7   ar
    13     9     8   ar
    14    10     9   ar
    15    11    10   ar
    16    11     7   ar
    17    12    10    1
    18    13    12    1
    19    13    33    1
    20    13    34    1
    21    14    13    1
    22    14    35    1
    23    14    36    1
    24    15    14    1
    25    16    15    1
    26    16    37    1
    27    16    38    1
    28    17    16    1
    29    17    12    1
    30    17    39    1
    31    17    40    1
    32    18    15   am
    33    19    18    2
    34    20    18    1
    35    21    20   ar
    36    21    41    1
    37    22    21   ar
    38    22    42    1
    39    23    22   ar
    40    23    43    1
    41    24    23   ar
    42    24    44    1
    43    25    24   ar
    44    25    20   ar
    45    25    45    1
    46    26     3    1
    47    27    26    2
    48    28    26    2
