@<TRIPOS>MOLECULE
mol_595_akc_znc_2009_7_807
>577.sdf
 34 36 0 0 0
SMALL
GASTEIGER

@<TRIPOS>ATOM
      1 C           1.1587    0.3456   -0.2409 C.3     1  UNL1        0.0788
      2 O           2.5334    0.0950    0.0388 O.3     1  UNL1       -0.4949
      3 C           3.1444   -0.7967   -0.8010 C.ar    1  UNL1        0.1271
      4 C           2.8007   -0.9938   -2.1400 C.ar    1  UNL1        0.0225
      5 C           3.4971   -1.9306   -2.9043 C.ar    1  UNL1        0.1343
      6 O           3.1157   -2.0569   -4.2131 O.3     1  UNL1       -0.5058
      7 C           4.5300   -2.6763   -2.3349 C.ar    1  UNL1        0.1007
      8 C           5.3056   -3.6520   -3.1187 C.2     1  UNL1        0.1740
      9 O           5.0514   -3.8319   -4.3075 O.2     1  UNL1       -0.2917
     10 C           6.4526   -4.3203   -2.4158 C.3     1  UNL1        0.0520
     11 C           6.0925   -4.5066   -0.9420 C.3     1  UNL1        0.1322
     12 O           5.8369   -3.2120   -0.3497 O.3     1  UNL1       -0.4828
     13 C           4.8704   -2.4839   -0.9973 C.ar    1  UNL1        0.1389
     14 C           4.2016   -1.5202   -0.2419 C.ar    1  UNL1        0.0227
     15 C           4.9900   -5.5214   -0.6265 C.ar    1  UNL1       -0.0069
     16 C           4.7858   -6.6605   -1.4232 C.ar    1  UNL1       -0.0551
     17 C           3.7698   -7.5737   -1.1289 C.ar    1  UNL1       -0.0614
     18 C           2.9497   -7.3762   -0.0229 C.ar    1  UNL1       -0.0617
     19 C           3.1578   -6.2755    0.8017 C.ar    1  UNL1       -0.0614
     20 C           4.1762   -5.3642    0.5103 C.ar    1  UNL1       -0.0551
     21 H           1.0354    0.9120   -1.1690 H       1  UNL1        0.0660
     22 H           0.5871   -0.5889   -0.2707 H       1  UNL1        0.0660
     23 H           0.7582    0.9581    0.5726 H       1  UNL1        0.0660
     24 H           2.0129   -0.4246   -2.6193 H       1  UNL1        0.0691
     25 H           3.6912   -2.7385   -4.6311 H       1  UNL1        0.2922
     26 H           6.6832   -5.2667   -2.9119 H       1  UNL1        0.0385
     27 H           7.3235   -3.6625   -2.5207 H       1  UNL1        0.0385
     28 H           6.9896   -4.8841   -0.4340 H       1  UNL1        0.0789
     29 H           4.4770   -1.3569    0.7971 H       1  UNL1        0.0691
     30 H           5.4074   -6.8670   -2.2902 H       1  UNL1        0.0621
     31 H           3.6203   -8.4408   -1.7677 H       1  UNL1        0.0618
     32 H           2.1550   -8.0830    0.1993 H       1  UNL1        0.0618
     33 H           2.5260   -6.1225    1.6731 H       1  UNL1        0.0618
     34 H           4.3184   -4.5185    1.1811 H       1  UNL1        0.0621
@<TRIPOS>BOND
     1     1    21    1
     2     1    22    1
     3     1    23    1
     4     2     1    1
     5     3     2    1
     6     4     3   ar
     7     4    24    1
     8     5     4   ar
     9     6     5    1
    10     6    25    1
    11     7     5   ar
    12     8     7    1
    13     9     8    2
    14    10     8    1
    15    10    26    1
    16    10    27    1
    17    11    10    1
    18    12    11    1
    19    13    12    1
    20    13     7   ar
    21    14    13   ar
    22    14     3   ar
    23    14    29    1
    24    16    15   ar
    25    16    30    1
    26    17    16   ar
    27    17    31    1
    28    18    17   ar
    29    18    32    1
    30    19    18   ar
    31    19    33    1
    32    20    19   ar
    33    20    15   ar
    34    20    34    1
    35    11    15    1
    36    11    28    1
