@<TRIPOS>MOLECULE
mol_596_akc_znc_2009_7_807
>578.sdf
 32 34 0 0 0
SMALL
GASTEIGER

@<TRIPOS>ATOM
      1 C           1.2684    0.5732    0.4736 C.3     1  UNL1        0.0788
      2 O           2.3945   -0.0773   -0.1085 O.3     1  UNL1       -0.4949
      3 C           3.0492    0.5992   -1.1024 C.ar    1  UNL1        0.1271
      4 C           2.6691    1.8376   -1.6225 C.ar    1  UNL1        0.0225
      5 C           3.4388    2.4507   -2.6167 C.ar    1  UNL1        0.1347
      6 O           3.0374    3.6640   -3.0995 O.3     1  UNL1       -0.5058
      7 C           4.5955    1.8335   -3.1051 C.ar    1  UNL1        0.1055
      8 C           5.4730    2.4560   -4.1212 C.ar    1  UNL1        0.1966
      9 O           5.2881    3.5610   -4.6175 O.2     1  UNL1       -0.2869
     10 C           6.6519    1.6832   -4.5392 C.ar    1  UNL1        0.0288
     11 C           6.8651    0.4803   -3.9975 C.ar    1  UNL1        0.1392
     12 O           6.0613   -0.1133   -3.0439 O.2     1  UNL1       -0.4544
     13 C           4.9567    0.5794   -2.6050 C.ar    1  UNL1        0.1462
     14 C           4.1885   -0.0343   -1.6080 C.ar    1  UNL1        0.0233
     15 C           8.0291   -0.3133   -4.3959 C.ar    1  UNL1        0.0174
     16 C           9.2379   -0.1799   -3.7027 C.ar    1  UNL1       -0.0511
     17 C          10.3450   -0.9483   -4.0658 C.ar    1  UNL1       -0.0611
     18 C          10.2476   -1.8599   -5.1163 C.ar    1  UNL1       -0.0617
     19 C           9.0497   -1.9905   -5.8182 C.ar    1  UNL1       -0.0611
     20 C           7.9464   -1.2085   -5.4697 C.ar    1  UNL1       -0.0511
     21 H           1.5418    1.5484    0.8923 H       1  UNL1        0.0660
     22 H           0.4579    0.6720   -0.2564 H       1  UNL1        0.0660
     23 H           0.9042   -0.0479    1.2970 H       1  UNL1        0.0660
     24 H           1.7797    2.3432   -1.2641 H       1  UNL1        0.0691
     25 H           2.2321    3.9660   -2.6534 H       1  UNL1        0.2922
     26 H           7.3022    2.1387   -5.2750 H       1  UNL1        0.0693
     27 H           4.4852   -1.0055   -1.2164 H       1  UNL1        0.0691
     28 H           9.3214    0.5195   -2.8740 H       1  UNL1        0.0625
     29 H          11.2808   -0.8412   -3.5234 H       1  UNL1        0.0618
     30 H          11.1059   -2.4694   -5.3877 H       1  UNL1        0.0618
     31 H           8.9731   -2.7060   -6.6331 H       1  UNL1        0.0618
     32 H           7.0225   -1.3080   -6.0352 H       1  UNL1        0.0625
@<TRIPOS>BOND
     1     1    21    1
     2     1    22    1
     3     1    23    1
     4     2     1    1
     5     3     2    1
     6     4     3   ar
     7     4    24    1
     8     5     4   ar
     9     6     5    1
    10     6    25    1
    11     7     5   ar
    12     8     7   ar
    13     9     8    2
    14    10     8   ar
    15    10    26    1
    16    11    10   ar
    17    12    11   ar
    18    13    12   ar
    19    13     7   ar
    20    14    13   ar
    21    14     3   ar
    22    14    27    1
    23    15    11    1
    24    16    15   ar
    25    16    28    1
    26    17    16   ar
    27    17    29    1
    28    18    17   ar
    29    18    30    1
    30    19    18   ar
    31    19    31    1
    32    20    19   ar
    33    20    15   ar
    34    20    32    1
