@<TRIPOS>MOLECULE
mol_597_ac_jbiopha200808024
>579.sdf
 60 62 0 0 0
SMALL
GASTEIGER

@<TRIPOS>ATOM
      1 C           6.1149    2.3661    0.5348 C.3     1  UNL1       -0.0646
      2 C           5.0820    2.6396   -0.5505 C.3     1  UNL1       -0.0463
      3 C           4.0513    1.5160   -0.7610 C.3     1  UNL1        0.0193
      4 C           3.2947    1.1736    0.5286 C.3     1  UNL1       -0.0554
      5 C           4.6565    0.2587   -1.4164 C.2     1  UNL1        0.1730
      6 O           4.5715   -0.8356   -0.8570 O.2     1  UNL1       -0.2915
      7 C           5.3471    0.3334   -2.7592 C.ar    1  UNL1        0.1020
      8 C           4.9545    1.2488   -3.7561 C.ar    1  UNL1        0.1375
      9 O           3.9260    2.1126   -3.4955 O.3     1  UNL1       -0.5055
     10 C           5.5667    1.2666   -5.0249 C.ar    1  UNL1        0.0366
     11 C           5.2043    2.2918   -6.0878 C.3     1  UNL1       -0.0205
     12 C           5.6066    3.7376   -5.7401 C.3     1  UNL1       -0.0465
     13 C           7.1130    3.9926   -5.5266 C.3     1  UNL1       -0.0464
     14 C           7.9409    3.7050   -6.7771 C.3     1  UNL1       -0.0627
     15 C           7.3308    5.4459   -5.0995 C.3     1  UNL1       -0.0627
     16 C           6.5803    0.3286   -5.2861 C.ar    1  UNL1        0.1308
     17 O           7.0425    0.2828   -6.5748 O.3     1  UNL1       -0.5060
     18 C           7.0906   -0.5156   -4.2838 C.ar    1  UNL1        0.0454
     19 C           6.4056   -0.5541   -3.0576 C.ar    1  UNL1        0.1528
     20 O           6.7193   -1.5725   -2.1208 O.3     1  UNL1       -0.4246
     21 C           7.7284   -2.4908   -2.3607 C.2     1  UNL1        0.3133
     22 O           7.7447   -3.6133   -1.8741 O.2     1  UNL1       -0.2504
     23 C           8.8595   -1.9203   -3.1508 C.3     1  UNL1        0.0564
     24 C           8.3590   -1.3381   -4.4656 C.3     1  UNL1        0.0263
     25 C           9.5196   -0.5540   -5.0903 C.ar    1  UNL1       -0.0392
     26 C          10.3832   -1.1781   -6.0025 C.ar    1  UNL1       -0.0580
     27 C          11.3771   -0.4410   -6.6534 C.ar    1  UNL1       -0.0615
     28 C          11.5229    0.9212   -6.4007 C.ar    1  UNL1       -0.0617
     29 C          10.7040    1.5441   -5.4647 C.ar    1  UNL1       -0.0615
     30 C           9.7264    0.8079   -4.7971 C.ar    1  UNL1       -0.0580
     31 H           6.8847    3.1452    0.5208 H       1  UNL1        0.0230
     32 H           5.6602    2.3793    1.5297 H       1  UNL1        0.0230
     33 H           6.6085    1.4012    0.3871 H       1  UNL1        0.0230
     34 H           4.5506    3.5653   -0.2961 H       1  UNL1        0.0269
     35 H           5.6195    2.8458   -1.4821 H       1  UNL1        0.0269
     36 H           3.2621    1.8782   -1.4240 H       1  UNL1        0.0378
     37 H           2.5812    0.3601    0.3567 H       1  UNL1        0.0237
     38 H           3.9622    0.8563    1.3340 H       1  UNL1        0.0237
     39 H           2.7235    2.0434    0.8741 H       1  UNL1        0.0237
     40 H           3.6206    2.5531   -4.3029 H       1  UNL1        0.2922
     41 H           5.6268    2.0339   -7.0646 H       1  UNL1        0.0316
     42 H           4.1199    2.2477   -6.2527 H       1  UNL1        0.0316
     43 H           5.2480    4.3878   -6.5493 H       1  UNL1        0.0271
     44 H           5.0714    4.0617   -4.8397 H       1  UNL1        0.0271
     45 H           7.4757    3.3528   -4.7109 H       1  UNL1        0.0296
     46 H           7.5732    4.2760   -7.6357 H       1  UNL1        0.0232
     47 H           8.9899    3.9773   -6.6183 H       1  UNL1        0.0232
     48 H           7.9195    2.6465   -7.0409 H       1  UNL1        0.0232
     49 H           7.0066    6.1419   -5.8819 H       1  UNL1        0.0232
     50 H           6.7690    5.6760   -4.1883 H       1  UNL1        0.0232
     51 H           8.3894    5.6389   -4.8938 H       1  UNL1        0.0232
     52 H           7.7680   -0.3517   -6.6786 H       1  UNL1        0.2922
     53 H           9.3560   -1.1723   -2.5204 H       1  UNL1        0.0387
     54 H           9.5900   -2.7164   -3.3455 H       1  UNL1        0.0387
     55 H           8.0827   -2.1658   -5.1389 H       1  UNL1        0.0405
     56 H          10.2849   -2.2381   -6.2277 H       1  UNL1        0.0620
     57 H          12.0344   -0.9279   -7.3705 H       1  UNL1        0.0618
     58 H          12.2745    1.5005   -6.9315 H       1  UNL1        0.0618
     59 H          10.8106    2.6077   -5.2658 H       1  UNL1        0.0618
     60 H           9.0938    1.3276   -4.0801 H       1  UNL1        0.0620
@<TRIPOS>BOND
     1     1    31    1
     2     1    32    1
     3     1    33    1
     4     2     1    1
     5     2    34    1
     6     2    35    1
     7     4     3    1
     8     4    37    1
     9     4    38    1
    10     4    39    1
    11     5     3    1
    12     6     5    2
    13     7     5    1
    14     8     7   ar
    15     9     8    1
    16     9    40    1
    17    10     8   ar
    18    11    10    1
    19    11    41    1
    20    11    42    1
    21    12    11    1
    22    12    43    1
    23    12    44    1
    24    13    12    1
    25    13    45    1
    26    14    13    1
    27    14    46    1
    28    14    47    1
    29    14    48    1
    30    15    13    1
    31    15    49    1
    32    15    50    1
    33    15    51    1
    34    16    10   ar
    35    17    16    1
    36    17    52    1
    37    18    16   ar
    38    19    18   ar
    39    19     7   ar
    40    20    19    1
    41    21    20    1
    42    22    21    2
    43    23    21    1
    44    23    53    1
    45    23    54    1
    46    24    23    1
    47    24    18    1
    48    26    25   ar
    49    26    56    1
    50    27    26   ar
    51    27    57    1
    52    28    27   ar
    53    28    58    1
    54    29    28   ar
    55    29    59    1
    56    30    29   ar
    57    30    25   ar
    58    30    60    1
    59     3    36    1
    60     3     2    1
    61    24    25    1
    62    24    55    1
