@<TRIPOS>MOLECULE
mol_599_akc_jejmech200712014
>580.sdf
 46 47 0 0 0
SMALL
GASTEIGER

@<TRIPOS>ATOM
      1 C          -2.6623    1.0538   -0.4905 C.3     1  UNL1       -0.0435
      2 C          -1.4281    0.3024   -0.0585 C.2     1  UNL1       -0.0729
      3 C          -1.4239   -1.0428   -0.1064 C.2     1  UNL1       -0.0847
      4 C          -0.2185   -1.9036    0.1141 C.3     1  UNL1       -0.0340
      5 C           1.0138   -1.1425    0.5963 C.3     1  UNL1       -0.0439
      6 C           1.1440    0.2716   -0.0221 C.3     1  UNL1       -0.0281
      7 C           1.3557    0.1691   -1.5515 C.3     1  UNL1       -0.0593
      8 C           2.4203    0.9286    0.5515 C.3     1  UNL1       -0.0593
      9 C          -0.1650    1.1043    0.2892 C.3     1  UNL1       -0.0146
     10 C          -0.1675    1.6229    1.7550 C.3     1  UNL1       -0.0390
     11 C          -1.3868    2.4344    2.1691 C.3     1  UNL1        0.0104
     12 C          -1.2622    3.0109    3.5655 C.2     1  UNL1        0.1561
     13 O          -0.2894    2.8360    4.2908 O.2     1  UNL1       -0.2927
     14 C          -2.4402    3.8022    4.0195 C.2     1  UNL1       -0.0186
     15 C          -2.5161    4.2575    5.2770 C.2     1  UNL1       -0.0499
     16 C          -3.6429    5.0482    5.7822 C.ar    1  UNL1       -0.0068
     17 C          -4.9550    4.8952    5.3197 C.ar    1  UNL1       -0.0517
     18 C          -5.9741    5.6809    5.8530 C.ar    1  UNL1       -0.0430
     19 C          -5.6542    6.5881    6.8464 C.ar    1  UNL1        0.0276
     20 N          -4.4075    6.7523    7.3390 N.ar    1  UNL1       -0.2627
     21 C          -3.4373    5.9763    6.7984 C.ar    1  UNL1        0.0347
     22 H          -3.0835    1.6699    0.3053 H       1  UNL1        0.0274
     23 H          -2.4350    1.7029   -1.3401 H       1  UNL1        0.0274
     24 H          -3.4642    0.3732   -0.8043 H       1  UNL1        0.0274
     25 H          -2.3281   -1.5784   -0.3907 H       1  UNL1        0.0572
     26 H          -0.4596   -2.6978    0.8301 H       1  UNL1        0.0308
     27 H           0.0152   -2.4008   -0.8354 H       1  UNL1        0.0308
     28 H           0.9649   -1.0637    1.6906 H       1  UNL1        0.0274
     29 H           1.9086   -1.7404    0.3838 H       1  UNL1        0.0274
     30 H           1.5103    1.1632   -1.9882 H       1  UNL1        0.0235
     31 H           2.2413   -0.4334   -1.7841 H       1  UNL1        0.0235
     32 H           0.5071   -0.2850   -2.0707 H       1  UNL1        0.0235
     33 H           3.3194    0.3916    0.2270 H       1  UNL1        0.0235
     34 H           2.5135    1.9670    0.2155 H       1  UNL1        0.0235
     35 H           2.4326    0.9176    1.6458 H       1  UNL1        0.0235
     36 H          -0.1462    1.9885   -0.3655 H       1  UNL1        0.0351
     37 H          -0.0507    0.7868    2.4550 H       1  UNL1        0.0275
     38 H           0.7058    2.2717    1.8990 H       1  UNL1        0.0275
     39 H          -1.5382    3.2638    1.4688 H       1  UNL1        0.0345
     40 H          -2.2711    1.7928    2.1908 H       1  UNL1        0.0345
     41 H          -3.2132    3.9782    3.2817 H       1  UNL1        0.0652
     42 H          -1.7023    4.0697    5.9765 H       1  UNL1        0.0625
     43 H          -5.2030    4.1635    4.5560 H       1  UNL1        0.0624
     44 H          -6.9959    5.5831    5.5018 H       1  UNL1        0.0633
     45 H          -6.4149    7.2219    7.2937 H       1  UNL1        0.0829
     46 H          -2.4478    6.1405    7.2211 H       1  UNL1        0.0835
@<TRIPOS>BOND
     1     1    22    1
     2     1    23    1
     3     1    24    1
     4     2     1    1
     5     3     2    2
     6     3    25    1
     7     4     3    1
     8     4    26    1
     9     4    27    1
    10     5     4    1
    11     5    28    1
    12     5    29    1
    13     6     5    1
    14     7     6    1
    15     7    30    1
    16     7    31    1
    17     7    32    1
    18     8     6    1
    19     8    33    1
    20     8    34    1
    21     8    35    1
    22     9     6    1
    23     9     2    1
    24     9    36    1
    25    10     9    1
    26    10    37    1
    27    10    38    1
    28    11    10    1
    29    11    39    1
    30    11    40    1
    31    12    11    1
    32    13    12    2
    33    14    12    1
    34    14    41    1
    35    15    14    2
    36    15    42    1
    37    16    15    1
    38    17    16   ar
    39    17    43    1
    40    18    17   ar
    41    18    44    1
    42    19    18   ar
    43    19    45    1
    44    20    19   ar
    45    21    20   ar
    46    21    16   ar
    47    21    46    1
