@<TRIPOS>MOLECULE
mol_59_akc_2047773211y0000000005
>59.sdf
 52 56 0 0 0
SMALL
GASTEIGER

@<TRIPOS>ATOM
      1 C           5.8525    0.1267    0.9331 C.3     1  UNL1        0.0788
      2 O           4.7461    0.4376    0.1004 O.3     1  UNL1       -0.4951
      3 C           4.8820    1.5185   -0.7232 C.ar    1  UNL1        0.1201
      4 C           6.0785    2.0946   -1.1608 C.ar    1  UNL1       -0.0193
      5 C           6.0658    3.1924   -2.0399 C.ar    1  UNL1       -0.0490
      6 C           4.8664    3.7525   -2.4926 C.ar    1  UNL1        0.0026
      7 C           3.6724    3.1487   -2.0339 C.ar    1  UNL1       -0.0490
      8 C           3.6801    2.0447   -1.1778 C.ar    1  UNL1       -0.0193
      9 C           4.7647    4.8456   -3.4794 C.ar    1  UNL1        0.0957
     10 C           5.6967    5.1546   -4.4793 C.ar    1  UNL1        0.0738
     11 N           6.7506    6.0777   -4.4541 N.ar    1  UNL1       -0.3525
     12 C           6.8347    6.7051   -5.6873 C.ar    1  UNL1        0.0475
     13 C           6.2336    5.8519   -6.6088 C.ar    1  UNL1        0.0075
     14 C           6.2237    6.1841   -7.9786 C.ar    1  UNL1       -0.0520
     15 C           6.6204    7.4661   -8.3542 C.ar    1  UNL1       -0.0611
     16 C           7.0670    8.3729   -7.3944 C.ar    1  UNL1       -0.0598
     17 C           7.2435    7.9954   -6.0533 C.ar    1  UNL1       -0.0378
     18 C           5.2532    5.1847   -5.8103 C.ar    1  UNL1        0.0117
     19 C           3.8694    5.0956   -6.0819 C.ar    1  UNL1       -0.0214
     20 C           3.2032    5.6452   -4.9984 C.ar    1  UNL1        0.1267
     21 N           3.5304    5.3829   -3.7115 N.ar    1  UNL1       -0.2400
     22 C           2.6128    7.0322   -5.2265 C.2     1  UNL1        0.2627
     23 O           2.6597    7.5754   -6.3254 O.2     1  UNL1       -0.2685
     24 N           2.1790    7.6542   -4.0757 N.am    1  UNL1       -0.3060
     25 C           2.0750    9.1013   -3.9847 C.3     1  UNL1        0.0372
     26 C           0.7577    9.5698   -3.4246 C.ar    1  UNL1       -0.0303
     27 C           0.1491    8.9261   -2.3370 C.ar    1  UNL1       -0.0571
     28 C          -1.0641    9.3893   -1.8213 C.ar    1  UNL1       -0.0615
     29 C          -1.6733   10.5124   -2.3742 C.ar    1  UNL1       -0.0617
     30 C          -1.0675   11.1810   -3.4355 C.ar    1  UNL1       -0.0615
     31 C           0.1435   10.7162   -3.9537 C.ar    1  UNL1       -0.0571
     32 H           6.6737   -0.3001    0.3494 H       1  UNL1        0.0660
     33 H           6.1837    1.0048    1.5005 H       1  UNL1        0.0660
     34 H           5.5256   -0.6291    1.6518 H       1  UNL1        0.0660
     35 H           7.0350    1.6768   -0.8571 H       1  UNL1        0.0654
     36 H           7.0233    3.5864   -2.3835 H       1  UNL1        0.0625
     37 H           2.7066    3.5119   -2.3776 H       1  UNL1        0.0625
     38 H           2.7379    1.5957   -0.8751 H       1  UNL1        0.0654
     39 H           7.0815    6.5036   -3.5985 H       1  UNL1        0.1660
     40 H           5.7368    5.5319   -8.6993 H       1  UNL1        0.0624
     41 H           6.4813    7.7824   -9.3854 H       1  UNL1        0.0618
     42 H           7.2433    9.4051   -7.6916 H       1  UNL1        0.0618
     43 H           7.5519    8.7286   -5.3144 H       1  UNL1        0.0638
     44 H           3.5393    5.3358   -7.0897 H       1  UNL1        0.0647
     45 H           2.3396    7.1334   -3.2222 H       1  UNL1        0.1494
     46 H           2.8785    9.4375   -3.3229 H       1  UNL1        0.0512
     47 H           2.2570    9.5503   -4.9679 H       1  UNL1        0.0512
     48 H           0.6094    8.0504   -1.8864 H       1  UNL1        0.0621
     49 H          -1.5328    8.8673   -0.9928 H       1  UNL1        0.0618
     50 H          -2.6204   10.8672   -1.9771 H       1  UNL1        0.0618
     51 H          -1.5388   12.0616   -3.8637 H       1  UNL1        0.0618
     52 H           0.6024   11.2530   -4.7817 H       1  UNL1        0.0621
@<TRIPOS>BOND
     1     1    32    1
     2     1    33    1
     3     1    34    1
     4     2     1    1
     5     3     2    1
     6     4     3   ar
     7     4    35    1
     8     5     4   ar
     9     5    36    1
    10     6     5   ar
    11     7     6   ar
    12     7    37    1
    13     8     7   ar
    14     8     3   ar
    15     8    38    1
    16     9     6    1
    17    10     9   ar
    18    11    10   ar
    19    11    39    1
    20    12    11   ar
    21    13    12   ar
    22    14    13   ar
    23    14    40    1
    24    15    14   ar
    25    15    41    1
    26    16    15   ar
    27    16    42    1
    28    17    16   ar
    29    17    12   ar
    30    17    43    1
    31    18    13   ar
    32    18    10   ar
    33    19    18   ar
    34    19    44    1
    35    20    19   ar
    36    21    20   ar
    37    21     9   ar
    38    22    20    1
    39    23    22    2
    40    24    22   am
    41    24    45    1
    42    25    24    1
    43    25    46    1
    44    25    47    1
    45    26    25    1
    46    27    26   ar
    47    27    48    1
    48    28    27   ar
    49    28    49    1
    50    29    28   ar
    51    29    50    1
    52    30    29   ar
    53    30    51    1
    54    31    30   ar
    55    31    26   ar
    56    31    52    1
