@<TRIPOS>MOLECULE
mol_5_akc_1573406417666210216154428
>5.sdf
 34 35 0 0 0
SMALL
GASTEIGER

@<TRIPOS>ATOM
      1 N           1.1960   -0.0877   -0.2408 N.pl3   1  UNL1       -0.2925
      2 C           2.4865   -0.1979   -0.3129 C.cat   1  UNL1        0.3349
      3 N           3.0308   -1.1283    0.2853 N.pl3   1  UNL1       -0.3928
      4 N           3.2958    0.5984   -0.9797 N.pl3   1  UNL1       -0.1600
      5 N           4.7178    0.4605   -0.9924 N.2     1  UNL1       -0.1194
      6 C           5.3092    1.3904   -1.6860 C.2     1  UNL1        0.0703
      7 C           6.7842    1.4815   -1.7424 C.ar    1  UNL1        0.0037
      8 C           7.4886    0.2617   -1.7804 C.ar    1  UNL1       -0.0525
      9 C           8.8740    0.2540   -1.8964 C.ar    1  UNL1       -0.0611
     10 C           9.5587    1.4579   -1.9678 C.ar    1  UNL1       -0.0611
     11 C           8.8615    2.6698   -1.9005 C.ar    1  UNL1       -0.0534
     12 C           7.4549    2.7294   -1.7818 C.ar    1  UNL1       -0.0092
     13 C           6.7873    4.0623   -1.6791 C.ar    1  UNL1       -0.0173
     14 C           7.2859    5.1824   -2.3771 C.ar    1  UNL1       -0.0540
     15 C           6.6848    6.4427   -2.2795 C.ar    1  UNL1       -0.0612
     16 C           5.5427    6.6144   -1.5080 C.ar    1  UNL1       -0.0617
     17 C           5.0298    5.5363   -0.7979 C.ar    1  UNL1       -0.0612
     18 C           5.6656    4.2899   -0.8557 C.ar    1  UNL1       -0.0540
     19 H           0.5710   -0.7089    0.2644 H       1  UNL1        0.2545
     20 H           0.7041    0.6711   -0.7098 H       1  UNL1        0.2545
     21 H           3.9147   -0.7661    0.6363 H       1  UNL1        0.2155
     22 H           2.8616    1.3763   -1.4875 H       1  UNL1        0.2920
     23 H           4.7398    2.1630   -2.2321 H       1  UNL1        0.0867
     24 H           6.9747   -0.6948   -1.7536 H       1  UNL1        0.0624
     25 H           9.4238   -0.6841   -1.9436 H       1  UNL1        0.0618
     26 H          10.6432    1.4633   -2.0720 H       1  UNL1        0.0618
     27 H           9.4580    3.5823   -1.9288 H       1  UNL1        0.0624
     28 H           8.1699    5.1037   -3.0084 H       1  UNL1        0.0624
     29 H           7.1181    7.2930   -2.8030 H       1  UNL1        0.0618
     30 H           5.0730    7.5936   -1.4422 H       1  UNL1        0.0618
     31 H           4.1521    5.6809   -0.1733 H       1  UNL1        0.0618
     32 H           5.2783    3.5101   -0.2112 H       1  UNL1        0.0624
     33 H           2.5025   -1.6075    0.9851 H       1  UNL1        0.2155
     34 H           3.3692   -1.7682   -0.4187 H       1  UNL1        0.2155
@<TRIPOS>BOND
     1     1    19    1
     2     1    20    1
     3     2     1    1
     4     3     2    2
     5     3    21    1
     6     3    33    1
     7     4     2    1
     8     4    22    1
     9     5     4    1
    10     6     5    2
    11     6    23    1
    12     7     6    1
    13     8     7   ar
    14     8    24    1
    15     9     8   ar
    16     9    25    1
    17    10     9   ar
    18    10    26    1
    19    11    10   ar
    20    11    27    1
    21    12    11   ar
    22    12     7   ar
    23    13    12    1
    24    14    13   ar
    25    14    28    1
    26    15    14   ar
    27    15    29    1
    28    16    15   ar
    29    16    30    1
    30    17    16   ar
    31    17    31    1
    32    18    17   ar
    33    18    13   ar
    34    18    32    1
    35     3    34    1
