@<TRIPOS>MOLECULE
mol_601_akc_jbmc200808024
>582.sdf
 83 86 0 0 0
SMALL
GASTEIGER

@<TRIPOS>ATOM
      1 C           8.6568    5.0498    0.7707 C.3     1  UNL1       -0.0411
      2 C           7.9983    3.8995    0.0395 C.3     1  UNL1        0.0541
      3 O           8.0301    4.1579   -1.3595 O.3     1  UNL1       -0.3076
      4 P           7.3264    2.9293   -2.3536 P.3     1  UNL1        0.3474
      5 O           5.9853    3.1409   -1.6509 O.2     1  UNL1       -0.2575
      6 O           7.8548    3.7870   -3.6492 O.3     1  UNL1       -0.3076
      7 C           9.2724    3.6934   -3.8252 C.3     1  UNL1        0.0541
      8 C           9.7420    4.3409   -5.0993 C.3     1  UNL1       -0.0411
      9 C           6.5820    1.6297   -3.4052 C.3     1  UNL1        0.1621
     10 C           6.7441    0.2983   -2.6463 C.3     1  UNL1       -0.0280
     11 C           6.3422   -1.0005   -3.3498 C.3     1  UNL1       -0.0516
     12 C           7.2077   -1.4225   -4.5502 C.3     1  UNL1       -0.0514
     13 C           6.7730   -2.8141   -5.0424 C.3     1  UNL1       -0.0349
     14 C           7.3669   -3.2118   -6.4005 C.3     1  UNL1        0.0239
     15 N           6.9147   -4.5416   -6.8169 N.ar    1  UNL1       -0.3396
     16 C           7.6481   -5.7039   -6.6120 C.ar    1  UNL1        0.0498
     17 C           9.0084   -5.9198   -6.3335 C.ar    1  UNL1       -0.0376
     18 C           9.4148   -7.2149   -5.9912 C.ar    1  UNL1       -0.0598
     19 C           8.4962   -8.2555   -5.9028 C.ar    1  UNL1       -0.0611
     20 C           7.1615   -8.0478   -6.2553 C.ar    1  UNL1       -0.0523
     21 C           6.7426   -6.7646   -6.6609 C.ar    1  UNL1        0.0037
     22 C           5.5278   -6.2468   -7.1797 C.ar    1  UNL1       -0.0134
     23 C           5.6440   -4.8663   -7.2646 C.ar    1  UNL1        0.0544
     24 C           4.5723   -3.9474   -7.6724 C.ar    1  UNL1        0.0122
     25 C           4.8374   -2.9584   -8.6410 C.ar    1  UNL1       -0.0516
     26 C           3.8322   -2.1078   -9.0973 C.ar    1  UNL1       -0.0611
     27 C           2.5315   -2.2513   -8.6272 C.ar    1  UNL1       -0.0607
     28 C           2.2409   -3.2397   -7.6880 C.ar    1  UNL1       -0.0477
     29 C           3.2436   -4.0986   -7.2060 C.ar    1  UNL1        0.0170
     30 S           2.7346   -5.2256   -5.8964 S.3     1  UNL1       -0.1242
     31 C           3.1996   -6.8972   -6.5139 C.3     1  UNL1        0.0024
     32 C           4.3006   -7.0034   -7.5587 C.3     1  UNL1       -0.0157
     33 P           4.8663    2.1002   -3.8338 P.3     1  UNL1        0.3474
     34 O           5.2585    3.5877   -3.8976 O.2     1  UNL1       -0.2575
     35 O           5.2404    1.7591   -5.3959 O.3     1  UNL1       -0.3076
     36 C           4.6838    0.8859   -6.3271 C.3     1  UNL1        0.0541
     37 C           5.0418    1.4792   -7.6849 C.3     1  UNL1       -0.0411
     38 O           3.2443    2.5451   -4.2389 O.3     1  UNL1       -0.3076
     39 C           2.7379    3.8118   -3.8295 C.3     1  UNL1        0.0541
     40 C           1.2922    3.9219   -4.2595 C.3     1  UNL1       -0.0411
     41 H           8.6215    4.8930    1.8535 H       1  UNL1        0.0252
     42 H           9.7001    5.1587    0.4626 H       1  UNL1        0.0252
     43 H           8.1515    5.9945    0.5369 H       1  UNL1        0.0252
     44 H           8.5246    2.9640    0.2432 H       1  UNL1        0.0562
     45 H           6.9611    3.8081    0.3934 H       1  UNL1        0.0562
     46 H           9.7834    4.1744   -2.9772 H       1  UNL1        0.0562
     47 H           9.5643    2.6320   -3.8147 H       1  UNL1        0.0562
     48 H           9.3131    3.8473   -5.9717 H       1  UNL1        0.0252
     49 H           9.4554    5.3959   -5.1326 H       1  UNL1        0.0252
     50 H          10.8376    4.2810   -5.1688 H       1  UNL1        0.0252
     51 H           7.2121    1.5630   -4.3008 H       1  UNL1        0.0549
     52 H           7.7905    0.2075   -2.3291 H       1  UNL1        0.0279
     53 H           6.1619    0.3648   -1.7183 H       1  UNL1        0.0279
     54 H           6.4174   -1.8017   -2.5977 H       1  UNL1        0.0266
     55 H           5.2925   -0.9490   -3.6430 H       1  UNL1        0.0266
     56 H           7.1151   -0.6900   -5.3563 H       1  UNL1        0.0266
     57 H           8.2662   -1.4536   -4.2664 H       1  UNL1        0.0266
     58 H           7.0572   -3.5634   -4.2900 H       1  UNL1        0.0282
     59 H           5.6782   -2.8481   -5.1039 H       1  UNL1        0.0282
     60 H           7.0919   -2.4973   -7.1790 H       1  UNL1        0.0492
     61 H           8.4590   -3.2204   -6.3527 H       1  UNL1        0.0492
     62 H           9.7358   -5.1173   -6.3844 H       1  UNL1        0.0638
     63 H          10.4624   -7.4078   -5.7732 H       1  UNL1        0.0618
     64 H           8.8180   -9.2415   -5.5780 H       1  UNL1        0.0618
     65 H           6.4527   -8.8694   -6.2094 H       1  UNL1        0.0624
     66 H           5.8365   -2.8594   -9.0606 H       1  UNL1        0.0624
     67 H           4.0593   -1.3491   -9.8430 H       1  UNL1        0.0618
     68 H           1.7435   -1.5972   -8.9915 H       1  UNL1        0.0618
     69 H           1.2180   -3.3330   -7.3282 H       1  UNL1        0.0629
     70 H           3.4963   -7.4698   -5.6267 H       1  UNL1        0.0383
     71 H           2.2932   -7.3755   -6.9018 H       1  UNL1        0.0383
     72 H           4.5457   -8.0610   -7.7178 H       1  UNL1        0.0322
     73 H           3.9304   -6.6465   -8.5289 H       1  UNL1        0.0322
     74 H           5.1713   -0.0870   -6.2211 H       1  UNL1        0.0562
     75 H           3.6062    0.7759   -6.2036 H       1  UNL1        0.0562
     76 H           4.3308    2.2663   -7.9588 H       1  UNL1        0.0252
     77 H           6.0329    1.9625   -7.6728 H       1  UNL1        0.0252
     78 H           5.0423    0.7263   -8.4765 H       1  UNL1        0.0252
     79 H           2.8257    3.9043   -2.7513 H       1  UNL1        0.0562
     80 H           3.2861    4.6220   -4.3200 H       1  UNL1        0.0562
     81 H           1.1988    3.8057   -5.3401 H       1  UNL1        0.0252
     82 H           0.6834    3.1378   -3.7983 H       1  UNL1        0.0252
     83 H           0.8785    4.8980   -3.9748 H       1  UNL1        0.0252
@<TRIPOS>BOND
     1     1    41    1
     2     1    42    1
     3     1    43    1
     4     2     1    1
     5     2    44    1
     6     2    45    1
     7     3     2    1
     8     4     3    1
     9     5     4    2
    10     6     4    1
    11     7     6    1
    12     7    46    1
    13     7    47    1
    14     8     7    1
    15     8    48    1
    16     8    49    1
    17     8    50    1
    18     9     4    1
    19     9    51    1
    20    10     9    1
    21    10    52    1
    22    10    53    1
    23    11    10    1
    24    11    54    1
    25    11    55    1
    26    12    11    1
    27    12    56    1
    28    12    57    1
    29    13    12    1
    30    13    58    1
    31    13    59    1
    32    14    13    1
    33    14    60    1
    34    14    61    1
    35    15    14    1
    36    16    15   ar
    37    17    16   ar
    38    17    62    1
    39    18    17   ar
    40    18    63    1
    41    19    18   ar
    42    19    64    1
    43    20    19   ar
    44    20    65    1
    45    21    20   ar
    46    21    16   ar
    47    22    21   ar
    48    23    22   ar
    49    23    15   ar
    50    24    23    1
    51    25    24   ar
    52    25    66    1
    53    26    25   ar
    54    26    67    1
    55    27    26   ar
    56    27    68    1
    57    28    27   ar
    58    28    69    1
    59    29    28   ar
    60    29    24   ar
    61    30    29    1
    62    31    30    1
    63    31    70    1
    64    31    71    1
    65    32    31    1
    66    32    22    1
    67    32    72    1
    68    32    73    1
    69    33     9    1
    70    34    33    2
    71    35    33    1
    72    36    35    1
    73    36    74    1
    74    36    75    1
    75    37    36    1
    76    37    76    1
    77    37    77    1
    78    37    78    1
    79    38    33    1
    80    39    38    1
    81    39    79    1
    82    39    80    1
    83    40    39    1
    84    40    81    1
    85    40    82    1
    86    40    83    1
