@<TRIPOS>MOLECULE
mol_602_akc_jbmc200807077
>583.sdf
 34 35 0 0 0
SMALL
GASTEIGER

@<TRIPOS>ATOM
      1 C           1.0837    0.9942   -0.2250 C.3     1  UNL1       -0.0416
      2 C           2.5916    0.8951   -0.1110 C.3     1  UNL1        0.0449
      3 O           3.1361    0.5997   -1.3986 O.3     1  UNL1       -0.3784
      4 C           4.5607    0.5063   -1.3462 C.3     1  UNL1        0.0676
      5 C           5.0832    0.2644   -2.7480 C.3     1  UNL1        0.1006
      6 S           6.8367    0.0086   -2.6918 S.O2    1  UNL1        0.0634
      7 O           7.5016    1.2382   -2.3315 O.2     1  UNL1       -0.1637
      8 O           7.1254   -1.2121   -1.9780 O.2     1  UNL1       -0.1637
      9 C           7.2893   -0.2951   -4.2861 C.ar    1  UNL1        0.4118
     10 N           7.5516    0.7057   -5.1164 N.ar    1  UNL1        0.0781
     11 O           7.3820    1.9443   -5.1088 O.co2   1  UNL1       -0.5761
     12 O           7.9307    0.1446   -6.3716 O.2     1  UNL1       -0.0968
     13 N           7.8575   -1.2291   -6.2532 N.ar    1  UNL1       -0.0004
     14 C           7.4358   -1.5049   -5.0072 C.ar    1  UNL1        0.2127
     15 C           7.1852   -2.9097   -4.6529 C.ar    1  UNL1        0.0120
     16 C           7.9721   -3.9249   -5.2226 C.ar    1  UNL1       -0.0522
     17 C           7.7277   -5.2726   -4.9384 C.ar    1  UNL1       -0.0611
     18 C           6.6964   -5.6261   -4.0736 C.ar    1  UNL1       -0.0617
     19 C           5.8986   -4.6380   -3.5089 C.ar    1  UNL1       -0.0611
     20 C           6.1322   -3.2934   -3.8123 C.ar    1  UNL1       -0.0522
     21 H           0.6386    1.2504    0.7407 H       1  UNL1        0.0252
     22 H           0.8003    1.7563   -0.9582 H       1  UNL1        0.0252
     23 H           0.6587    0.0456   -0.5682 H       1  UNL1        0.0252
     24 H           2.9976    1.8470    0.2481 H       1  UNL1        0.0557
     25 H           2.8605    0.1010    0.5943 H       1  UNL1        0.0557
     26 H           4.9782    1.4360   -0.9420 H       1  UNL1        0.0576
     27 H           4.8404   -0.3192   -0.6803 H       1  UNL1        0.0576
     28 H           4.6011   -0.6119   -3.1869 H       1  UNL1        0.0529
     29 H           4.8672    1.1191   -3.3980 H       1  UNL1        0.0529
     30 H           8.7825   -3.6791   -5.9075 H       1  UNL1        0.0624
     31 H           8.3423   -6.0435   -5.3954 H       1  UNL1        0.0618
     32 H           6.5109   -6.6721   -3.8460 H       1  UNL1        0.0618
     33 H           5.0908   -4.9087   -2.8343 H       1  UNL1        0.0618
     34 H           5.4608   -2.5727   -3.3689 H       1  UNL1        0.0624
@<TRIPOS>UNITY_ATOM_ATTR
10 1
charge 1
11 1
charge -1
@<TRIPOS>BOND
     1     1    21    1
     2     1    22    1
     3     1    23    1
     4     2     1    1
     5     2    24    1
     6     2    25    1
     7     3     2    1
     8     4     3    1
     9     4    26    1
    10     4    27    1
    11     5     4    1
    12     5    28    1
    13     5    29    1
    14     6     5    1
    15     7     6    2
    16     8     6    2
    17     9     6    1
    18    10     9   ar
    19    11    10    1
    20    12    10   ar
    21    13    12   ar
    22    14    13   ar
    23    14     9   ar
    24    15    14    1
    25    16    15   ar
    26    16    30    1
    27    17    16   ar
    28    17    31    1
    29    18    17   ar
    30    18    32    1
    31    19    18   ar
    32    19    33    1
    33    20    19   ar
    34    20    15   ar
    35    20    34    1
