@<TRIPOS>MOLECULE
mol_603_akc_14756360701585619
>585.sdf
 48 51 0 0 0
SMALL
GASTEIGER

@<TRIPOS>ATOM
      1 C          -0.8769   -2.1173   -2.3105 C.3     1  UNL1        0.0788
      2 O           0.4492   -1.8176   -1.8919 O.3     1  UNL1       -0.4951
      3 C           1.1732   -2.8358   -1.3415 C.ar    1  UNL1        0.1201
      4 C           0.7361   -4.1414   -1.1375 C.ar    1  UNL1       -0.0194
      5 C           1.6021   -5.0946   -0.5865 C.ar    1  UNL1       -0.0511
      6 C           2.9194   -4.7608   -0.2353 C.ar    1  UNL1       -0.0246
      7 C           3.7955   -5.8246    0.2840 C.2     1  UNL1       -0.0477
      8 C           5.1381   -5.7639    0.3208 C.2     1  UNL1        0.0207
      9 C           5.8772   -6.9047    0.7070 C.ar    1  UNL1        0.2824
     10 N           6.1383   -7.9963   -0.0022 N.ar    1  UNL1       -0.0351
     11 N           6.6234   -9.0896    0.6955 N.ar    1  UNL1        0.0330
     12 C           6.8817   -8.7537    1.9437 C.ar    1  UNL1        0.2354
     13 N           7.4289   -9.5312    2.9030 N.pl3   1  UNL1       -0.2890
     14 C           7.4263  -10.9388    2.9543 C.ar    1  UNL1        0.0329
     15 C           8.4424  -11.5858    3.6744 C.ar    1  UNL1       -0.0405
     16 C           8.5126  -12.9805    3.7244 C.ar    1  UNL1       -0.0600
     17 C           7.5650  -13.7497    3.0560 C.ar    1  UNL1       -0.0616
     18 C           6.5549  -13.1261    2.3311 C.ar    1  UNL1       -0.0600
     19 C           6.4949  -11.7308    2.2691 C.ar    1  UNL1       -0.0405
     20 S           6.4928   -7.1045    2.2962 S.2     1  UNL1        0.0230
     21 C           5.9294   -8.1355   -1.4564 C.ar    1  UNL1        0.2413
     22 C           6.0590   -7.0420   -2.3176 C.ar    1  UNL1        0.0126
     23 C           5.8539   -7.2186   -3.6864 C.ar    1  UNL1       -0.0555
     24 C           5.5361   -8.4820   -4.1858 C.ar    1  UNL1       -0.0613
     25 C           5.4461   -9.5777   -3.3248 C.ar    1  UNL1       -0.0555
     26 C           5.6567   -9.4109   -1.9530 C.ar    1  UNL1        0.0126
     27 C           3.3349   -3.4357   -0.4069 C.ar    1  UNL1       -0.0511
     28 C           2.4701   -2.4892   -0.9631 C.ar    1  UNL1       -0.0194
     29 H          -0.8843   -2.8996   -3.0767 H       1  UNL1        0.0660
     30 H          -1.5030   -2.3943   -1.4561 H       1  UNL1        0.0660
     31 H          -1.2992   -1.2116   -2.7563 H       1  UNL1        0.0660
     32 H          -0.2702   -4.4537   -1.4010 H       1  UNL1        0.0654
     33 H           1.2264   -6.1071   -0.4513 H       1  UNL1        0.0625
     34 H           3.2699   -6.7235    0.6096 H       1  UNL1        0.0626
     35 H           5.6874   -4.8795    0.0141 H       1  UNL1        0.0690
     36 H           7.7406   -9.1057    3.7719 H       1  UNL1        0.1542
     37 H           9.2045  -11.0110    4.1955 H       1  UNL1        0.0636
     38 H           9.3092  -13.4664    4.2834 H       1  UNL1        0.0618
     39 H           7.6149  -14.8354    3.1016 H       1  UNL1        0.0618
     40 H           5.8076  -13.7273    1.8179 H       1  UNL1        0.0618
     41 H           5.6785  -11.2836    1.7120 H       1  UNL1        0.0636
     42 H           6.3591   -6.0568   -1.9802 H       1  UNL1        0.0684
     43 H           5.9515   -6.3777   -4.3714 H       1  UNL1        0.0620
     44 H           5.3725   -8.6161   -5.2551 H       1  UNL1        0.0618
     45 H           5.2119  -10.5613   -3.7299 H       1  UNL1        0.0620
     46 H           5.5838  -10.2756   -1.3005 H       1  UNL1        0.0684
     47 H           4.3269   -3.1016   -0.1192 H       1  UNL1        0.0625
     48 H           2.8117   -1.4654   -1.1064 H       1  UNL1        0.0654
@<TRIPOS>UNITY_ATOM_ATTR
10 1
charge 1
@<TRIPOS>BOND
     1     1    29    1
     2     1    30    1
     3     1    31    1
     4     2     1    1
     5     3     2    1
     6     4     3   ar
     7     4    32    1
     8     5     4   ar
     9     5    33    1
    10     6     5   ar
    11     7     6    1
    12     7    34    1
    13     8     7    2
    14     8    35    1
    15     9     8    1
    16    10     9   ar
    17    11    10   ar
    18    12    11   ar
    19    13    12    1
    20    13    36    1
    21    14    13    1
    22    15    14   ar
    23    15    37    1
    24    16    15   ar
    25    16    38    1
    26    17    16   ar
    27    17    39    1
    28    18    17   ar
    29    18    40    1
    30    19    18   ar
    31    19    14   ar
    32    19    41    1
    33    20    12   ar
    34    20     9   ar
    35    21    10    1
    36    22    21   ar
    37    22    42    1
    38    23    22   ar
    39    23    43    1
    40    24    23   ar
    41    24    44    1
    42    25    24   ar
    43    25    45    1
    44    26    25   ar
    45    26    21   ar
    46    26    46    1
    47    27     6   ar
    48    27    47    1
    49    28    27   ar
    50    28     3   ar
    51    28    48    1
