@<TRIPOS>MOLECULE
mol_604_akc_jacdkn046
>586.sdf
 38 40 0 0 0
SMALL
GASTEIGER

@<TRIPOS>ATOM
      1 C           5.5153   -0.2550    0.6406 C.3     1  UNL1       -0.0443
      2 N           4.5232    0.5162    1.4340 N.4     1  UNL1        0.2303
      3 C           3.0680    0.1410    1.2513 C.3     1  UNL1        0.0032
      4 C           2.8908   -1.3076    1.7404 C.3     1  UNL1       -0.0045
      5 C           1.4567   -1.6198    2.1520 C.3     1  UNL1       -0.0367
      6 C           0.9598   -0.6786    3.2630 C.3     1  UNL1        0.0099
      7 C           1.5246   -1.0411    4.6344 C.ar    1  UNL1       -0.0385
      8 C           0.8234   -1.9366    5.4570 C.ar    1  UNL1       -0.0565
      9 C           1.3095   -2.2739    6.7248 C.ar    1  UNL1       -0.0417
     10 C           2.5109   -1.7346    7.1893 C.ar    1  UNL1        0.0593
     11 CL          3.0572   -2.1976    8.7586 Cl      1  UNL1       -0.0820
     12 C           3.2241   -0.8483    6.3812 C.ar    1  UNL1        0.0595
     13 CL          4.7278   -0.1443    6.8578 Cl      1  UNL1       -0.0820
     14 C           2.7275   -0.5018    5.1189 C.ar    1  UNL1       -0.0382
     15 C           1.1937    0.7758    2.8799 C.ar    1  UNL1       -0.0315
     16 C           0.4128    1.7602    3.5131 C.ar    1  UNL1       -0.0575
     17 C           0.5671    3.1061    3.1967 C.ar    1  UNL1       -0.0615
     18 C           1.4872    3.4853    2.2282 C.ar    1  UNL1       -0.0613
     19 C           2.2703    2.5206    1.5924 C.ar    1  UNL1       -0.0530
     20 C           2.1668    1.1570    1.9317 C.ar    1  UNL1        0.0038
     21 H           6.4762    0.2553    0.7420 H       1  UNL1        0.0777
     22 H           5.5823   -1.2649    1.0502 H       1  UNL1        0.0777
     23 H           5.1962   -0.2637   -0.4036 H       1  UNL1        0.0777
     24 H           4.7565    0.4606    2.4336 H       1  UNL1        0.2017
     25 H           4.6336    1.5078    1.1959 H       1  UNL1        0.2017
     26 H           2.8667    0.1881    0.1732 H       1  UNL1        0.0903
     27 H           3.5588   -1.5247    2.5824 H       1  UNL1        0.0324
     28 H           3.1887   -1.9962    0.9387 H       1  UNL1        0.0324
     29 H           0.8105   -1.5135    1.2700 H       1  UNL1        0.0276
     30 H           1.3833   -2.6673    2.4689 H       1  UNL1        0.0276
     31 H          -0.1312   -0.8144    3.3111 H       1  UNL1        0.0397
     32 H          -0.1201   -2.3712    5.1278 H       1  UNL1        0.0621
     33 H           0.7394   -2.9579    7.3515 H       1  UNL1        0.0633
     34 H           3.2866    0.2168    4.5286 H       1  UNL1        0.0635
     35 H          -0.3279    1.4803    4.2621 H       1  UNL1        0.0621
     36 H          -0.0428    3.8560    3.6963 H       1  UNL1        0.0618
     37 H           1.5851    4.5371    1.9639 H       1  UNL1        0.0618
     38 H           2.9497    2.8661    0.8141 H       1  UNL1        0.0622
@<TRIPOS>UNITY_ATOM_ATTR
2 1
charge 1
@<TRIPOS>BOND
     1     1    21    1
     2     1    22    1
     3     1    23    1
     4     2     1    1
     5     2    24    1
     6     2    25    1
     7     4     3    1
     8     4    27    1
     9     4    28    1
    10     5     4    1
    11     5    29    1
    12     5    30    1
    13     6     5    1
    14     6    31    1
    15     7     6    1
    16     8     7   ar
    17     8    32    1
    18     9     8   ar
    19     9    33    1
    20    10     9   ar
    21    11    10    1
    22    12    10   ar
    23    13    12    1
    24    14    12   ar
    25    14     7   ar
    26    14    34    1
    27    15     6    1
    28    16    15   ar
    29    16    35    1
    30    17    16   ar
    31    17    36    1
    32    18    17   ar
    33    18    37    1
    34    19    18   ar
    35    19    38    1
    36    20    19   ar
    37    20     3    1
    38    20    15   ar
    39     3    26    1
    40     3     2    1
