@<TRIPOS>MOLECULE
mol_606_akc_jbmc200802052
>588.sdf
 39 42 0 0 0
SMALL
GASTEIGER

@<TRIPOS>ATOM
      1 CL          0.9078    0.0586   -3.1071 Cl      1  UNL1       -0.0758
      2 C          -0.7025   -0.1256   -2.5407 C.ar    1  UNL1        0.0787
      3 C          -1.8435   -0.0689   -3.2962 C.ar    1  UNL1       -0.0355
      4 C          -3.0003   -0.2773   -2.4879 C.ar    1  UNL1       -0.0411
      5 C          -2.6922   -0.3734   -1.1402 C.ar    1  UNL1        0.0754
      6 S          -0.9912   -0.4026   -0.8978 S.2     1  UNL1       -0.0722
      7 C          -3.5666   -0.4566    0.0252 C.2     1  UNL1        0.2534
      8 O          -3.4045   -1.3065    0.8990 O.2     1  UNL1       -0.2694
      9 N          -4.5875    0.4965    0.1393 N.am    1  UNL1       -0.2941
     10 C          -4.8944    1.5312   -0.8589 C.3     1  UNL1        0.0308
     11 C          -5.3265    2.8587   -0.2268 C.3     1  UNL1        0.0299
     12 N          -6.4040    2.6117    0.7270 N.pl3   1  UNL1       -0.3052
     13 C          -6.0383    1.6968    1.8147 C.3     1  UNL1        0.0299
     14 C          -5.5887    0.3448    1.2126 C.3     1  UNL1        0.0308
     15 C          -7.4475    3.4731    0.8728 C.ar    1  UNL1        0.1846
     16 N          -8.1211    3.6857    1.9881 N.ar    1  UNL1       -0.1254
     17 N          -9.2041    4.5322    1.8224 N.ar    1  UNL1       -0.1364
     18 C          -9.3399    4.9064    0.5704 C.ar    1  UNL1        0.1687
     19 S          -8.1184    4.3379   -0.4713 S.2     1  UNL1       -0.0276
     20 C         -10.4359    5.6934    0.0859 C.ar    1  UNL1        0.1645
     21 C         -11.4982    6.2353    0.8012 C.ar    1  UNL1       -0.0114
     22 C         -12.3520    6.8865   -0.1251 C.ar    1  UNL1        0.0086
     23 C         -11.7581    6.7084   -1.3501 C.ar    1  UNL1        0.2803
     24 O         -10.6032    6.0044   -1.2443 O.2     1  UNL1       -0.4318
     25 N         -12.1350    7.1092   -2.6671 N.pl3   1  UNL1        0.0926
     26 O         -13.2015    7.7283   -2.7640 O.2     1  UNL1       -0.1231
     27 O         -11.3814    6.8145   -3.6006 O.2     1  UNL1       -0.1231
     28 H          -1.8557    0.1072   -4.3647 H       1  UNL1        0.0638
     29 H          -4.0141   -0.2901   -2.8731 H       1  UNL1        0.0631
     30 H          -4.0348    1.7470   -1.4933 H       1  UNL1        0.0480
     31 H          -5.7002    1.1332   -1.4878 H       1  UNL1        0.0480
     32 H          -4.4759    3.3109    0.2987 H       1  UNL1        0.0480
     33 H          -5.5990    3.5439   -1.0351 H       1  UNL1        0.0480
     34 H          -5.2162    2.1336    2.3959 H       1  UNL1        0.0480
     35 H          -6.8726    1.5139    2.5018 H       1  UNL1        0.0480
     36 H          -6.4533   -0.1558    0.7581 H       1  UNL1        0.0480
     37 H          -5.2174   -0.3058    2.0105 H       1  UNL1        0.0480
     38 H         -11.6355    6.1473    1.8710 H       1  UNL1        0.0657
     39 H         -13.2802    7.4074    0.0733 H       1  UNL1        0.0673
@<TRIPOS>BOND
     1     2     1    1
     2     3     2   ar
     3     3    28    1
     4     4     3   ar
     5     4    29    1
     6     5     4   ar
     7     6     5   ar
     8     6     2   ar
     9     7     5    1
    10     8     7    2
    11     9     7   am
    12    10     9    1
    13    10    30    1
    14    10    31    1
    15    11    10    1
    16    11    32    1
    17    11    33    1
    18    12    11    1
    19    13    12    1
    20    13    34    1
    21    13    35    1
    22    14    13    1
    23    14     9    1
    24    14    36    1
    25    14    37    1
    26    15    12    1
    27    16    15   ar
    28    17    16   ar
    29    18    17   ar
    30    19    18   ar
    31    19    15   ar
    32    20    18    1
    33    21    20   ar
    34    21    38    1
    35    22    21   ar
    36    22    39    1
    37    23    22   ar
    38    24    23   ar
    39    24    20   ar
    40    25    23    1
    41    26    25    2
    42    27    25    2
