@<TRIPOS>MOLECULE
mol_608_akc_qua21355
>590.sdf
 47 48 0 0 0
SMALL
GASTEIGER

@<TRIPOS>ATOM
      1 C           5.9870    1.5963   -3.2459 C.3     1  UNL1       -0.0646
      2 C           5.5550    0.8769   -1.9768 C.3     1  UNL1       -0.0450
      3 C           6.7152    0.4645   -1.0504 C.3     1  UNL1        0.0325
      4 C           7.5192    1.6745   -0.5665 C.3     1  UNL1       -0.0541
      5 C           6.1593   -0.3212    0.1466 C.2     1  UNL1        0.2164
      6 O           4.9604   -0.4973    0.3377 O.2     1  UNL1       -0.2755
      7 N           7.1203   -0.8561    0.9748 N.am    1  UNL1       -0.3037
      8 C           6.7648   -1.3972    2.2849 C.3     1  UNL1        0.1004
      9 C           7.2307   -2.8339    2.4049 C.3     1  UNL1       -0.0177
     10 C           6.8687   -3.3331    3.7852 C.3     1  UNL1        0.0267
     11 C           7.5312   -2.4994    4.8603 C.2     1  UNL1        0.2219
     12 O           7.9103   -3.0379    5.9003 O.2     1  UNL1       -0.2752
     13 N           7.6431   -1.1304    4.6128 N.am    1  UNL1       -0.2403
     14 C           8.2520   -0.2904    5.6565 C.3     1  UNL1        0.0263
     15 C           7.2753    0.7572    6.2113 C.3     1  UNL1       -0.0113
     16 C           7.8747    1.6116    7.3027 C.ar    1  UNL1       -0.0459
     17 C           8.5767    2.7851    6.9890 C.ar    1  UNL1       -0.0585
     18 C           9.0819    3.6027    8.0011 C.ar    1  UNL1       -0.0615
     19 C           8.9016    3.2503    9.3388 C.ar    1  UNL1       -0.0617
     20 C           8.2297    2.0760    9.6611 C.ar    1  UNL1       -0.0615
     21 C           7.7214    1.2560    8.6496 C.ar    1  UNL1       -0.0585
     22 C           7.4209   -0.5268    3.3703 C.2     1  UNL1        0.2421
     23 O           7.7236    0.6478    3.1410 O.2     1  UNL1       -0.2731
     24 H           5.1153    1.7749   -3.8857 H       1  UNL1        0.0230
     25 H           6.4318    2.5711   -3.0262 H       1  UNL1        0.0230
     26 H           6.7074    1.0012   -3.8127 H       1  UNL1        0.0230
     27 H           4.8485    1.5143   -1.4308 H       1  UNL1        0.0270
     28 H           4.9966   -0.0217   -2.2694 H       1  UNL1        0.0270
     29 H           7.3820   -0.2105   -1.6016 H       1  UNL1        0.0391
     30 H           6.8916    2.3529    0.0211 H       1  UNL1        0.0237
     31 H           8.3606    1.3778    0.0678 H       1  UNL1        0.0237
     32 H           7.9454    2.2347   -1.4037 H       1  UNL1        0.0237
     33 H           8.0691   -0.5196    0.8716 H       1  UNL1        0.1495
     34 H           5.6808   -1.3354    2.4359 H       1  UNL1        0.0595
     35 H           8.3152   -2.9031    2.2473 H       1  UNL1        0.0292
     36 H           6.7527   -3.4574    1.6404 H       1  UNL1        0.0292
     37 H           7.2027   -4.3712    3.8927 H       1  UNL1        0.0359
     38 H           5.7863   -3.3082    3.9508 H       1  UNL1        0.0359
     39 H           8.6249   -0.9100    6.4794 H       1  UNL1        0.0473
     40 H           9.1279    0.2061    5.2207 H       1  UNL1        0.0473
     41 H           6.9158    1.4173    5.4131 H       1  UNL1        0.0329
     42 H           6.3757    0.2565    6.5940 H       1  UNL1        0.0329
     43 H           8.7145    3.0817    5.9506 H       1  UNL1        0.0620
     44 H           9.6063    4.5211    7.7489 H       1  UNL1        0.0618
     45 H           9.2819    3.8960   10.1275 H       1  UNL1        0.0618
     46 H           8.0880    1.7991   10.7035 H       1  UNL1        0.0618
     47 H           7.1888    0.3476    8.9217 H       1  UNL1        0.0620
@<TRIPOS>BOND
     1     1    24    1
     2     1    25    1
     3     1    26    1
     4     2     1    1
     5     2    27    1
     6     2    28    1
     7     3     2    1
     8     3    29    1
     9     4     3    1
    10     4    30    1
    11     4    31    1
    12     4    32    1
    13     5     3    1
    14     6     5    2
    15     7     5   am
    16     7    33    1
    17     9     8    1
    18     9    35    1
    19     9    36    1
    20    10     9    1
    21    10    37    1
    22    10    38    1
    23    11    10    1
    24    12    11    2
    25    13    11   am
    26    14    13    1
    27    14    39    1
    28    14    40    1
    29    15    14    1
    30    15    41    1
    31    15    42    1
    32    16    15    1
    33    17    16   ar
    34    17    43    1
    35    18    17   ar
    36    18    44    1
    37    19    18   ar
    38    19    45    1
    39    20    19   ar
    40    20    46    1
    41    21    20   ar
    42    21    16   ar
    43    21    47    1
    44    22    13   am
    45    22     8    1
    46    23    22    2
    47     8    34    1
    48     8     7    1
