@<TRIPOS>MOLECULE
mol_609_akc_jm701166b
>591.sdf
 84 84 0 0 0
SMALL
GASTEIGER

@<TRIPOS>ATOM
      1 C          14.4497   10.2034   -5.2826 C.3     1  UNL1       -0.0417
      2 N          13.6968    9.5960   -4.0995 N.4     1  UNL1        0.2385
      3 C          13.8005   10.5409   -2.9113 C.3     1  UNL1       -0.0417
      4 C          12.2253    9.4491   -4.4985 C.3     1  UNL1       -0.0417
      5 C          14.3401    8.2232   -3.7963 C.3     1  UNL1       -0.0063
      6 C          13.7496    7.4818   -2.5954 C.3     1  UNL1        0.0989
      7 O          12.3808    7.1729   -2.8138 O.3     1  UNL1       -0.2813
      8 P          11.6870    6.3599   -1.4534 P.3     1  UNL1        0.4751
      9 O          11.3528    7.8051   -0.7672 O.3     1  UNL1       -0.3025
     10 O          10.4502    6.0662   -2.3008 O.2     1  UNL1       -0.2273
     11 O          10.9931    5.5470   -0.0930 O.3     1  UNL1       -0.2867
     12 C          11.2193    4.1474   -0.1724 C.3     1  UNL1        0.0591
     13 C          10.4913    3.4382    0.9561 C.3     1  UNL1       -0.0289
     14 C          10.8804    1.9618    1.0555 C.3     1  UNL1       -0.0510
     15 C          12.3866    1.7015    1.2448 C.3     1  UNL1       -0.0527
     16 C          12.9341    2.4988    2.4282 C.3     1  UNL1       -0.0502
     17 C          14.4276    2.3207    2.7679 C.3     1  UNL1       -0.0410
     18 C          14.8903    0.8462    2.8528 C.3     1  UNL1       -0.0502
     19 C          13.9442   -0.1036    3.6043 C.3     1  UNL1       -0.0528
     20 C          14.5451   -0.6907    4.8755 C.3     1  UNL1       -0.0530
     21 C          13.5502   -1.6419    5.5615 C.3     1  UNL1       -0.0531
     22 C          13.5513   -1.4790    7.0836 C.3     1  UNL1       -0.0531
     23 C          12.6587   -0.3147    7.5463 C.3     1  UNL1       -0.0531
     24 C          13.3985    0.6566    8.4661 C.3     1  UNL1       -0.0531
     25 C          12.5026    1.8278    8.9008 C.3     1  UNL1       -0.0531
     26 C          13.1935    3.1806    8.6972 C.3     1  UNL1       -0.0531
     27 C          13.2377    3.5905    7.2196 C.3     1  UNL1       -0.0531
     28 C          14.4227    4.5134    6.9292 C.3     1  UNL1       -0.0531
     29 C          14.3990    5.1870    5.5531 C.3     1  UNL1       -0.0530
     30 C          13.9613    4.3288    4.3670 C.3     1  UNL1       -0.0528
     31 C          14.8574    3.1244    4.0376 C.3     1  UNL1       -0.0502
     32 H          14.0070   11.1764   -5.5164 H       1  UNL1        0.0778
     33 H          15.4992   10.3238   -4.9995 H       1  UNL1        0.0778
     34 H          14.3564    9.5251   -6.1357 H       1  UNL1        0.0778
     35 H          13.4283   11.5232   -3.2173 H       1  UNL1        0.0778
     36 H          13.1894   10.1547   -2.0912 H       1  UNL1        0.0778
     37 H          14.8513   10.6057   -2.6133 H       1  UNL1        0.0778
     38 H          12.1411    8.6325   -5.2220 H       1  UNL1        0.0778
     39 H          11.6278    9.2533   -3.6026 H       1  UNL1        0.0778
     40 H          11.8945   10.3887   -4.9433 H       1  UNL1        0.0778
     41 H          14.2239    7.6210   -4.7048 H       1  UNL1        0.0838
     42 H          15.4076    8.4059   -3.6254 H       1  UNL1        0.0838
     43 H          14.2921    6.5390   -2.4586 H       1  UNL1        0.0619
     44 H          13.8606    8.0609   -1.6740 H       1  UNL1        0.0619
     45 H          10.8710    3.7647   -1.1379 H       1  UNL1        0.0565
     46 H          12.3036    4.0002   -0.1207 H       1  UNL1        0.0565
     47 H          10.6703    3.9560    1.9058 H       1  UNL1        0.0287
     48 H           9.4101    3.5228    0.7957 H       1  UNL1        0.0287
     49 H          10.3378    1.5180    1.8994 H       1  UNL1        0.0266
     50 H          10.5428    1.4341    0.1553 H       1  UNL1        0.0266
     51 H          12.5247    0.6265    1.3935 H       1  UNL1        0.0265
     52 H          12.9382    1.9555    0.3328 H       1  UNL1        0.0265
     53 H          12.7941    3.5611    2.2002 H       1  UNL1        0.0268
     54 H          12.3176    2.2876    3.3083 H       1  UNL1        0.0268
     55 H          14.9863    2.7661    1.9314 H       1  UNL1        0.0301
     56 H          14.9792    0.4724    1.8235 H       1  UNL1        0.0268
     57 H          15.9061    0.7988    3.2653 H       1  UNL1        0.0268
     58 H          13.0072    0.3889    3.8751 H       1  UNL1        0.0265
     59 H          13.6759   -0.9289    2.9326 H       1  UNL1        0.0265
     60 H          15.4536   -1.2530    4.6290 H       1  UNL1        0.0265
     61 H          14.8412    0.1213    5.5466 H       1  UNL1        0.0265
     62 H          12.5279   -1.4998    5.1794 H       1  UNL1        0.0265
     63 H          13.8270   -2.6711    5.3120 H       1  UNL1        0.0265
     64 H          13.1589   -2.4008    7.5299 H       1  UNL1        0.0265
     65 H          14.5785   -1.3709    7.4501 H       1  UNL1        0.0265
     66 H          12.2622    0.2396    6.6874 H       1  UNL1        0.0265
     67 H          11.7915   -0.7229    8.0816 H       1  UNL1        0.0265
     68 H          13.7449    0.1218    9.3587 H       1  UNL1        0.0265
     69 H          14.2968    1.0189    7.9530 H       1  UNL1        0.0265
     70 H          11.5421    1.8232    8.3727 H       1  UNL1        0.0265
     71 H          12.2728    1.7108    9.9673 H       1  UNL1        0.0265
     72 H          12.6458    3.9500    9.2551 H       1  UNL1        0.0265
     73 H          14.2019    3.1395    9.1251 H       1  UNL1        0.0265
     74 H          13.3124    2.7031    6.5829 H       1  UNL1        0.0265
     75 H          12.2937    4.0854    6.9602 H       1  UNL1        0.0265
     76 H          14.4609    5.3061    7.6877 H       1  UNL1        0.0265
     77 H          15.3520    3.9403    7.0319 H       1  UNL1        0.0265
     78 H          13.7096    6.0385    5.6089 H       1  UNL1        0.0265
     79 H          15.3899    5.6133    5.3502 H       1  UNL1        0.0265
     80 H          12.9378    3.9901    4.5600 H       1  UNL1        0.0265
     81 H          13.9129    4.9860    3.4900 H       1  UNL1        0.0265
     82 H          14.9016    2.4557    4.9024 H       1  UNL1        0.0268
     83 H          15.8841    3.4823    3.8782 H       1  UNL1        0.0268
     84 H          10.4003    7.9610   -0.9435 H       1  UNL1        0.2220
@<TRIPOS>UNITY_ATOM_ATTR
2 1
charge 1
@<TRIPOS>BOND
     1     1    32    1
     2     1    33    1
     3     1    34    1
     4     2     1    1
     5     3     2    1
     6     3    35    1
     7     3    36    1
     8     3    37    1
     9     4     2    1
    10     4    38    1
    11     4    39    1
    12     4    40    1
    13     5     2    1
    14     5    41    1
    15     5    42    1
    16     6     5    1
    17     6    43    1
    18     6    44    1
    19     7     6    1
    20     8     7    1
    21     9     8    1
    22    10     8    2
    23    11     8    1
    24    12    11    1
    25    12    45    1
    26    12    46    1
    27    13    12    1
    28    13    47    1
    29    13    48    1
    30    14    13    1
    31    14    49    1
    32    14    50    1
    33    15    14    1
    34    15    51    1
    35    15    52    1
    36    16    15    1
    37    16    53    1
    38    16    54    1
    39    17    16    1
    40    17    55    1
    41    18    17    1
    42    18    56    1
    43    18    57    1
    44    19    18    1
    45    19    58    1
    46    19    59    1
    47    20    19    1
    48    20    60    1
    49    20    61    1
    50    21    20    1
    51    21    62    1
    52    21    63    1
    53    22    21    1
    54    22    64    1
    55    22    65    1
    56    23    22    1
    57    23    66    1
    58    23    67    1
    59    24    23    1
    60    24    68    1
    61    24    69    1
    62    25    24    1
    63    25    70    1
    64    25    71    1
    65    26    25    1
    66    26    72    1
    67    26    73    1
    68    27    26    1
    69    27    74    1
    70    27    75    1
    71    28    27    1
    72    28    76    1
    73    28    77    1
    74    29    28    1
    75    29    78    1
    76    29    79    1
    77    30    29    1
    78    30    80    1
    79    30    81    1
    80    31    30    1
    81    31    17    1
    82    31    82    1
    83    31    83    1
    84     9    84    1
