@<TRIPOS>MOLECULE
mol_60_akc_jejmech201803014
>60.sdf
 70 74 0 0 0
SMALL
GASTEIGER

@<TRIPOS>ATOM
      1 C           2.5910    2.8146   -2.5811 C.3     1  UNL1        0.0788
      2 O           1.7891    3.3256   -1.5231 O.3     1  UNL1       -0.4951
      3 C           2.3560    3.3933   -0.2810 C.ar    1  UNL1        0.1201
      4 C           3.6120    2.9139    0.0913 C.ar    1  UNL1       -0.0193
      5 C           4.1040    3.1358    1.3932 C.ar    1  UNL1       -0.0490
      6 C           3.3546    3.8517    2.3429 C.ar    1  UNL1        0.0026
      7 C           2.0621    4.2588    1.9624 C.ar    1  UNL1       -0.0490
      8 C           1.5731    4.0384    0.6718 C.ar    1  UNL1       -0.0193
      9 C           3.9567    4.4146    3.5545 C.ar    1  UNL1        0.0957
     10 C           5.0419    3.9373    4.3172 C.ar    1  UNL1        0.0738
     11 N           5.3004    2.7513    4.9736 N.ar    1  UNL1       -0.3525
     12 C           6.2405    2.9753    5.9768 C.ar    1  UNL1        0.0475
     13 C           6.8379    4.2068    5.7184 C.ar    1  UNL1        0.0075
     14 C           7.9093    4.6537    6.5161 C.ar    1  UNL1       -0.0520
     15 C           8.2681    3.9185    7.6439 C.ar    1  UNL1       -0.0611
     16 C           7.5616    2.7645    7.9772 C.ar    1  UNL1       -0.0598
     17 C           6.5612    2.2508    7.1352 C.ar    1  UNL1       -0.0378
     18 C           5.9707    4.8681    4.8120 C.ar    1  UNL1        0.0117
     19 C           5.6841    6.2318    4.6145 C.ar    1  UNL1       -0.0214
     20 C           4.3167    6.3370    4.7762 C.ar    1  UNL1        0.1267
     21 N           3.5820    5.7010    3.8553 N.ar    1  UNL1       -0.2400
     22 C           3.7760    6.1617    6.2033 C.2     1  UNL1        0.2625
     23 O           2.8578    5.3829    6.4600 O.2     1  UNL1       -0.2685
     24 N           4.3440    6.8535    7.2496 N.am    1  UNL1       -0.3086
     25 C           5.2476    7.9887    7.1988 C.3     1  UNL1        0.0275
     26 C           4.6224    9.1920    6.4806 C.3     1  UNL1        0.0274
     27 N           5.2991   10.4403    6.7962 N.pl3   1  UNL1       -0.3118
     28 C           6.4621   10.7154    6.0989 C.ar    1  UNL1        0.2211
     29 N           7.2875    9.7509    5.7079 N.ar    1  UNL1       -0.1809
     30 C           8.4091   10.1476    5.1247 C.ar    1  UNL1        0.2232
     31 N           8.6917   11.4226    4.8999 N.ar    1  UNL1       -0.1807
     32 C           7.8112   12.3257    5.2975 C.ar    1  UNL1        0.2232
     33 N           6.6696   11.9957    5.8950 N.ar    1  UNL1       -0.1809
     34 N           8.0648   13.6834    5.0595 N.pl3   1  UNL1       -0.3056
     35 C           7.3202   14.5961    5.9159 C.3     1  UNL1        0.0031
     36 C           9.4739   13.9820    4.8612 C.3     1  UNL1        0.0031
     37 N           9.3716    9.1939    4.7724 N.pl3   1  UNL1       -0.3056
     38 C           8.8797    7.8578    4.5213 C.3     1  UNL1        0.0031
     39 C          10.4408    9.6732    3.9113 C.3     1  UNL1        0.0031
     40 H           3.5245    3.3737   -2.6901 H       1  UNL1        0.0660
     41 H           2.7828    1.7464   -2.4367 H       1  UNL1        0.0660
     42 H           2.0251    2.9309   -3.5129 H       1  UNL1        0.0660
     43 H           4.2553    2.4065   -0.6201 H       1  UNL1        0.0654
     44 H           5.1220    2.8236    1.6188 H       1  UNL1        0.0625
     45 H           1.4532    4.8375    2.6566 H       1  UNL1        0.0625
     46 H           0.5952    4.4276    0.3972 H       1  UNL1        0.0654
     47 H           4.6702    1.9625    4.9728 H       1  UNL1        0.1660
     48 H           8.4009    5.5949    6.3125 H       1  UNL1        0.0624
     49 H           9.0555    4.2943    8.2963 H       1  UNL1        0.0618
     50 H           7.7881    2.2678    8.9143 H       1  UNL1        0.0618
     51 H           6.0074    1.3654    7.4253 H       1  UNL1        0.0638
     52 H           6.0373    6.6061    3.6457 H       1  UNL1        0.0647
     53 H           3.9482    6.6020    8.1481 H       1  UNL1        0.1491
     54 H           5.4788    8.2449    8.2393 H       1  UNL1        0.0477
     55 H           6.1852    7.6732    6.7372 H       1  UNL1        0.0477
     56 H           4.5699    9.0358    5.3959 H       1  UNL1        0.0477
     57 H           3.5832    9.2893    6.8169 H       1  UNL1        0.0477
     58 H           4.7213   11.2646    6.7199 H       1  UNL1        0.1490
     59 H           7.6082   14.4809    6.9671 H       1  UNL1        0.0428
     60 H           7.5199   15.6321    5.6248 H       1  UNL1        0.0428
     61 H           6.2373   14.4549    5.8213 H       1  UNL1        0.0428
     62 H          10.0741   13.6838    5.7288 H       1  UNL1        0.0428
     63 H           9.8652   13.4870    3.9636 H       1  UNL1        0.0428
     64 H           9.6185   15.0572    4.7110 H       1  UNL1        0.0428
     65 H           8.3916    7.7897    3.5422 H       1  UNL1        0.0428
     66 H           9.7116    7.1436    4.5357 H       1  UNL1        0.0428
     67 H           8.1798    7.5282    5.2919 H       1  UNL1        0.0428
     68 H          10.0515   10.0840    2.9717 H       1  UNL1        0.0428
     69 H          11.0437   10.4362    4.4190 H       1  UNL1        0.0428
     70 H          11.1232    8.8554    3.6567 H       1  UNL1        0.0428
@<TRIPOS>BOND
     1     1    40    1
     2     1    41    1
     3     1    42    1
     4     2     1    1
     5     3     2    1
     6     4     3   ar
     7     4    43    1
     8     5     4   ar
     9     5    44    1
    10     6     5   ar
    11     7     6   ar
    12     7    45    1
    13     8     7   ar
    14     8     3   ar
    15     8    46    1
    16     9     6    1
    17    10     9   ar
    18    11    10   ar
    19    11    47    1
    20    12    11   ar
    21    13    12   ar
    22    14    13   ar
    23    14    48    1
    24    15    14   ar
    25    15    49    1
    26    16    15   ar
    27    16    50    1
    28    17    16   ar
    29    17    12   ar
    30    17    51    1
    31    18    13   ar
    32    18    10   ar
    33    19    18   ar
    34    19    52    1
    35    20    19   ar
    36    21    20   ar
    37    21     9   ar
    38    22    20    1
    39    23    22    2
    40    24    22   am
    41    24    53    1
    42    25    24    1
    43    25    54    1
    44    25    55    1
    45    26    25    1
    46    26    56    1
    47    26    57    1
    48    27    26    1
    49    27    58    1
    50    28    27    1
    51    29    28   ar
    52    30    29   ar
    53    31    30   ar
    54    32    31   ar
    55    33    32   ar
    56    33    28   ar
    57    34    32    1
    58    35    34    1
    59    35    59    1
    60    35    60    1
    61    35    61    1
    62    36    34    1
    63    36    62    1
    64    36    63    1
    65    36    64    1
    66    37    30    1
    67    38    37    1
    68    38    65    1
    69    38    66    1
    70    38    67    1
    71    39    37    1
    72    39    68    1
    73    39    69    1
    74    39    70    1
