@<TRIPOS>MOLECULE
mol_610_akc_jm7012166
>592.sdf
 58 62 0 0 0
SMALL
GASTEIGER

@<TRIPOS>ATOM
      1 C           1.0779    0.5357   -0.1599 C.3     1  UNL1       -0.0560
      2 C           2.5357    0.1101    0.1061 C.3     1  UNL1       -0.0127
      3 C           3.3998    1.3785    0.2675 C.3     1  UNL1       -0.0560
      4 C           2.5908   -0.6292    1.4664 C.3     1  UNL1       -0.0560
      5 C           2.9833   -0.7812   -1.0671 C.ar    1  UNL1       -0.0413
      6 C           3.5910   -0.2637   -2.2246 C.ar    1  UNL1       -0.0561
      7 C           3.9205   -1.0680   -3.3319 C.ar    1  UNL1       -0.0375
      8 C           3.6127   -2.4289   -3.2611 C.ar    1  UNL1        0.0472
      9 N           3.7791   -3.4479   -4.1754 N.ar    1  UNL1       -0.3539
     10 C           3.3143   -4.6393   -3.6621 C.ar    1  UNL1        0.0530
     11 C           2.8835   -4.3814   -2.3756 C.ar    1  UNL1       -0.0056
     12 C           2.3679   -5.4138   -1.4532 C.3     1  UNL1        0.0520
     13 C           3.4015   -6.4928   -1.2239 C.2     1  UNL1        0.2216
     14 O           3.7899   -6.7813   -0.0883 O.2     1  UNL1       -0.2751
     15 N           3.8174   -7.2654   -2.2746 N.am    1  UNL1       -0.2847
     16 C           3.5672   -7.1402   -3.6576 C.ar    1  UNL1        0.0426
     17 C           3.6007   -8.3427   -4.3719 C.ar    1  UNL1       -0.0393
     18 C           3.3248   -8.3708   -5.7385 C.ar    1  UNL1       -0.0528
     19 C           3.0697   -7.1887   -6.4403 C.ar    1  UNL1       -0.0242
     20 C           2.7601   -7.1848   -7.8790 C.2     1  UNL1       -0.0509
     21 C           3.2367   -8.1031   -8.7317 C.2     1  UNL1       -0.0137
     22 C           2.9028   -8.0529  -10.1793 C.2     1  UNL1        0.1875
     23 O           2.4587   -7.0466  -10.7168 O.2     1  UNL1       -0.2872
     24 C           3.1939   -9.2690  -10.9726 C.ar    1  UNL1        0.0397
     25 C           3.0808  -10.5450  -10.4360 C.ar    1  UNL1        0.0383
     26 N           3.3843  -11.6794  -11.1106 N.ar    1  UNL1       -0.2626
     27 C           3.7953  -11.5314  -12.3892 C.ar    1  UNL1        0.0276
     28 C           3.9032  -10.3044  -13.0259 C.ar    1  UNL1       -0.0429
     29 C           3.5893   -9.1531  -12.3060 C.ar    1  UNL1       -0.0480
     30 C           3.0661   -5.9776   -5.7336 C.ar    1  UNL1       -0.0437
     31 C           3.3191   -5.9322   -4.3481 C.ar    1  UNL1        0.0203
     32 C           3.0295   -2.9906   -2.1328 C.ar    1  UNL1        0.0042
     33 C           2.7115   -2.1608   -1.0417 C.ar    1  UNL1       -0.0486
     34 H           0.6985    1.1771    0.6443 H       1  UNL1        0.0238
     35 H           0.9898    1.0928   -1.1000 H       1  UNL1        0.0238
     36 H           0.4125   -0.3332   -0.2319 H       1  UNL1        0.0238
     37 H           3.0779    1.9626    1.1385 H       1  UNL1        0.0238
     38 H           4.4556    1.1224    0.4120 H       1  UNL1        0.0238
     39 H           3.3259    2.0462   -0.5968 H       1  UNL1        0.0238
     40 H           1.8833   -1.4636    1.5207 H       1  UNL1        0.0238
     41 H           3.5945   -1.0249    1.6611 H       1  UNL1        0.0238
     42 H           2.3292    0.0417    2.2930 H       1  UNL1        0.0238
     43 H           3.8111    0.7981   -2.3063 H       1  UNL1        0.0621
     44 H           4.3842   -0.6333   -4.2119 H       1  UNL1        0.0638
     45 H           4.1950   -3.3306   -5.0859 H       1  UNL1        0.1659
     46 H           1.4580   -5.8756   -1.8545 H       1  UNL1        0.0408
     47 H           2.1043   -4.9823   -0.4817 H       1  UNL1        0.0408
     48 H           4.3158   -8.0887   -1.9597 H       1  UNL1        0.1548
     49 H           3.7858   -9.2849   -3.8604 H       1  UNL1        0.0636
     50 H           3.2931   -9.3388   -6.2316 H       1  UNL1        0.0624
     51 H           2.1249   -6.3777   -8.2412 H       1  UNL1        0.0625
     52 H           3.8956   -8.8979   -8.4042 H       1  UNL1        0.0656
     53 H           2.7263  -10.7167   -9.4238 H       1  UNL1        0.0837
     54 H           4.0416  -12.4553  -12.9058 H       1  UNL1        0.0829
     55 H           4.2297  -10.2457  -14.0587 H       1  UNL1        0.0633
     56 H           3.6658   -8.1754  -12.7767 H       1  UNL1        0.0626
     57 H           2.8445   -5.0560   -6.2690 H       1  UNL1        0.0631
     58 H           2.2251   -2.6217   -0.1902 H       1  UNL1        0.0627
@<TRIPOS>BOND
     1     1    34    1
     2     1    35    1
     3     1    36    1
     4     2     1    1
     5     3     2    1
     6     3    37    1
     7     3    38    1
     8     3    39    1
     9     4     2    1
    10     4    40    1
    11     4    41    1
    12     4    42    1
    13     5     2    1
    14     6     5   ar
    15     6    43    1
    16     7     6   ar
    17     7    44    1
    18     8     7   ar
    19     9     8   ar
    20     9    45    1
    21    10     9   ar
    22    11    10   ar
    23    12    11    1
    24    12    46    1
    25    12    47    1
    26    13    12    1
    27    14    13    2
    28    15    13   am
    29    15    48    1
    30    16    15    1
    31    17    16   ar
    32    17    49    1
    33    18    17   ar
    34    18    50    1
    35    19    18   ar
    36    20    19    1
    37    20    51    1
    38    21    20    2
    39    21    52    1
    40    22    21    1
    41    23    22    2
    42    24    22    1
    43    25    24   ar
    44    25    53    1
    45    26    25   ar
    46    27    26   ar
    47    27    54    1
    48    28    27   ar
    49    28    55    1
    50    29    28   ar
    51    29    24   ar
    52    29    56    1
    53    30    19   ar
    54    30    57    1
    55    31    30   ar
    56    31    10    1
    57    31    16   ar
    58    32    11   ar
    59    32     8   ar
    60    33    32   ar
    61    33     5   ar
    62    33    58    1
