@<TRIPOS>MOLECULE
mol_611_akc_ge_12591
>593.sdf
 34 36 0 0 0
SMALL
GASTEIGER

@<TRIPOS>ATOM
      1 O           1.0789   -0.0912    0.3865 O.3     1  UNL1       -0.3749
      2 C           2.4891   -0.0399    0.1062 C.3     1  UNL1        0.1454
      3 C           2.9849    0.5484    1.4591 C.ar    1  UNL1       -0.0070
      4 C           3.4212   -0.2803    2.5167 C.ar    1  UNL1       -0.0538
      5 C           3.8084    0.2516    3.7516 C.ar    1  UNL1       -0.0430
      6 C           3.7512    1.6229    3.9639 C.ar    1  UNL1        0.0410
      7 CL          4.2289    2.2769    5.4808 Cl      1  UNL1       -0.0835
      8 C           3.2886    2.4661    2.9594 C.ar    1  UNL1       -0.0430
      9 C           2.8877    1.9313    1.7297 C.ar    1  UNL1       -0.0538
     10 C           2.9811   -1.4632   -0.1321 C.ar    1  UNL1        0.0290
     11 C           2.1515   -2.5717   -0.0983 C.ar    1  UNL1        0.0373
     12 N           2.5769   -3.8449   -0.2489 N.ar    1  UNL1       -0.2433
     13 C           3.8926   -4.0017   -0.4438 C.ar    1  UNL1        0.1159
     14 N           4.7988   -3.0172   -0.5059 N.ar    1  UNL1       -0.2433
     15 C           4.3151   -1.7664   -0.3517 C.ar    1  UNL1        0.0373
     16 C           2.7884    0.8310   -1.1483 C.ar    1  UNL1        0.0112
     17 C           3.9683    1.6124   -1.2049 C.ar    1  UNL1       -0.0538
     18 C           4.2650    2.4286   -2.3021 C.ar    1  UNL1       -0.0613
     19 C           3.4110    2.4635   -3.3947 C.ar    1  UNL1       -0.0604
     20 C           2.2762    1.6595   -3.4012 C.ar    1  UNL1       -0.0430
     21 C           1.9747    0.8420   -2.3022 C.ar    1  UNL1        0.0475
     22 CL          0.5594   -0.1400   -2.4653 Cl      1  UNL1       -0.0831
     23 H           0.6067    0.4115   -0.2958 H       1  UNL1        0.2115
     24 H           3.4427   -1.3638    2.4143 H       1  UNL1        0.0622
     25 H           4.1353   -0.4166    4.5445 H       1  UNL1        0.0632
     26 H           3.2205    3.5372    3.1297 H       1  UNL1        0.0632
     27 H           2.4879    2.6152    0.9830 H       1  UNL1        0.0622
     28 H           1.0825   -2.4779    0.0730 H       1  UNL1        0.0834
     29 H           4.2566   -5.0171   -0.5543 H       1  UNL1        0.1047
     30 H           5.0783   -0.9935   -0.3873 H       1  UNL1        0.0834
     31 H           4.6816    1.6078   -0.3796 H       1  UNL1        0.0622
     32 H           5.1670    3.0366   -2.2984 H       1  UNL1        0.0618
     33 H           3.6343    3.1013   -4.2465 H       1  UNL1        0.0618
     34 H           1.6263    1.6698   -4.2738 H       1  UNL1        0.0632
@<TRIPOS>BOND
     1     1    23    1
     2     2     1    1
     3     3     2    1
     4     4     3   ar
     5     4    24    1
     6     5     4   ar
     7     5    25    1
     8     6     5   ar
     9     7     6    1
    10     8     6   ar
    11     8    26    1
    12     9     8   ar
    13     9     3   ar
    14     9    27    1
    15    10     2    1
    16    11    10   ar
    17    11    28    1
    18    12    11   ar
    19    13    12   ar
    20    13    29    1
    21    14    13   ar
    22    15    14   ar
    23    15    10   ar
    24    15    30    1
    25    16     2    1
    26    17    16   ar
    27    17    31    1
    28    18    17   ar
    29    18    32    1
    30    19    18   ar
    31    19    33    1
    32    20    19   ar
    33    20    34    1
    34    21    20   ar
    35    21    16   ar
    36    22    21    1
