@<TRIPOS>MOLECULE
mol_613_akc_jfitote200707005
>595.sdf
 53 54 0 0 0
SMALL
GASTEIGER

@<TRIPOS>ATOM
      1 C           1.0107    4.4403    0.5693 C.3     1  UNL1       -0.0440
      2 C           2.5093    4.3537    0.4891 C.2     1  UNL1       -0.0796
      3 C           3.1301    4.8624   -0.7803 C.3     1  UNL1       -0.0440
      4 C           3.2316    3.8487    1.5063 C.2     1  UNL1       -0.0850
      5 C           4.7329    3.8154    1.5777 C.3     1  UNL1       -0.0308
      6 C           5.3420    2.5075    1.0484 C.3     1  UNL1       -0.0286
      7 C           6.8631    2.4922    1.0075 C.2     1  UNL1       -0.0759
      8 C           7.4863    1.6265   -0.0569 C.3     1  UNL1       -0.0438
      9 C           7.6175    3.2018    1.8696 C.2     1  UNL1       -0.0805
     10 C           9.1114    3.3293    1.8352 C.3     1  UNL1       -0.0023
     11 C           9.5671    4.6339    2.4483 C.ar    1  UNL1        0.0400
     12 C           9.7290    5.7854    1.6614 C.ar    1  UNL1        0.1273
     13 O           9.3864    5.8253    0.3382 O.3     1  UNL1       -0.5062
     14 C          10.2440    6.9639    2.1947 C.ar    1  UNL1        0.0225
     15 C          10.6104    7.0122    3.5351 C.ar    1  UNL1        0.1347
     16 O          11.1325    8.1970    3.9827 O.3     1  UNL1       -0.5058
     17 C          10.4433    5.8914    4.3606 C.ar    1  UNL1        0.1054
     18 C          10.9182    5.9672    5.7710 C.2     1  UNL1        0.2002
     19 O          10.8853    7.0583    6.3353 O.2     1  UNL1       -0.2864
     20 C          11.5078    4.7977    6.4793 C.ar    1  UNL1        0.0225
     21 C          11.3788    4.7239    7.8709 C.ar    1  UNL1       -0.0509
     22 C          11.9041    3.6314    8.5646 C.ar    1  UNL1       -0.0611
     23 C          12.5590    2.6120    7.8729 C.ar    1  UNL1       -0.0617
     24 C          12.7113    2.6914    6.4904 C.ar    1  UNL1       -0.0611
     25 C          12.2075    3.7926    5.7968 C.ar    1  UNL1       -0.0509
     26 C           9.8528    4.7331    3.8239 C.ar    1  UNL1        0.1381
     27 O           9.5391    3.7122    4.6846 O.3     1  UNL1       -0.5055
     28 H           0.6886    5.4790    0.4388 H       1  UNL1        0.0274
     29 H           0.5518    3.8297   -0.2141 H       1  UNL1        0.0274
     30 H           0.6267    4.0957    1.5352 H       1  UNL1        0.0274
     31 H           3.7651    5.7325   -0.5840 H       1  UNL1        0.0274
     32 H           3.7305    4.0810   -1.2574 H       1  UNL1        0.0274
     33 H           2.3660    5.1684   -1.5008 H       1  UNL1        0.0274
     34 H           2.7208    3.4821    2.3966 H       1  UNL1        0.0572
     35 H           5.1577    4.6676    1.0319 H       1  UNL1        0.0310
     36 H           5.0016    3.9684    2.6297 H       1  UNL1        0.0310
     37 H           4.9958    1.6556    1.6465 H       1  UNL1        0.0313
     38 H           4.9672    2.3488    0.0292 H       1  UNL1        0.0313
     39 H           7.9761    2.2454   -0.8161 H       1  UNL1        0.0274
     40 H           8.2261    0.9475    0.3811 H       1  UNL1        0.0274
     41 H           6.7412    1.0051   -0.5632 H       1  UNL1        0.0274
     42 H           7.1286    3.7706    2.6586 H       1  UNL1        0.0575
     43 H           9.5682    2.4867    2.3680 H       1  UNL1        0.0358
     44 H           9.4992    3.2565    0.8126 H       1  UNL1        0.0358
     45 H           8.7013    5.1585    0.1629 H       1  UNL1        0.2921
     46 H          10.3632    7.8427    1.5667 H       1  UNL1        0.0691
     47 H          11.1746    8.1534    4.9650 H       1  UNL1        0.2922
     48 H          10.8625    5.5117    8.4155 H       1  UNL1        0.0625
     49 H          11.7995    3.5749    9.6454 H       1  UNL1        0.0618
     50 H          12.9575    1.7572    8.4136 H       1  UNL1        0.0618
     51 H          13.2212    1.8984    5.9503 H       1  UNL1        0.0618
     52 H          12.3496    3.8410    4.7211 H       1  UNL1        0.0625
     53 H           9.0573    2.9957    4.2442 H       1  UNL1        0.2922
@<TRIPOS>BOND
     1     1    28    1
     2     1    29    1
     3     1    30    1
     4     2     1    1
     5     3     2    1
     6     3    31    1
     7     3    32    1
     8     3    33    1
     9     4     2    2
    10     4    34    1
    11     5     4    1
    12     5    35    1
    13     5    36    1
    14     6     5    1
    15     6    37    1
    16     6    38    1
    17     7     6    1
    18     8     7    1
    19     8    39    1
    20     8    40    1
    21     8    41    1
    22     9     7    2
    23     9    42    1
    24    10     9    1
    25    10    43    1
    26    10    44    1
    27    11    10    1
    28    12    11   ar
    29    13    12    1
    30    13    45    1
    31    14    12   ar
    32    14    46    1
    33    15    14   ar
    34    16    15    1
    35    16    47    1
    36    17    15   ar
    37    18    17    1
    38    19    18    2
    39    20    18    1
    40    21    20   ar
    41    21    48    1
    42    22    21   ar
    43    22    49    1
    44    23    22   ar
    45    23    50    1
    46    24    23   ar
    47    24    51    1
    48    25    24   ar
    49    25    20   ar
    50    25    52    1
    51    26    17   ar
    52    26    11   ar
    53    27    26    1
    54    27    53    1
