@<TRIPOS>MOLECULE
mol_615_akc_jbmc200708016
>597.sdf
 31 32 0 0 0
SMALL
GASTEIGER

@<TRIPOS>ATOM
      1 C           3.0704   -0.6549   -1.2202 C.3     1  UNL1       -0.0458
      2 C           2.4453   -0.0236    0.0300 C.3     1  UNL1        0.0698
      3 S           2.8060    1.7818    0.1687 S.3     1  UNL1       -0.1141
      4 C           2.0352    2.4378   -1.2989 C.ar    1  UNL1        0.0086
      5 C           0.6903    2.2089   -1.6013 C.ar    1  UNL1       -0.0469
      6 C           0.1143    2.7829   -2.7405 C.ar    1  UNL1       -0.0423
      7 C           0.8830    3.5921   -3.5749 C.ar    1  UNL1        0.0410
      8 CL          0.1718    4.2988   -4.9715 Cl      1  UNL1       -0.0835
      9 C           2.2207    3.8387   -3.2778 C.ar    1  UNL1       -0.0423
     10 C           2.7917    3.2681   -2.1363 C.ar    1  UNL1       -0.0469
     11 C           2.9928   -0.6784    1.3053 C.2     1  UNL1        0.1760
     12 O           4.1661   -1.0503    1.3885 O.2     1  UNL1       -0.2909
     13 C           2.1052   -0.8663    2.5004 C.ar    1  UNL1        0.0185
     14 C           0.7816   -0.4132    2.5605 C.ar    1  UNL1       -0.0512
     15 C           0.0077   -0.6423    3.7039 C.ar    1  UNL1       -0.0611
     16 C           0.5493   -1.3126    4.7983 C.ar    1  UNL1       -0.0617
     17 C           1.8679   -1.7569    4.7556 C.ar    1  UNL1       -0.0611
     18 C           2.6405   -1.5359    3.6131 C.ar    1  UNL1       -0.0512
     19 H           2.2764   -1.0858   -1.8426 H       1  UNL1        0.0245
     20 H           3.6131    0.0576   -1.8487 H       1  UNL1        0.0245
     21 H           3.7522   -1.4798   -0.9884 H       1  UNL1        0.0245
     22 H           1.3663   -0.1780   -0.0316 H       1  UNL1        0.0494
     23 H           0.0656    1.6075   -0.9476 H       1  UNL1        0.0629
     24 H          -0.9334    2.6033   -2.9641 H       1  UNL1        0.0632
     25 H           2.8206    4.4766   -3.9192 H       1  UNL1        0.0632
     26 H           3.8362    3.4760   -1.9091 H       1  UNL1        0.0629
     27 H           0.3179    0.1315    1.7453 H       1  UNL1        0.0625
     28 H          -1.0211   -0.2918    3.7427 H       1  UNL1        0.0618
     29 H          -0.0531   -1.4857    5.6872 H       1  UNL1        0.0618
     30 H           2.2997   -2.2728    5.6102 H       1  UNL1        0.0618
     31 H           3.6712   -1.8886    3.5993 H       1  UNL1        0.0625
@<TRIPOS>BOND
     1     1    19    1
     2     1    20    1
     3     1    21    1
     4     3     2    1
     5     4     3    1
     6     5     4   ar
     7     5    23    1
     8     6     5   ar
     9     6    24    1
    10     7     6   ar
    11     8     7    1
    12     9     7   ar
    13     9    25    1
    14    10     9   ar
    15    10     4   ar
    16    10    26    1
    17    11     2    1
    18    12    11    2
    19    13    11    1
    20    14    13   ar
    21    14    27    1
    22    15    14   ar
    23    15    28    1
    24    16    15   ar
    25    16    29    1
    26    17    16   ar
    27    17    30    1
    28    18    17   ar
    29    18    13   ar
    30    18    31    1
    31     2    22    1
    32     2     1    1
