@<TRIPOS>MOLECULE
mol_616_akc_jejmech200702010
>598.sdf
 37 39 0 0 0
SMALL
GASTEIGER

@<TRIPOS>ATOM
      1 C           1.0476   -0.6169    0.9790 C.3     1  UNL1        0.0125
      2 C           2.4993   -0.8532    1.2913 C.2     1  UNL1        0.2141
      3 O           2.9021   -0.8318    2.4516 O.2     1  UNL1       -0.2758
      4 N           3.2818   -1.1040    0.1775 N.am    1  UNL1       -0.2857
      5 C           4.6898   -1.1189    0.2262 C.ar    1  UNL1        0.0354
      6 C           5.3959   -2.0390   -0.5542 C.ar    1  UNL1       -0.0145
      7 C           6.7820   -2.1337   -0.4841 C.ar    1  UNL1        0.0734
      8 N           7.4231   -3.1021   -1.1603 N.ar    1  UNL1       -0.2466
      9 C           8.7566   -3.2333   -1.0426 C.ar    1  UNL1        0.0734
     10 C           9.4141   -4.2817   -1.6808 C.ar    1  UNL1       -0.0145
     11 C          10.7983   -4.4642   -1.5784 C.ar    1  UNL1        0.0354
     12 N          11.5118   -5.5149   -2.1946 N.am    1  UNL1       -0.2857
     13 C          11.0044   -6.5183   -2.9987 C.2     1  UNL1        0.2141
     14 C          12.0630   -7.4775   -3.4848 C.3     1  UNL1        0.0125
     15 O           9.8312   -6.6841   -3.3140 O.2     1  UNL1       -0.2758
     16 C          11.5449   -3.5598   -0.8202 C.ar    1  UNL1       -0.0398
     17 C          10.9157   -2.4990   -0.1718 C.ar    1  UNL1       -0.0508
     18 C           9.5263   -2.3404   -0.2736 C.ar    1  UNL1        0.0011
     19 C           8.8645   -1.3116    0.3984 C.ar    1  UNL1       -0.0434
     20 C           7.4740   -1.2125    0.3252 C.ar    1  UNL1        0.0011
     21 C           6.7781   -0.2418    1.0562 C.ar    1  UNL1       -0.0508
     22 C           5.3884   -0.2138    1.0245 C.ar    1  UNL1       -0.0398
     23 H           0.4556   -1.4758    1.3036 H       1  UNL1        0.0323
     24 H           0.7258    0.2771    1.5229 H       1  UNL1        0.0323
     25 H           0.8860   -0.4421   -0.0874 H       1  UNL1        0.0323
     26 H           2.8351   -1.5607   -0.6084 H       1  UNL1        0.1548
     27 H           4.8672   -2.7558   -1.1766 H       1  UNL1        0.0657
     28 H           8.7973   -4.9660   -2.2557 H       1  UNL1        0.0657
     29 H          12.5099   -5.5262   -2.0267 H       1  UNL1        0.1548
     30 H          11.9468   -8.4305   -2.9622 H       1  UNL1        0.0323
     31 H          11.9371   -7.6293   -4.5606 H       1  UNL1        0.0323
     32 H          13.0743   -7.0996   -3.3121 H       1  UNL1        0.0323
     33 H          12.6215   -3.6664   -0.7179 H       1  UNL1        0.0636
     34 H          11.5112   -1.8084    0.4196 H       1  UNL1        0.0625
     35 H           9.4268   -0.6074    1.0075 H       1  UNL1        0.0631
     36 H           7.3058    0.4776    1.6770 H       1  UNL1        0.0625
     37 H           4.8621    0.5331    1.6140 H       1  UNL1        0.0636
@<TRIPOS>BOND
     1     1    23    1
     2     1    24    1
     3     1    25    1
     4     2     1    1
     5     3     2    2
     6     4     2   am
     7     4    26    1
     8     5     4    1
     9     6     5   ar
    10     6    27    1
    11     7     6   ar
    12     8     7   ar
    13     9     8   ar
    14    10     9   ar
    15    10    28    1
    16    11    10   ar
    17    12    11    1
    18    12    29    1
    19    13    12   am
    20    14    13    1
    21    14    30    1
    22    14    31    1
    23    14    32    1
    24    15    13    2
    25    16    11   ar
    26    16    33    1
    27    17    16   ar
    28    17    34    1
    29    18    17   ar
    30    18     9   ar
    31    19    18   ar
    32    19    35    1
    33    20    19   ar
    34    20     7   ar
    35    21    20   ar
    36    21    36    1
    37    22    21   ar
    38    22     5   ar
    39    22    37    1
