@<TRIPOS>MOLECULE
mol_617_akc_jejmech200702010
>599.sdf
 51 55 0 0 0
SMALL
GASTEIGER

@<TRIPOS>ATOM
      1 O           2.7570    1.0116    2.3720 O.2     1  UNL1       -0.2699
      2 C           3.2375    0.5187    1.3583 C.2     1  UNL1        0.2483
      3 N           2.9952   -0.7793    0.9351 N.am    1  UNL1       -0.2814
      4 C           2.3421   -1.7144    1.7611 C.ar    1  UNL1        0.0357
      5 C           2.7600   -1.9169    3.0808 C.ar    1  UNL1       -0.0145
      6 C           2.1892   -2.8965    3.8850 C.ar    1  UNL1        0.0734
      7 N           2.6836   -3.1238    5.1128 N.ar    1  UNL1       -0.2466
      8 C           2.1467   -4.0892    5.8859 C.ar    1  UNL1        0.0734
      9 C           2.6788   -4.3364    7.1459 C.ar    1  UNL1       -0.0145
     10 C           2.1739   -5.3290    7.9985 C.ar    1  UNL1        0.0357
     11 N           2.6935   -5.5866    9.2933 N.am    1  UNL1       -0.2814
     12 C           3.5149   -4.7187   10.0042 C.2     1  UNL1        0.2483
     13 O           3.8030   -3.5799    9.6573 O.2     1  UNL1       -0.2699
     14 C           4.0263   -5.1739   11.3247 C.ar    1  UNL1        0.0370
     15 C           4.2796   -6.5132   11.6263 C.ar    1  UNL1       -0.0496
     16 C           4.8753   -6.8484   12.8486 C.ar    1  UNL1       -0.0610
     17 C           5.2201   -5.8502   13.7655 C.ar    1  UNL1       -0.0617
     18 C           4.9578   -4.5173   13.4751 C.ar    1  UNL1       -0.0610
     19 C           4.3628   -4.1782   12.2572 C.ar    1  UNL1       -0.0496
     20 C           1.1140   -6.1179    7.5490 C.ar    1  UNL1       -0.0398
     21 C           0.5508   -5.8800    6.2930 C.ar    1  UNL1       -0.0508
     22 C           1.0613   -4.8710    5.4566 C.ar    1  UNL1        0.0011
     23 C           0.5399   -4.6176    4.1833 C.ar    1  UNL1       -0.0434
     24 C           1.1171   -3.6395    3.3608 C.ar    1  UNL1        0.0011
     25 C           0.6698   -3.4145    2.0469 C.ar    1  UNL1       -0.0508
     26 C           1.3119   -2.4822    1.2311 C.ar    1  UNL1       -0.0398
     27 C           4.1333    1.3573    0.5126 C.ar    1  UNL1        0.0370
     28 C           4.8339    2.3785    1.1726 C.ar    1  UNL1       -0.0496
     29 C           5.7256    3.1919    0.4772 C.ar    1  UNL1       -0.0610
     30 C           5.9169    2.9971   -0.8877 C.ar    1  UNL1       -0.0617
     31 C           5.2116    1.9952   -1.5577 C.ar    1  UNL1       -0.0610
     32 C           4.3178    1.1730   -0.8623 C.ar    1  UNL1       -0.0496
     33 H           3.1447   -1.0324   -0.0294 H       1  UNL1        0.1551
     34 H           3.5846   -1.3387    3.4861 H       1  UNL1        0.0657
     35 H           3.5316   -3.7270    7.4382 H       1  UNL1        0.0657
     36 H           2.3335   -6.3835    9.7825 H       1  UNL1        0.1551
     37 H           4.0717   -7.3057   10.9144 H       1  UNL1        0.0625
     38 H           5.1015   -7.8869   13.0815 H       1  UNL1        0.0618
     39 H           5.7055   -6.1121   14.7032 H       1  UNL1        0.0618
     40 H           5.2327   -3.7319   14.1766 H       1  UNL1        0.0618
     41 H           4.1845   -3.1290   12.0270 H       1  UNL1        0.0625
     42 H           0.6970   -6.9036    8.1706 H       1  UNL1        0.0636
     43 H          -0.2890   -6.4874    5.9642 H       1  UNL1        0.0625
     44 H          -0.3027   -5.2010    3.8183 H       1  UNL1        0.0631
     45 H          -0.1770   -3.9714    1.6482 H       1  UNL1        0.0625
     46 H           0.9571   -2.3187    0.2174 H       1  UNL1        0.0636
     47 H           4.6892    2.5348    2.2406 H       1  UNL1        0.0625
     48 H           6.2667    3.9719    1.0036 H       1  UNL1        0.0618
     49 H           6.6132    3.6323   -1.4313 H       1  UNL1        0.0618
     50 H           5.3586    1.8596   -2.6269 H       1  UNL1        0.0618
     51 H           3.7679    0.4224   -1.4186 H       1  UNL1        0.0625
@<TRIPOS>BOND
     1     2     1    2
     2     3     2   am
     3     3    33    1
     4     4     3    1
     5     5     4   ar
     6     5    34    1
     7     6     5   ar
     8     7     6   ar
     9     8     7   ar
    10     9     8   ar
    11     9    35    1
    12    10     9   ar
    13    11    10    1
    14    11    36    1
    15    12    11   am
    16    13    12    2
    17    14    12    1
    18    15    14   ar
    19    15    37    1
    20    16    15   ar
    21    16    38    1
    22    17    16   ar
    23    17    39    1
    24    18    17   ar
    25    18    40    1
    26    19    18   ar
    27    19    14   ar
    28    19    41    1
    29    20    10   ar
    30    20    42    1
    31    21    20   ar
    32    21    43    1
    33    22    21   ar
    34    22     8   ar
    35    23    22   ar
    36    23    44    1
    37    24    23   ar
    38    24     6   ar
    39    25    24   ar
    40    25    45    1
    41    26    25   ar
    42    26     4   ar
    43    26    46    1
    44    27     2    1
    45    28    27   ar
    46    28    47    1
    47    29    28   ar
    48    29    48    1
    49    30    29   ar
    50    30    49    1
    51    31    30   ar
    52    31    50    1
    53    32    31   ar
    54    32    27   ar
    55    32    51    1
