@<TRIPOS>MOLECULE
mol_618_akc_jbmc200706042
>600.sdf
 57 58 0 0 0
SMALL
GASTEIGER

@<TRIPOS>ATOM
      1 C           1.0724    1.3937   -0.4342 C.3     1  UNL1       -0.0652
      2 C           2.5364    1.1885   -0.8100 C.3     1  UNL1       -0.0545
      3 C           2.7250    1.4788   -2.2911 C.3     1  UNL1       -0.0375
      4 C           4.1335    1.3257   -2.8469 C.3     1  UNL1        0.0123
      5 N           4.8523    0.0302   -2.8710 N.pl3   1  UNL1       -0.3264
      6 C           4.1730   -1.2818   -2.7535 C.3     1  UNL1        0.0123
      7 C           2.8327   -1.5137   -3.4503 C.3     1  UNL1       -0.0375
      8 C           2.8107   -1.2798   -4.9588 C.3     1  UNL1       -0.0545
      9 C           3.7035   -2.2500   -5.7185 C.3     1  UNL1       -0.0652
     10 C           6.2608    0.0410   -3.1010 C.ar    1  UNL1        0.0909
     11 C           7.1798   -0.8932   -2.5232 C.ar    1  UNL1        0.1512
     12 C           8.5684   -0.9592   -2.8232 C.ar    1  UNL1       -0.0029
     13 C           9.1175   -0.0690   -3.7336 C.ar    1  UNL1        0.1129
     14 C           8.3117    0.9117   -4.2837 C.ar    1  UNL1       -0.0029
     15 C           6.9353    0.9656   -3.9581 C.ar    1  UNL1        0.1512
     16 N           6.2873    2.0944   -4.5917 N.pl3   1  UNL1        0.0584
     17 O           6.2603    3.1540   -3.9554 O.2     1  UNL1       -0.1261
     18 O           5.8869    1.9332   -5.7552 O.2     1  UNL1       -0.1261
     19 S          10.8618   -0.0622   -4.0885 S.O2    1  UNL1        0.0725
     20 O          11.1980    1.2394   -4.6210 O.2     1  UNL1       -0.1500
     21 O          11.5270   -0.5912   -2.9178 O.2     1  UNL1       -0.1500
     22 N          11.0181   -1.2125   -5.2828 N.pl3   1  UNL1       -0.2163
     23 C          10.3958   -1.0744   -6.5435 C.ar    1  UNL1        0.0480
     24 C          10.9710   -0.2991   -7.5484 C.ar    1  UNL1       -0.0393
     25 C          10.3727   -0.2485   -8.8103 C.ar    1  UNL1       -0.0600
     26 C           9.2028   -0.9678   -9.0599 C.ar    1  UNL1       -0.0616
     27 C           8.6306   -1.7403   -8.0499 C.ar    1  UNL1       -0.0600
     28 C           9.2335   -1.8030   -6.7942 C.ar    1  UNL1       -0.0393
     29 N           6.8030   -1.7924   -1.4433 N.pl3   1  UNL1        0.0584
     30 O           6.4591   -2.9381   -1.7529 O.2     1  UNL1       -0.1261
     31 O           6.9838   -1.3785   -0.2865 O.2     1  UNL1       -0.1261
     32 H           0.9180    1.2267    0.6351 H       1  UNL1        0.0230
     33 H           0.7455    2.4127   -0.6705 H       1  UNL1        0.0230
     34 H           0.4297    0.6990   -0.9860 H       1  UNL1        0.0230
     35 H           3.1587    1.8681   -0.2165 H       1  UNL1        0.0263
     36 H           2.8342    0.1661   -0.5644 H       1  UNL1        0.0263
     37 H           1.9951    0.9470   -2.9012 H       1  UNL1        0.0280
     38 H           2.4540    2.5346   -2.4447 H       1  UNL1        0.0280
     39 H           4.0330    1.6603   -3.8826 H       1  UNL1        0.0464
     40 H           4.7505    2.0456   -2.2960 H       1  UNL1        0.0464
     41 H           4.8183   -2.0524   -3.1829 H       1  UNL1        0.0464
     42 H           4.0503   -1.5152   -1.6899 H       1  UNL1        0.0464
     43 H           2.5565   -2.5630   -3.2715 H       1  UNL1        0.0280
     44 H           2.0278   -0.9611   -2.9685 H       1  UNL1        0.0280
     45 H           1.7802   -1.4180   -5.3097 H       1  UNL1        0.0263
     46 H           3.0899   -0.2494   -5.1985 H       1  UNL1        0.0263
     47 H           4.7604   -2.0822   -5.4924 H       1  UNL1        0.0230
     48 H           3.4573   -3.2873   -5.4670 H       1  UNL1        0.0230
     49 H           3.5676   -2.1241   -6.7968 H       1  UNL1        0.0230
     50 H           9.2069   -1.6833   -2.3159 H       1  UNL1        0.0660
     51 H           8.7404    1.6519   -4.9619 H       1  UNL1        0.0660
     52 H          11.6072   -2.0195   -5.0872 H       1  UNL1        0.1737
     53 H          11.8867    0.2578   -7.3660 H       1  UNL1        0.0636
     54 H          10.8227    0.3437   -9.6037 H       1  UNL1        0.0618
     55 H           8.7403   -0.9318  -10.0436 H       1  UNL1        0.0618
     56 H           7.7215   -2.3035   -8.2455 H       1  UNL1        0.0618
     57 H           8.7931   -2.4253   -6.0209 H       1  UNL1        0.0636
@<TRIPOS>BOND
     1     1    32    1
     2     1    33    1
     3     1    34    1
     4     2     1    1
     5     2    35    1
     6     2    36    1
     7     3     2    1
     8     3    37    1
     9     3    38    1
    10     4     3    1
    11     4    39    1
    12     4    40    1
    13     5     4    1
    14     6     5    1
    15     6    41    1
    16     6    42    1
    17     7     6    1
    18     7    43    1
    19     7    44    1
    20     8     7    1
    21     8    45    1
    22     8    46    1
    23     9     8    1
    24     9    47    1
    25     9    48    1
    26     9    49    1
    27    10     5    1
    28    11    10   ar
    29    12    11   ar
    30    12    50    1
    31    13    12   ar
    32    14    13   ar
    33    14    51    1
    34    15    14   ar
    35    15    10   ar
    36    16    15    1
    37    17    16    2
    38    18    16    2
    39    19    13    1
    40    20    19    2
    41    21    19    2
    42    22    19    1
    43    22    52    1
    44    23    22    1
    45    24    23   ar
    46    24    53    1
    47    25    24   ar
    48    25    54    1
    49    26    25   ar
    50    26    55    1
    51    27    26   ar
    52    27    56    1
    53    28    27   ar
    54    28    23   ar
    55    28    57    1
    56    29    11    1
    57    30    29    2
    58    31    29    2
