@<TRIPOS>MOLECULE
mol_61_akc_c4md00298a
>61.sdf
 54 59 0 0 0
SMALL
GASTEIGER

@<TRIPOS>ATOM
      1 C           2.9259    3.4541   -4.0342 C.3     1  UNL1        0.0820
      2 O           3.7952    2.3427   -4.2510 O.3     1  UNL1       -0.4634
      3 C           3.4921    1.5973   -5.3473 C.2     1  UNL1        0.3575
      4 O           2.5633    1.8020   -6.1140 O.2     1  UNL1       -0.2432
      5 C           4.4712    0.4716   -5.4987 C.ar    1  UNL1        0.1487
      6 N           5.4316    0.3345   -4.5446 N.ar    1  UNL1       -0.2394
      7 C           6.3542   -0.6815   -4.6155 C.ar    1  UNL1        0.1046
      8 C           7.3950   -0.7355   -3.4827 C.3     1  UNL1        0.1400
      9 N           8.1778    0.5051   -3.4472 N.pl3   1  UNL1       -0.3200
     10 C           9.2270    0.5758   -4.3688 C.ar    1  UNL1        0.0410
     11 C           9.7506    1.8144   -4.7549 C.ar    1  UNL1       -0.0401
     12 C          10.8391    1.8908   -5.6312 C.ar    1  UNL1       -0.0600
     13 C          11.4357    0.7276   -6.1119 C.ar    1  UNL1       -0.0609
     14 C          10.9569   -0.5108   -5.6959 C.ar    1  UNL1       -0.0478
     15 C           9.8712   -0.5776   -4.8114 C.ar    1  UNL1        0.0581
     16 C           9.3942   -1.8853   -4.3229 C.2     1  UNL1        0.2544
     17 O           9.9461   -2.8942   -4.7615 O.2     1  UNL1       -0.2695
     18 N           8.2731   -1.9027   -3.4780 N.am    1  UNL1       -0.2427
     19 C           7.8350   -3.1259   -2.8433 C.ar    1  UNL1        0.0389
     20 C           8.7442   -4.1679   -2.5916 C.ar    1  UNL1       -0.0388
     21 C           8.3353   -5.3858   -2.0358 C.ar    1  UNL1       -0.0416
     22 C           7.0027   -5.5784   -1.7022 C.ar    1  UNL1        0.0411
     23 CL          6.4913   -7.0771   -1.0347 Cl      1  UNL1       -0.0835
     24 C           6.0832   -4.5567   -1.9074 C.ar    1  UNL1       -0.0416
     25 C           6.4970   -3.3379   -2.4650 C.ar    1  UNL1       -0.0388
     26 C           6.2429   -1.5563   -5.7146 C.ar    1  UNL1        0.0726
     27 N           6.9763   -2.6719   -6.0571 N.ar    1  UNL1       -0.3526
     28 C           6.5658   -3.2022   -7.2503 C.ar    1  UNL1        0.0475
     29 C           5.4883   -2.4402   -7.6860 C.ar    1  UNL1        0.0075
     30 C           4.8772   -2.7927   -8.9061 C.ar    1  UNL1       -0.0520
     31 C           5.3767   -3.8825   -9.6351 C.ar    1  UNL1       -0.0611
     32 C           6.4625   -4.6211   -9.1649 C.ar    1  UNL1       -0.0598
     33 C           7.0773   -4.2940   -7.9569 C.ar    1  UNL1       -0.0378
     34 C           5.2729   -1.4111   -6.7095 C.ar    1  UNL1        0.0115
     35 C           4.3450   -0.3648   -6.5982 C.ar    1  UNL1       -0.0195
     36 H           2.8942    4.1016   -4.9159 H       1  UNL1        0.0661
     37 H           1.9223    3.1058   -3.7716 H       1  UNL1        0.0661
     38 H           3.3216    4.0351   -3.1959 H       1  UNL1        0.0661
     39 H           6.8351   -0.7302   -2.5397 H       1  UNL1        0.0781
     40 H           7.5512    1.3072   -3.5230 H       1  UNL1        0.1482
     41 H           9.3133    2.7358   -4.3783 H       1  UNL1        0.0636
     42 H          11.2268    2.8612   -5.9318 H       1  UNL1        0.0618
     43 H          12.2815    0.7838   -6.7926 H       1  UNL1        0.0618
     44 H          11.4364   -1.4212   -6.0498 H       1  UNL1        0.0626
     45 H           9.8042   -4.0574   -2.8097 H       1  UNL1        0.0637
     46 H           9.0681   -6.1717   -1.8726 H       1  UNL1        0.0633
     47 H           5.0373   -4.7019   -1.6478 H       1  UNL1        0.0633
     48 H           5.7201   -2.5956   -2.6223 H       1  UNL1        0.0637
     49 H           7.7397   -3.0651   -5.5228 H       1  UNL1        0.1660
     50 H           4.0342   -2.2258   -9.2891 H       1  UNL1        0.0624
     51 H           4.9149   -4.1532  -10.5809 H       1  UNL1        0.0618
     52 H           6.8383   -5.4591   -9.7447 H       1  UNL1        0.0618
     53 H           7.9249   -4.8631   -7.5860 H       1  UNL1        0.0638
     54 H           3.5677   -0.2143   -7.3391 H       1  UNL1        0.0648
@<TRIPOS>BOND
     1     1    36    1
     2     1    37    1
     3     1    38    1
     4     2     1    1
     5     3     2    1
     6     4     3    2
     7     5     3    1
     8     6     5   ar
     9     7     6   ar
    10     9     8    1
    11     9    40    1
    12    10     9    1
    13    11    10   ar
    14    11    41    1
    15    12    11   ar
    16    12    42    1
    17    13    12   ar
    18    13    43    1
    19    14    13   ar
    20    14    44    1
    21    15    14   ar
    22    15    10   ar
    23    16    15    1
    24    17    16    2
    25    18    16   am
    26    18     8    1
    27    19    18    1
    28    20    19   ar
    29    20    45    1
    30    21    20   ar
    31    21    46    1
    32    22    21   ar
    33    23    22    1
    34    24    22   ar
    35    24    47    1
    36    25    24   ar
    37    25    19   ar
    38    25    48    1
    39    26     7   ar
    40    27    26   ar
    41    27    49    1
    42    28    27   ar
    43    29    28   ar
    44    30    29   ar
    45    30    50    1
    46    31    30   ar
    47    31    51    1
    48    32    31   ar
    49    32    52    1
    50    33    32   ar
    51    33    28   ar
    52    33    53    1
    53    34    29   ar
    54    34    26   ar
    55    35    34   ar
    56    35     5   ar
    57    35    54    1
    58     8    39    1
    59     8     7    1
