@<TRIPOS>MOLECULE
mol_621_akc_jjep200703025
>603.sdf
 35 38 0 0 0
SMALL
GASTEIGER

@<TRIPOS>ATOM
      1 C           4.6115    2.0783   -2.5071 C.3     1  UNL1        0.0820
      2 O           3.5801    1.1074   -2.3183 O.3     1  UNL1       -0.4646
      3 C           3.2876    0.8566   -1.0188 C.2     1  UNL1        0.3384
      4 O           3.8571    1.3557   -0.0574 O.2     1  UNL1       -0.2452
      5 C           2.1458   -0.0880   -0.8796 C.2     1  UNL1        0.0781
      6 C           1.6365   -0.7301   -1.9360 C.2     1  UNL1        0.0984
      7 O           0.6110   -1.6189   -1.9215 O.2     1  UNL1       -0.4701
      8 C           0.1111   -2.0987   -0.6764 C.3     1  UNL1        0.2093
      9 O          -1.3297   -2.0524   -0.7254 O.3     1  UNL1       -0.3286
     10 C          -1.6908   -0.8115   -0.1203 C.3     1  UNL1        0.1377
     11 C          -2.9877   -0.8893    0.5738 C.2     1  UNL1        0.0652
     12 C          -4.1996   -0.5150    0.1277 C.2     1  UNL1       -0.0745
     13 C          -4.4662    0.0133   -1.2435 C.3     1  UNL1       -0.0460
     14 C          -2.7240   -1.2964    1.9722 C.2     1  UNL1        0.3384
     15 O          -3.5545   -1.5641    2.8197 O.2     1  UNL1       -0.2452
     16 O          -1.3701   -1.2846    2.1668 O.3     1  UNL1       -0.4470
     17 C          -0.7538   -0.6594    1.0462 C.3     1  UNL1        0.1716
     18 C          -0.3407    0.7319    1.3734 C.2     1  UNL1       -0.0409
     19 C           0.9382    0.9379    1.0509 C.2     1  UNL1       -0.0758
     20 C           1.6145   -0.2938    0.4994 C.3     1  UNL1        0.0246
     21 C           0.5224   -1.3702    0.6069 C.3     1  UNL1        0.0784
     22 H           5.5815    1.6584   -2.2240 H       1  UNL1        0.0661
     23 H           4.4022    2.9891   -1.9363 H       1  UNL1        0.0661
     24 H           4.6389    2.3402   -3.5681 H       1  UNL1        0.0661
     25 H           1.9819   -0.5956   -2.9555 H       1  UNL1        0.1029
     26 H           0.3926   -3.1560   -0.6156 H       1  UNL1        0.1060
     27 H          -1.6049   -0.0024   -0.8535 H       1  UNL1        0.0694
     28 H          -5.0535   -0.5761    0.8003 H       1  UNL1        0.0575
     29 H          -3.5721    0.0426   -1.8724 H       1  UNL1        0.0272
     30 H          -4.8576    1.0324   -1.1763 H       1  UNL1        0.0272
     31 H          -5.2059   -0.6139   -1.7494 H       1  UNL1        0.0272
     32 H          -1.0038    1.4756    1.7908 H       1  UNL1        0.0609
     33 H           1.4465    1.8870    1.1833 H       1  UNL1        0.0576
     34 H           2.4400   -0.5677    1.1685 H       1  UNL1        0.0401
     35 H           0.8135   -2.1187    1.3575 H       1  UNL1        0.0414
@<TRIPOS>BOND
     1     1    22    1
     2     1    23    1
     3     1    24    1
     4     2     1    1
     5     3     2    1
     6     4     3    2
     7     5     3    1
     8     6     5    2
     9     6    25    1
    10     7     6    1
    11     8     7    1
    12     8    26    1
    13     9     8    1
    14    10     9    1
    15    10    27    1
    16    11    10    1
    17    12    11    2
    18    12    28    1
    19    13    12    1
    20    13    29    1
    21    13    30    1
    22    13    31    1
    23    14    11    1
    24    15    14    2
    25    16    14    1
    26    17    16    1
    27    17    10    1
    28    18    17    1
    29    18    32    1
    30    19    18    2
    31    19    33    1
    32    20    19    1
    33    20     5    1
    34    20    34    1
    35    21    20    1
    36    21     8    1
    37    21    17    1
    38    21    35    1
