@<TRIPOS>MOLECULE
mol_622_akc_157018007784620031
>604.sdf
 38 40 0 0 0
SMALL
GASTEIGER

@<TRIPOS>ATOM
      1 C           0.9485   -0.1083    0.1823 C.3     1  UNL1       -0.0586
      2 C           2.4603   -0.0564   -0.0752 C.3     1  UNL1       -0.0195
      3 C           3.2364   -0.1846    1.2389 C.3     1  UNL1       -0.0586
      4 C           2.8838   -1.1191   -1.0892 C.ar    1  UNL1       -0.0188
      5 C           3.4897   -0.7520   -2.3075 C.ar    1  UNL1        0.0753
      6 N           3.7705    0.5450   -2.5702 N.ar    1  UNL1       -0.2463
      7 C           4.3376    0.8981   -3.7487 C.ar    1  UNL1        0.0734
      8 C           4.6440   -0.0486   -4.7171 C.ar    1  UNL1       -0.0321
      9 C           4.3674   -1.3966   -4.4802 C.ar    1  UNL1       -0.0393
     10 C           4.6937   -2.3959   -5.5576 C.3     1  UNL1       -0.0390
     11 C           3.7919   -1.7717   -3.2458 C.ar    1  UNL1        0.0036
     12 C           3.5138   -3.1184   -2.9274 C.ar    1  UNL1       -0.0523
     13 C           2.9493   -3.4696   -1.7089 C.ar    1  UNL1       -0.0608
     14 C           2.6344   -2.4760   -0.7966 C.ar    1  UNL1       -0.0563
     15 C           4.6286    2.3298   -3.9335 C.ar    1  UNL1        0.0185
     16 C           4.5881    2.9600   -5.1881 C.ar    1  UNL1       -0.0497
     17 C           4.9186    4.3083   -5.3216 C.ar    1  UNL1       -0.0430
     18 C           5.2807    5.0090   -4.1861 C.ar    1  UNL1        0.0276
     19 N           5.3210    4.4614   -2.9552 N.ar    1  UNL1       -0.2626
     20 C           4.9887    3.1462   -2.8600 C.ar    1  UNL1        0.0367
     21 H           0.6410    0.7103    0.8417 H       1  UNL1        0.0235
     22 H           0.3893   -0.0134   -0.7553 H       1  UNL1        0.0235
     23 H           0.6420   -1.0459    0.6592 H       1  UNL1        0.0235
     24 H           2.6724    0.9430   -0.4723 H       1  UNL1        0.0344
     25 H           3.0469   -1.1405    1.7390 H       1  UNL1        0.0235
     26 H           4.3151   -0.1065    1.0646 H       1  UNL1        0.0235
     27 H           2.9502    0.6130    1.9333 H       1  UNL1        0.0235
     28 H           5.1159    0.2502   -5.6471 H       1  UNL1        0.0642
     29 H           5.4281   -3.1229   -5.1973 H       1  UNL1        0.0278
     30 H           3.7847   -2.9149   -5.8795 H       1  UNL1        0.0278
     31 H           5.1197   -1.9105   -6.4424 H       1  UNL1        0.0278
     32 H           3.7412   -3.9172   -3.6285 H       1  UNL1        0.0624
     33 H           2.7479   -4.5119   -1.4769 H       1  UNL1        0.0618
     34 H           2.1814   -2.7628    0.1498 H       1  UNL1        0.0621
     35 H           4.2883    2.4103   -6.0769 H       1  UNL1        0.0625
     36 H           4.8932    4.7967   -6.2893 H       1  UNL1        0.0633
     37 H           5.5538    6.0589   -4.2381 H       1  UNL1        0.0829
     38 H           5.0393    2.7452   -1.8497 H       1  UNL1        0.0836
@<TRIPOS>BOND
     1     1    21    1
     2     1    22    1
     3     1    23    1
     4     2     1    1
     5     2    24    1
     6     3     2    1
     7     3    25    1
     8     3    26    1
     9     3    27    1
    10     4     2    1
    11     5     4   ar
    12     6     5   ar
    13     7     6   ar
    14     8     7   ar
    15     8    28    1
    16     9     8   ar
    17    10     9    1
    18    10    29    1
    19    10    30    1
    20    10    31    1
    21    11     9   ar
    22    11     5   ar
    23    12    11   ar
    24    12    32    1
    25    13    12   ar
    26    13    33    1
    27    14    13   ar
    28    14     4   ar
    29    14    34    1
    30    15     7    1
    31    16    15   ar
    32    16    35    1
    33    17    16   ar
    34    17    36    1
    35    18    17   ar
    36    18    37    1
    37    19    18   ar
    38    20    19   ar
    39    20    15   ar
    40    20    38    1
