@<TRIPOS>MOLECULE
mol_624_akc_jejmech200607013
>606.sdf
 21 21 0 0 0
SMALL
GASTEIGER

@<TRIPOS>ATOM
      1 O           3.5042   -0.5823   -0.6547 O.3     1  UNL1       -0.3819
      2 C           2.4108    0.0715   -0.0059 C.3     1  UNL1        0.1142
      3 C           1.8566   -0.7995    1.0966 C.2     1  UNL1        0.0550
      4 C           2.3515   -2.0009    1.4550 C.2     1  UNL1       -0.0825
      5 C           0.6239   -0.3177    1.8441 C.1     1  UNL1        0.0972
      6 N          -0.3987    0.0819    2.4642 N.1     1  UNL1       -0.1911
      7 C           2.8541    1.4517    0.4547 C.ar    1  UNL1       -0.0141
      8 C           2.2378    2.5919   -0.0900 C.ar    1  UNL1       -0.0547
      9 C           2.6422    3.8745    0.2857 C.ar    1  UNL1       -0.0474
     10 C           3.6717    4.0297    1.2108 C.ar    1  UNL1        0.0179
     11 BR          4.2354    5.7664    1.7034 Br      1  UNL1       -0.0503
     12 C           4.2917    2.9158    1.7685 C.ar    1  UNL1       -0.0474
     13 C           3.8819    1.6314    1.3984 C.ar    1  UNL1       -0.0547
     14 H           4.3179   -0.3492   -0.1854 H       1  UNL1        0.2107
     15 H           1.6296    0.1744   -0.7698 H       1  UNL1        0.0701
     16 H           1.8965   -2.5914    2.2457 H       1  UNL1        0.0545
     17 H           3.2100   -2.4385    0.9550 H       1  UNL1        0.0545
     18 H           1.4353    2.4908   -0.8191 H       1  UNL1        0.0622
     19 H           2.1509    4.7399   -0.1473 H       1  UNL1        0.0629
     20 H           5.0974    3.0351    2.4911 H       1  UNL1        0.0629
     21 H           4.3784    0.7763    1.8504 H       1  UNL1        0.0622
@<TRIPOS>BOND
     1     1    14    1
     2     2     1    1
     3     2    15    1
     4     3     2    1
     5     4     3    2
     6     4    16    1
     7     4    17    1
     8     5     3    1
     9     6     5    3
    10     7     2    1
    11     8     7   ar
    12     8    18    1
    13     9     8   ar
    14     9    19    1
    15    10     9   ar
    16    11    10    1
    17    12    10   ar
    18    12    20    1
    19    13    12   ar
    20    13     7   ar
    21    13    21    1
