@<TRIPOS>MOLECULE
mol_628_akc_ge_632r11
>609.sdf
 90 89 0 0 0
SMALL
GASTEIGER

@<TRIPOS>ATOM
      1 C           0.9334   -0.4383   -0.4999 C.3     1  UNL1       -0.0653
      2 C           2.4514   -0.4123   -0.4416 C.3     1  UNL1       -0.0559
      3 C           2.9860   -1.5149    0.4681 C.3     1  UNL1       -0.0533
      4 C           4.5128   -1.4920    0.5276 C.3     1  UNL1       -0.0531
      5 C           5.0369   -2.5990    1.4371 C.3     1  UNL1       -0.0531
      6 C           6.5601   -2.5797    1.4971 C.3     1  UNL1       -0.0531
      7 C           7.0822   -3.6871    2.4076 C.3     1  UNL1       -0.0531
      8 C           8.6054   -3.6624    2.4669 C.3     1  UNL1       -0.0531
      9 C           9.1342   -4.7660    3.3764 C.3     1  UNL1       -0.0531
     10 C          10.6578   -4.7307    3.4279 C.3     1  UNL1       -0.0531
     11 C          11.2005   -5.8291    4.3348 C.3     1  UNL1       -0.0531
     12 C          12.7249   -5.7862    4.3796 C.3     1  UNL1       -0.0531
     13 C          13.2671   -6.8817    5.2884 C.3     1  UNL1       -0.0530
     14 C          14.7940   -6.8535    5.3490 C.3     1  UNL1       -0.0523
     15 C          15.2958   -7.9651    6.2662 C.3     1  UNL1       -0.0440
     16 C          16.8170   -7.9839    6.3722 C.3     1  UNL1       -0.0063
     17 S          17.2661   -9.3540    7.4793 S.3     1  UNL1       -0.1603
     18 C          19.0841   -9.1844    7.4407 C.3     1  UNL1        0.0007
     19 C          19.7724  -10.2525    8.3097 C.3     1  UNL1        0.0152
     20 C          19.4388  -11.6862    7.8725 C.3     1  UNL1        0.0530
     21 O          20.1013  -12.6211    8.7337 O.3     1  UNL1       -0.3826
     22 C          19.7952  -13.9650    8.3798 C.3     1  UNL1        0.0365
     23 C          21.2911  -10.0478    8.2760 C.3     1  UNL1        0.0605
     24 O          21.6244   -8.7652    8.7804 O.3     1  UNL1       -0.3271
     25 P          23.3340   -8.5008    8.7727 P.3     1  UNL1        0.2127
     26 O          23.2717   -7.9297    7.3566 O.2     1  UNL1       -0.5172
     27 O          23.2420   -7.6009   10.0100 O.co2   1  UNL1       -0.4373
     28 O          25.0437   -8.2364    8.7649 O.3     1  UNL1       -0.3221
     29 C          25.6893   -9.0480    9.7250 C.3     1  UNL1        0.0947
     30 C          27.1801   -8.7450    9.7230 C.3     1  UNL1       -0.0064
     31 N          27.5552   -7.2866   10.0879 N.4     1  UNL1        0.2385
     32 C          26.9861   -6.3086    9.0469 C.3     1  UNL1       -0.0417
     33 C          26.9945   -6.9082   11.4492 C.3     1  UNL1       -0.0417
     34 C          29.0649   -7.1785   10.0920 C.3     1  UNL1       -0.0417
     35 H           0.5659    0.3587   -1.1567 H       1  UNL1        0.0230
     36 H           0.5736   -1.3960   -0.8896 H       1  UNL1        0.0230
     37 H           0.5015   -0.2883    0.4947 H       1  UNL1        0.0230
     38 H           2.8552   -0.5355   -1.4537 H       1  UNL1        0.0263
     39 H           2.7833    0.5663   -0.0762 H       1  UNL1        0.0263
     40 H           2.5781   -1.3904    1.4787 H       1  UNL1        0.0265
     41 H           2.6483   -2.4922    0.1017 H       1  UNL1        0.0265
     42 H           4.9232   -1.6175   -0.4819 H       1  UNL1        0.0265
     43 H           4.8534   -0.5171    0.8968 H       1  UNL1        0.0265
     44 H           4.6262   -2.4737    2.4464 H       1  UNL1        0.0265
     45 H           4.6954   -3.5737    1.0674 H       1  UNL1        0.0265
     46 H           6.9724   -2.7062    0.4888 H       1  UNL1        0.0265
     47 H           6.9036   -1.6055    1.8672 H       1  UNL1        0.0265
     48 H           6.6710   -3.5622    3.4168 H       1  UNL1        0.0265
     49 H           6.7421   -4.6620    2.0375 H       1  UNL1        0.0265
     50 H           9.0161   -3.7878    1.4574 H       1  UNL1        0.0265
     51 H           8.9448   -2.6868    2.8352 H       1  UNL1        0.0265
     52 H           8.7259   -4.6416    4.3867 H       1  UNL1        0.0265
     53 H           8.7979   -5.7431    3.0089 H       1  UNL1        0.0265
     54 H          11.0641   -4.8535    2.4163 H       1  UNL1        0.0265
     55 H          10.9918   -3.7520    3.7941 H       1  UNL1        0.0265
     56 H          10.7954   -5.7064    5.3468 H       1  UNL1        0.0265
     57 H          10.8669   -6.8084    3.9697 H       1  UNL1        0.0265
     58 H          13.1284   -5.9117    3.3673 H       1  UNL1        0.0265
     59 H          13.0571   -4.8063    4.7427 H       1  UNL1        0.0265
     60 H          12.8570   -6.7569    6.2985 H       1  UNL1        0.0265
     61 H          12.9318   -7.8608    4.9245 H       1  UNL1        0.0265
     62 H          15.2092   -6.9836    4.3420 H       1  UNL1        0.0266
     63 H          15.1342   -5.8800    5.7207 H       1  UNL1        0.0266
     64 H          14.8542   -7.8278    7.2618 H       1  UNL1        0.0273
     65 H          14.9353   -8.9282    5.8816 H       1  UNL1        0.0273
     66 H          17.2683   -8.1431    5.3871 H       1  UNL1        0.0376
     67 H          17.1867   -7.0400    6.7848 H       1  UNL1        0.0376
     68 H          19.4204   -9.2686    6.4015 H       1  UNL1        0.0380
     69 H          19.3326   -8.1806    7.8009 H       1  UNL1        0.0380
     70 H          19.4505  -10.1148    9.3517 H       1  UNL1        0.0353
     71 H          18.3635  -11.8774    7.9327 H       1  UNL1        0.0563
     72 H          19.7665  -11.8568    6.8393 H       1  UNL1        0.0563
     73 H          18.7159  -14.1376    8.4129 H       1  UNL1        0.0523
     74 H          20.1866  -14.1906    7.3851 H       1  UNL1        0.0523
     75 H          20.2768  -14.6259    9.1057 H       1  UNL1        0.0523
     76 H          21.7981  -10.7918    8.8996 H       1  UNL1        0.0568
     77 H          21.6708  -10.1453    7.2527 H       1  UNL1        0.0568
     78 H          25.2563   -8.9045   10.7191 H       1  UNL1        0.0618
     79 H          25.5360  -10.0972    9.4485 H       1  UNL1        0.0618
     80 H          27.6895   -9.3912   10.4481 H       1  UNL1        0.0838
     81 H          27.6045   -8.9290    8.7290 H       1  UNL1        0.0838
     82 H          25.9154   -6.1738    9.2082 H       1  UNL1        0.0778
     83 H          27.4804   -5.3426    9.1916 H       1  UNL1        0.0778
     84 H          27.2107   -6.6950    8.0480 H       1  UNL1        0.0778
     85 H          27.3331   -7.6522   12.1778 H       1  UNL1        0.0778
     86 H          27.3779   -5.9194   11.7141 H       1  UNL1        0.0778
     87 H          25.9038   -6.8825   11.4024 H       1  UNL1        0.0778
     88 H          29.4610   -7.8668   10.8444 H       1  UNL1        0.0778
     89 H          29.4365   -7.4434    9.0991 H       1  UNL1        0.0778
     90 H          29.3432   -6.1498   10.3408 H       1  UNL1        0.0778
@<TRIPOS>UNITY_ATOM_ATTR
27 1
charge -1
31 1
charge 1
@<TRIPOS>BOND
     1     1    35    1
     2     1    36    1
     3     1    37    1
     4     2     1    1
     5     2    38    1
     6     2    39    1
     7     3     2    1
     8     3    40    1
     9     3    41    1
    10     4     3    1
    11     4    42    1
    12     4    43    1
    13     5     4    1
    14     5    44    1
    15     5    45    1
    16     6     5    1
    17     6    46    1
    18     6    47    1
    19     7     6    1
    20     7    48    1
    21     7    49    1
    22     8     7    1
    23     8    50    1
    24     8    51    1
    25     9     8    1
    26     9    52    1
    27     9    53    1
    28    10     9    1
    29    10    54    1
    30    10    55    1
    31    11    10    1
    32    11    56    1
    33    11    57    1
    34    12    11    1
    35    12    58    1
    36    12    59    1
    37    13    12    1
    38    13    60    1
    39    13    61    1
    40    14    13    1
    41    14    62    1
    42    14    63    1
    43    15    14    1
    44    15    64    1
    45    15    65    1
    46    16    15    1
    47    16    66    1
    48    16    67    1
    49    17    16    1
    50    18    17    1
    51    18    68    1
    52    18    69    1
    53    19    18    1
    54    19    70    1
    55    20    19    1
    56    20    71    1
    57    20    72    1
    58    21    20    1
    59    22    21    1
    60    22    73    1
    61    22    74    1
    62    22    75    1
    63    23    19    1
    64    23    76    1
    65    23    77    1
    66    24    23    1
    67    25    24    1
    68    26    25    2
    69    27    25    1
    70    28    25    1
    71    29    28    1
    72    29    78    1
    73    29    79    1
    74    30    29    1
    75    30    80    1
    76    30    81    1
    77    31    30    1
    78    32    31    1
    79    32    82    1
    80    32    83    1
    81    32    84    1
    82    33    31    1
    83    33    85    1
    84    33    86    1
    85    33    87    1
    86    34    31    1
    87    34    88    1
    88    34    89    1
    89    34    90    1
