@<TRIPOS>MOLECULE
mol_629_akc_jejmech200603033
>610.sdf
 80 83 0 0 0
SMALL
GASTEIGER

@<TRIPOS>ATOM
      1 C           7.2848    4.6525    1.1833 C.3     1  UNL1       -0.0627
      2 C           6.7144    3.2912    0.7838 C.3     1  UNL1       -0.0467
      3 C           7.2003    2.9205   -0.6200 C.3     1  UNL1       -0.0627
      4 C           7.1018    2.2445    1.8446 C.3     1  UNL1       -0.0507
      5 C           6.5669    0.8430    1.5447 C.3     1  UNL1       -0.0526
      6 C           6.9925   -0.1542    2.6275 C.3     1  UNL1       -0.0502
      7 C           6.5259   -1.6102    2.3602 C.3     1  UNL1       -0.0405
      8 C           7.0948   -2.1033    1.0235 C.3     1  UNL1       -0.0621
      9 C           6.9330   -2.5244    3.5521 C.3     1  UNL1       -0.0328
     10 C           6.2910   -2.0601    4.8942 C.3     1  UNL1       -0.0492
     11 C           5.8623   -3.3158    5.6559 C.3     1  UNL1       -0.0491
     12 C           6.6621   -4.4192    4.9851 C.3     1  UNL1       -0.0315
     13 C           6.2540   -5.8689    5.2667 C.3     1  UNL1       -0.0230
     14 C           6.2606   -6.2316    6.7799 C.3     1  UNL1        0.0208
     15 C           7.5427   -5.7827    7.5192 C.3     1  UNL1       -0.0287
     16 N           7.4814   -6.1290    8.9657 N.4     1  UNL1        0.2189
     17 C           6.0302   -7.7111    6.9707 C.2     1  UNL1       -0.0758
     18 C           6.1998   -8.6472    6.0206 C.2     1  UNL1       -0.0644
     19 C           5.9401  -10.1074    6.3360 C.3     1  UNL1       -0.0051
     20 C           7.1207  -10.9910    5.9281 C.3     1  UNL1        0.0590
     21 O           6.7695  -12.3503    6.1533 O.3     1  UNL1       -0.3915
     22 C           7.4897  -10.7782    4.4623 C.3     1  UNL1       -0.0258
     23 C           7.7779   -9.3047    4.1675 C.3     1  UNL1       -0.0413
     24 C           6.6313   -8.3353    4.5781 C.3     1  UNL1       -0.0078
     25 C           5.4076   -8.5717    3.6548 C.3     1  UNL1       -0.0556
     26 C           7.1592   -6.8498    4.4606 C.3     1  UNL1       -0.0281
     27 C           7.4328   -6.4069    2.9961 C.3     1  UNL1       -0.0486
     28 C           7.6915   -4.9067    2.8113 C.3     1  UNL1       -0.0468
     29 C           6.6022   -4.0489    3.4832 C.3     1  UNL1       -0.0259
     30 C           5.2105   -4.3050    2.8544 C.3     1  UNL1       -0.0590
     31 H           6.9884    5.4258    0.4670 H       1  UNL1        0.0232
     32 H           6.9194    4.9537    2.1708 H       1  UNL1        0.0232
     33 H           8.3797    4.6273    1.2204 H       1  UNL1        0.0232
     34 H           5.6204    3.3744    0.7556 H       1  UNL1        0.0295
     35 H           8.2756    2.7129   -0.6261 H       1  UNL1        0.0232
     36 H           6.6788    2.0385   -1.0029 H       1  UNL1        0.0232
     37 H           7.0087    3.7355   -1.3267 H       1  UNL1        0.0232
     38 H           8.1953    2.1999    1.9314 H       1  UNL1        0.0268
     39 H           6.7222    2.5688    2.8221 H       1  UNL1        0.0268
     40 H           5.4735    0.8662    1.4701 H       1  UNL1        0.0265
     41 H           6.9597    0.5227    0.5780 H       1  UNL1        0.0265
     42 H           8.0863   -0.1399    2.7225 H       1  UNL1        0.0268
     43 H           6.5931    0.1999    3.5852 H       1  UNL1        0.0268
     44 H           5.4306   -1.6005    2.2821 H       1  UNL1        0.0301
     45 H           8.1883   -2.0724    1.0238 H       1  UNL1        0.0233
     46 H           6.7831   -3.1201    0.7843 H       1  UNL1        0.0233
     47 H           6.7329   -1.5010    0.1859 H       1  UNL1        0.0233
     48 H           8.0228   -2.4267    3.6735 H       1  UNL1        0.0309
     49 H           5.4290   -1.4000    4.7548 H       1  UNL1        0.0268
     50 H           7.0383   -1.5079    5.4778 H       1  UNL1        0.0268
     51 H           4.7844   -3.4797    5.5507 H       1  UNL1        0.0268
     52 H           6.0716   -3.2216    6.7252 H       1  UNL1        0.0268
     53 H           7.7080   -4.2982    5.3133 H       1  UNL1        0.0309
     54 H           5.2173   -5.9975    4.9319 H       1  UNL1        0.0314
     55 H           5.4084   -5.7128    7.2399 H       1  UNL1        0.0398
     56 H           8.4442   -6.2629    7.1280 H       1  UNL1        0.0819
     57 H           7.6772   -4.6994    7.4938 H       1  UNL1        0.0819
     58 H           6.6386   -5.7477    9.4141 H       1  UNL1        0.1994
     59 H           7.4792   -7.1501    9.1021 H       1  UNL1        0.1994
     60 H           8.2977   -5.7587    9.4686 H       1  UNL1        0.1994
     61 H           5.6594   -8.0301    7.9457 H       1  UNL1        0.0577
     62 H           5.0257  -10.4435    5.8320 H       1  UNL1        0.0335
     63 H           5.7413  -10.2578    7.4053 H       1  UNL1        0.0335
     64 H           7.9853  -10.7620    6.5635 H       1  UNL1        0.0596
     65 H           7.4771  -12.9122    5.7926 H       1  UNL1        0.2098
     66 H           8.3718  -11.3813    4.2145 H       1  UNL1        0.0290
     67 H           6.6898  -11.1537    3.8128 H       1  UNL1        0.0290
     68 H           8.6992   -9.0279    4.6978 H       1  UNL1        0.0274
     69 H           7.9963   -9.2046    3.0977 H       1  UNL1        0.0274
     70 H           4.6136   -7.8404    3.8361 H       1  UNL1        0.0238
     71 H           5.6791   -8.5203    2.5962 H       1  UNL1        0.0238
     72 H           4.9605   -9.5612    3.7942 H       1  UNL1        0.0238
     73 H           8.1467   -6.8170    4.9456 H       1  UNL1        0.0312
     74 H           8.3064   -6.9499    2.6138 H       1  UNL1        0.0268
     75 H           6.6047   -6.6778    2.3379 H       1  UNL1        0.0268
     76 H           8.6757   -4.6670    3.2333 H       1  UNL1        0.0271
     77 H           7.7671   -4.7004    1.7407 H       1  UNL1        0.0271
     78 H           4.4210   -3.7353    3.3540 H       1  UNL1        0.0235
     79 H           5.1815   -4.0290    1.7979 H       1  UNL1        0.0235
     80 H           4.9145   -5.3563    2.8929 H       1  UNL1        0.0235
@<TRIPOS>UNITY_ATOM_ATTR
16 1
charge 1
@<TRIPOS>BOND
     1     1    31    1
     2     1    32    1
     3     1    33    1
     4     2     1    1
     5     2    34    1
     6     3     2    1
     7     3    35    1
     8     3    36    1
     9     3    37    1
    10     4     2    1
    11     4    38    1
    12     4    39    1
    13     5     4    1
    14     5    40    1
    15     5    41    1
    16     6     5    1
    17     6    42    1
    18     6    43    1
    19     7     6    1
    20     7    44    1
    21     8     7    1
    22     8    45    1
    23     8    46    1
    24     8    47    1
    25     9     7    1
    26     9    48    1
    27    10     9    1
    28    10    49    1
    29    10    50    1
    30    11    10    1
    31    11    51    1
    32    11    52    1
    33    12    11    1
    34    12    53    1
    35    13    12    1
    36    13    54    1
    37    14    13    1
    38    14    55    1
    39    15    14    1
    40    15    56    1
    41    15    57    1
    42    16    15    1
    43    16    58    1
    44    16    59    1
    45    16    60    1
    46    17    14    1
    47    17    61    1
    48    18    17    2
    49    19    18    1
    50    19    62    1
    51    19    63    1
    52    20    19    1
    53    20    64    1
    54    21    20    1
    55    21    65    1
    56    22    20    1
    57    22    66    1
    58    22    67    1
    59    23    22    1
    60    23    68    1
    61    23    69    1
    62    24    23    1
    63    24    18    1
    64    24    25    1
    65    25    70    1
    66    25    71    1
    67    25    72    1
    68    26    24    1
    69    26    13    1
    70    26    73    1
    71    27    26    1
    72    27    74    1
    73    27    75    1
    74    28    27    1
    75    28    76    1
    76    28    77    1
    77    29    28    1
    78    29     9    1
    79    29    12    1
    80    29    30    1
    81    30    78    1
    82    30    79    1
    83    30    80    1
