@<TRIPOS>MOLECULE
mol_62_akc_c4md00298a
>61_alt.sdf
 54 59 0 0 0
SMALL
GASTEIGER

@<TRIPOS>ATOM
      1 C           1.3641    2.4281   -0.5031 C.3     1  UNL1        0.0820
      2 O           2.7786    2.2490   -0.4616 O.3     1  UNL1       -0.4634
      3 C           3.1932    0.9579   -0.5762 C.2     1  UNL1        0.3575
      4 O           2.4685   -0.0161   -0.6997 O.2     1  UNL1       -0.2432
      5 C           4.6900    0.8962   -0.5459 C.ar    1  UNL1        0.1487
      6 N           5.3536    2.0720   -0.3637 N.ar    1  UNL1       -0.2394
      7 C           6.7157    2.0899   -0.3751 C.ar    1  UNL1        0.1046
      8 C           7.4484    3.4383   -0.3754 C.3     1  UNL1        0.1400
      9 N           8.2481    3.4685    0.8554 N.pl3   1  UNL1       -0.3200
     10 C           9.1340    4.5431    0.9627 C.ar    1  UNL1        0.0410
     11 C           9.5994    4.9441    2.2211 C.ar    1  UNL1       -0.0401
     12 C          10.5620    5.9510    2.3400 C.ar    1  UNL1       -0.0600
     13 C          11.0916    6.5525    1.2011 C.ar    1  UNL1       -0.0609
     14 C          10.6740    6.1302   -0.0590 C.ar    1  UNL1       -0.0478
     15 C           9.7119    5.1182   -0.1706 C.ar    1  UNL1        0.0581
     16 C           9.3548    4.5702   -1.4938 C.2     1  UNL1        0.2544
     17 O           9.9968    4.9524   -2.4723 O.2     1  UNL1       -0.2695
     18 N           8.3287    3.6332   -1.5393 N.am    1  UNL1       -0.2427
     19 C           8.0256    2.9986   -2.7821 C.ar    1  UNL1        0.0389
     20 C           9.0443    2.2800   -3.4269 C.ar    1  UNL1       -0.0388
     21 C           8.7458    1.4350   -4.4975 C.ar    1  UNL1       -0.0416
     22 C           7.4373    1.3484   -4.9636 C.ar    1  UNL1        0.0411
     23 CL          7.0601    0.2759   -6.2542 Cl      1  UNL1       -0.0835
     24 C           6.4286    2.1124   -4.3800 C.ar    1  UNL1       -0.0416
     25 C           6.7207    2.9319   -3.2852 C.ar    1  UNL1       -0.0388
     26 C           7.3734    0.8569   -0.5052 C.ar    1  UNL1        0.0726
     27 N           8.7235    0.5900   -0.5152 N.ar    1  UNL1       -0.3526
     28 C           8.9622   -0.7180   -0.8443 C.ar    1  UNL1        0.0475
     29 C           7.7196   -1.3389   -0.9731 C.ar    1  UNL1        0.0075
     30 C           7.6928   -2.7045   -1.3229 C.ar    1  UNL1       -0.0520
     31 C           8.8994   -3.3861   -1.5310 C.ar    1  UNL1       -0.0611
     32 C          10.1223   -2.7312   -1.3947 C.ar    1  UNL1       -0.0598
     33 C          10.1769   -1.3821   -1.0460 C.ar    1  UNL1       -0.0378
     34 C           6.7128   -0.3447   -0.7341 C.ar    1  UNL1        0.0115
     35 C           5.3098   -0.3345   -0.7507 C.ar    1  UNL1       -0.0195
     36 H           0.9380    1.9759   -1.4038 H       1  UNL1        0.0661
     37 H           0.9044    2.0113    0.3977 H       1  UNL1        0.0661
     38 H           1.1627    3.5030   -0.5306 H       1  UNL1        0.0661
     39 H           6.7168    4.2568   -0.3620 H       1  UNL1        0.0781
     40 H           7.6523    3.3741    1.6760 H       1  UNL1        0.1482
     41 H           9.2234    4.4684    3.1234 H       1  UNL1        0.0636
     42 H          10.9106    6.2538    3.3250 H       1  UNL1        0.0618
     43 H          11.8489    7.3274    1.2919 H       1  UNL1        0.0618
     44 H          11.1161    6.5684   -0.9514 H       1  UNL1        0.0626
     45 H          10.0635    2.3077   -3.0486 H       1  UNL1        0.0637
     46 H           9.5322    0.8286   -4.9380 H       1  UNL1        0.0633
     47 H           5.4100    2.0549   -4.7538 H       1  UNL1        0.0633
     48 H           5.9132    3.5000   -2.8295 H       1  UNL1        0.0637
     49 H           9.4398    1.2910   -0.3736 H       1  UNL1        0.1660
     50 H           6.7482   -3.2245   -1.4510 H       1  UNL1        0.0624
     51 H           8.8822   -4.4369   -1.8099 H       1  UNL1        0.0618
     52 H          11.0479   -3.2765   -1.5659 H       1  UNL1        0.0618
     53 H          11.1286   -0.8678   -0.9488 H       1  UNL1        0.0638
     54 H           4.7364   -1.2356   -0.9372 H       1  UNL1        0.0648
@<TRIPOS>BOND
     1     1    36    1
     2     1    37    1
     3     1    38    1
     4     2     1    1
     5     3     2    1
     6     4     3    2
     7     5     3    1
     8     6     5   ar
     9     7     6   ar
    10     8     7    1
    11     8    39    1
    12     9     8    1
    13     9    40    1
    14    10     9    1
    15    11    10   ar
    16    11    41    1
    17    12    11   ar
    18    12    42    1
    19    13    12   ar
    20    13    43    1
    21    14    13   ar
    22    14    44    1
    23    15    14   ar
    24    15    10   ar
    25    16    15    1
    26    17    16    2
    27    18    16   am
    28    18     8    1
    29    19    18    1
    30    20    19   ar
    31    20    45    1
    32    21    20   ar
    33    21    46    1
    34    22    21   ar
    35    23    22    1
    36    24    22   ar
    37    24    47    1
    38    25    24   ar
    39    25    19   ar
    40    25    48    1
    41    26     7   ar
    42    27    26   ar
    43    27    49    1
    44    28    27   ar
    45    29    28   ar
    46    30    29   ar
    47    30    50    1
    48    31    30   ar
    49    31    51    1
    50    32    31   ar
    51    32    52    1
    52    33    32   ar
    53    33    28   ar
    54    33    53    1
    55    34    29   ar
    56    34    26   ar
    57    35    34   ar
    58    35     5   ar
    59    35    54    1
