@<TRIPOS>MOLECULE
mol_630_akc_jm060156v
>611.sdf
 33 34 0 0 0
SMALL
GASTEIGER

@<TRIPOS>ATOM
      1 C           2.3941    2.0259   -1.6628 C.3     1  UNL1       -0.0383
      2 C           1.0702    1.3293   -1.5172 C.ar    1  UNL1       -0.0310
      3 C          -0.0361    2.0293   -1.0010 C.ar    1  UNL1       -0.0423
      4 C          -1.3180    1.4446   -0.8720 C.ar    1  UNL1        0.0315
      5 S          -2.5106    2.5706   -0.1355 S.3     1  UNL1       -0.0834
      6 C          -4.0825    1.7479   -0.0263 C.ar    1  UNL1        0.0731
      7 C          -4.4650    0.9851    1.0940 C.ar    1  UNL1        0.1426
      8 C          -5.7021    0.3102    1.1733 C.ar    1  UNL1       -0.0186
      9 C          -6.6144    0.3819    0.1131 C.ar    1  UNL1        0.0592
     10 C          -6.2829    1.1694   -0.9973 C.ar    1  UNL1       -0.0186
     11 C          -5.0456    1.8419   -1.0490 C.ar    1  UNL1        0.1426
     12 N          -4.7885    2.6172   -2.2518 N.pl3   1  UNL1        0.0576
     13 O          -4.6698    3.8414   -2.1238 O.2     1  UNL1       -0.1261
     14 O          -4.7696    1.9935   -3.3205 O.2     1  UNL1       -0.1261
     15 C          -7.9209   -0.3787    0.1382 C.3     1  UNL1        0.4176
     16 F          -8.0825   -1.1342    1.2568 F       1  UNL1       -0.1659
     17 F          -8.9969    0.4491    0.0770 F       1  UNL1       -0.1659
     18 F          -8.0355   -1.2308   -0.9148 F       1  UNL1       -0.1659
     19 N          -3.5752    0.8187    2.2323 N.pl3   1  UNL1        0.0576
     20 O          -2.5183    0.2088    2.0493 O.2     1  UNL1       -0.1261
     21 O          -3.9853    1.2541    3.3187 O.2     1  UNL1       -0.1261
     22 C          -1.4629    0.1168   -1.3086 C.ar    1  UNL1        0.0561
     23 CL         -2.9444   -0.7711   -1.3358 Cl      1  UNL1       -0.0823
     24 C          -0.3582   -0.6004   -1.7922 C.ar    1  UNL1       -0.0237
     25 C           0.8966   -0.0044   -1.8883 C.ar    1  UNL1        0.0453
     26 CL          2.2049   -0.9628   -2.4795 Cl      1  UNL1       -0.0832
     27 H           3.1544    1.5410   -1.0424 H       1  UNL1        0.0278
     28 H           2.7132    2.0127   -2.7105 H       1  UNL1        0.0278
     29 H           2.3338    3.0750   -1.3555 H       1  UNL1        0.0278
     30 H           0.1133    3.0658   -0.6918 H       1  UNL1        0.0632
     31 H          -5.9394   -0.2881    2.0562 H       1  UNL1        0.0646
     32 H          -6.9821    1.2466   -1.8324 H       1  UNL1        0.0646
     33 H          -0.4797   -1.6355   -2.1035 H       1  UNL1        0.0647
@<TRIPOS>BOND
     1     1    27    1
     2     1    28    1
     3     1    29    1
     4     2     1    1
     5     3     2   ar
     6     3    30    1
     7     4     3   ar
     8     5     4    1
     9     6     5    1
    10     7     6   ar
    11     8     7   ar
    12     8    31    1
    13     9     8   ar
    14    10     9   ar
    15    10    32    1
    16    11    10   ar
    17    11     6   ar
    18    12    11    1
    19    13    12    2
    20    14    12    2
    21    15     9    1
    22    16    15    1
    23    17    15    1
    24    18    15    1
    25    19     7    1
    26    20    19    2
    27    21    19    2
    28    22     4   ar
    29    23    22    1
    30    24    22   ar
    31    24    33    1
    32    25    24   ar
    33    25     2   ar
    34    26    25    1
