@<TRIPOS>MOLECULE
mol_632_akc_jbmcl200602012
>613.sdf
 33 34 0 0 0
SMALL
GASTEIGER

@<TRIPOS>ATOM
      1 C           4.5711    0.1009   -1.1505 C.3     1  UNL1       -0.0134
      2 S           3.0253    0.1522   -0.2153 S.3     1  UNL1       -0.1267
      3 C           3.4416    1.4330    1.0142 C.ar    1  UNL1        0.0348
      4 C           4.0874    1.1121    2.2525 C.ar    1  UNL1        0.0010
      5 C           4.2904    2.1754    3.1866 C.ar    1  UNL1       -0.0225
      6 C           4.8922    1.9410    4.5631 C.3     1  UNL1       -0.0378
      7 C           3.9366    3.5125    2.8503 C.ar    1  UNL1        0.0771
      8 C           4.2110    4.5852    3.7794 C.1     1  UNL1        0.1013
      9 N           4.4482    5.4568    4.5028 N.1     1  UNL1       -0.1908
     10 C           3.3470    3.8310    1.6076 C.ar    1  UNL1        0.0611
     11 N           2.8546    5.1324    1.3604 N.pl3   1  UNL1       -0.3559
     12 C           3.0521    2.7686    0.7252 C.ar    1  UNL1        0.0875
     13 C           2.3718    3.0819   -0.5072 C.1     1  UNL1        0.1022
     14 N           1.8553    3.3943   -1.4992 N.1     1  UNL1       -0.1908
     15 C           4.5496   -0.2789    2.5677 C.ar    1  UNL1       -0.0163
     16 C           5.8855   -0.5365    2.9429 C.ar    1  UNL1       -0.0513
     17 C           6.3249   -1.8307    3.2481 C.ar    1  UNL1       -0.0259
     18 C           5.4500   -2.8985    3.1214 C.ar    1  UNL1        0.1234
     19 F           5.8791   -4.1417    3.3744 F       1  UNL1       -0.2055
     20 C           4.1349   -2.6908    2.7377 C.ar    1  UNL1       -0.0259
     21 C           3.6817   -1.3878    2.5021 C.ar    1  UNL1       -0.0513
     22 H           4.7647    1.0666   -1.6236 H       1  UNL1        0.0344
     23 H           5.4085   -0.1658   -0.5019 H       1  UNL1        0.0344
     24 H           4.4813   -0.6578   -1.9330 H       1  UNL1        0.0344
     25 H           5.9370    2.2707    4.5719 H       1  UNL1        0.0278
     26 H           4.3362    2.4924    5.3294 H       1  UNL1        0.0278
     27 H           4.8463    0.8983    4.8836 H       1  UNL1        0.0278
     28 H           2.6640    5.3799    0.3899 H       1  UNL1        0.1424
     29 H           3.3048    5.9003    1.8560 H       1  UNL1        0.1424
     30 H           6.6025    0.2785    3.0259 H       1  UNL1        0.0624
     31 H           7.3440   -2.0099    3.5776 H       1  UNL1        0.0646
     32 H           3.4659   -3.5385    2.6238 H       1  UNL1        0.0646
     33 H           2.6345   -1.2560    2.2355 H       1  UNL1        0.0624
@<TRIPOS>BOND
     1     1    22    1
     2     1    23    1
     3     1    24    1
     4     2     1    1
     5     3     2    1
     6     4     3   ar
     7     5     4   ar
     8     6     5    1
     9     6    25    1
    10     6    26    1
    11     6    27    1
    12     7     5   ar
    13     8     7    1
    14     9     8    3
    15    10     7   ar
    16    11    10    1
    17    11    28    1
    18    11    29    1
    19    12    10   ar
    20    12     3   ar
    21    13    12    1
    22    14    13    3
    23    15     4    1
    24    16    15   ar
    25    16    30    1
    26    17    16   ar
    27    17    31    1
    28    18    17   ar
    29    19    18    1
    30    20    18   ar
    31    20    32    1
    32    21    20   ar
    33    21    15   ar
    34    21    33    1
