@<TRIPOS>MOLECULE
mol_633_akc_jbmc200510005
>614.sdf
 39 40 0 0 0
SMALL
GASTEIGER

@<TRIPOS>ATOM
      1 C           1.1554   -0.1584    0.1466 C.3     1  UNL1        0.0788
      2 O           2.5757   -0.0926    0.1540 O.3     1  UNL1       -0.4949
      3 C           3.1487    1.1480    0.1154 C.ar    1  UNL1        0.1271
      4 C           2.4690    2.3657    0.0847 C.ar    1  UNL1        0.0227
      5 C           3.1636    3.5914    0.0204 C.ar    1  UNL1        0.1379
      6 O           2.5035    4.7892   -0.0738 O.3     1  UNL1       -0.4942
      7 C           1.1008    4.8198    0.1700 C.3     1  UNL1        0.0788
      8 C           4.5774    3.5984   -0.0027 C.ar    1  UNL1        0.1047
      9 C           5.4347    4.8283   -0.1107 C.2     1  UNL1        0.1931
     10 O           6.6382    4.6953   -0.3479 O.2     1  UNL1       -0.2870
     11 C           4.8798    6.1901    0.0904 C.2     1  UNL1       -0.0135
     12 C           5.5203    7.2505   -0.4275 C.2     1  UNL1       -0.0507
     13 C           4.9480    8.5893   -0.3034 C.ar    1  UNL1       -0.0185
     14 C           4.1527    9.1007   -1.3348 C.ar    1  UNL1        0.0227
     15 C           3.5530   10.3587   -1.1845 C.ar    1  UNL1        0.2737
     16 C           3.7497   11.1087   -0.0172 C.ar    1  UNL1        0.0156
     17 C           4.5515   10.5961    1.0027 C.ar    1  UNL1       -0.0548
     18 C           5.1465    9.3407    0.8605 C.ar    1  UNL1       -0.0542
     19 N           2.7015   10.8893   -2.2549 N.pl3   1  UNL1        0.0796
     20 O           2.5429   10.1915   -3.2670 O.co2   1  UNL1       -0.5760
     21 O           2.1795   12.0000   -2.0810 O.2     1  UNL1        0.0414
     22 C           5.2407    2.3524    0.0329 C.ar    1  UNL1        0.1346
     23 O           6.6075    2.2136    0.0035 O.3     1  UNL1       -0.5058
     24 C           4.5376    1.1496    0.0927 C.ar    1  UNL1        0.0225
     25 H           0.7378    0.3011    1.0484 H       1  UNL1        0.0660
     26 H           0.7407    0.3003   -0.7583 H       1  UNL1        0.0660
     27 H           0.8673   -1.2135    0.1442 H       1  UNL1        0.0660
     28 H           1.3867    2.3592    0.0889 H       1  UNL1        0.0691
     29 H           0.5549    4.3298   -0.6422 H       1  UNL1        0.0660
     30 H           0.8527    4.3793    1.1416 H       1  UNL1        0.0660
     31 H           0.7903    5.8689    0.1938 H       1  UNL1        0.0660
     32 H           3.9616    6.3154    0.6433 H       1  UNL1        0.0656
     33 H           6.4495    7.1558   -0.9835 H       1  UNL1        0.0625
     34 H           3.9968    8.5114   -2.2368 H       1  UNL1        0.0691
     35 H           3.2851   12.0850    0.1133 H       1  UNL1        0.0685
     36 H           4.7083   11.1697    1.9142 H       1  UNL1        0.0620
     37 H           5.7629    8.9471    1.6672 H       1  UNL1        0.0623
     38 H           7.0030    3.1027   -0.1450 H       1  UNL1        0.2922
     39 H           5.0827    0.2087    0.1072 H       1  UNL1        0.0691
@<TRIPOS>UNITY_ATOM_ATTR
19 1
charge 1
20 1
charge -1
@<TRIPOS>BOND
     1     1    25    1
     2     1    26    1
     3     1    27    1
     4     2     1    1
     5     3     2    1
     6     4     3   ar
     7     4    28    1
     8     5     4   ar
     9     6     5    1
    10     7     6    1
    11     7    29    1
    12     7    30    1
    13     7    31    1
    14     8     5   ar
    15     9     8    1
    16    10     9    2
    17    11     9    1
    18    11    32    1
    19    12    11    2
    20    12    33    1
    21    13    12    1
    22    14    13   ar
    23    14    34    1
    24    15    14   ar
    25    16    15   ar
    26    16    35    1
    27    17    16   ar
    28    17    36    1
    29    18    17   ar
    30    18    13   ar
    31    18    37    1
    32    19    15    1
    33    20    19    1
    34    21    19    2
    35    22     8   ar
    36    23    22    1
    37    23    38    1
    38    24    22   ar
    39    24     3   ar
    40    24    39    1
