@<TRIPOS>MOLECULE
mol_634_akc_np0502600
>615.sdf
 44 46 0 0 0
SMALL
GASTEIGER

@<TRIPOS>ATOM
      1 C           7.0256   -0.6129   -1.8172 C.3     1  UNL1       -0.0440
      2 C           5.8861   -0.5592   -0.8399 C.2     1  UNL1       -0.0793
      3 C           4.8210   -1.6063   -1.0086 C.3     1  UNL1       -0.0440
      4 C           5.8128    0.4011    0.1019 C.2     1  UNL1       -0.0808
      5 C           4.7076    0.5378    1.1154 C.3     1  UNL1       -0.0051
      6 C           5.1733    1.1479    2.4183 C.ar    1  UNL1        0.0093
      7 C           5.7091    0.3709    3.4689 C.ar    1  UNL1       -0.0041
      8 C           6.0649    0.9921    4.6843 C.ar    1  UNL1       -0.0499
      9 C           5.9135    2.3693    4.8653 C.ar    1  UNL1       -0.0159
     10 C           5.4254    3.1323    3.8171 C.ar    1  UNL1        0.1585
     11 O           5.2688    4.4879    3.9196 O.3     1  UNL1       -0.5033
     12 C           5.0684    2.5323    2.6099 C.ar    1  UNL1        0.1623
     13 O           4.6055    3.3363    1.6005 O.3     1  UNL1       -0.5031
     14 C           5.9253   -1.0833    3.3600 C.ar    1  UNL1        0.0648
     15 C           7.0936   -1.5685    2.9183 C.ar    1  UNL1        0.1039
     16 O           7.4310   -2.8939    2.8067 O.2     1  UNL1       -0.4618
     17 C           6.5485   -3.8207    3.3060 C.ar    1  UNL1        0.1454
     18 C           6.9857   -5.1476    3.3132 C.ar    1  UNL1        0.0231
     19 C           6.1597   -6.1401    3.8264 C.ar    1  UNL1        0.1239
     20 O           6.6297   -7.4200    3.8270 O.3     1  UNL1       -0.5065
     21 C           4.9007   -5.8306    4.3305 C.ar    1  UNL1        0.0223
     22 C           4.4643   -4.5016    4.3150 C.ar    1  UNL1        0.1347
     23 O           3.2357   -4.2115    4.8364 O.3     1  UNL1       -0.5058
     24 C           5.2831   -3.4857    3.7979 C.ar    1  UNL1        0.1060
     25 C           4.8754   -2.0590    3.7585 C.ar    1  UNL1        0.2037
     26 O           3.7431   -1.6765    4.0331 O.2     1  UNL1       -0.2863
     27 H           7.5544   -1.5673   -1.7276 H       1  UNL1        0.0274
     28 H           6.6524   -0.5143   -2.8418 H       1  UNL1        0.0274
     29 H           7.7532    0.1882   -1.6494 H       1  UNL1        0.0274
     30 H           4.7304   -2.2192   -0.1064 H       1  UNL1        0.0274
     31 H           3.8544   -1.1375   -1.2240 H       1  UNL1        0.0274
     32 H           5.0502   -2.2792   -1.8410 H       1  UNL1        0.0274
     33 H           6.5891    1.1633    0.1447 H       1  UNL1        0.0575
     34 H           3.9118    1.1563    0.6825 H       1  UNL1        0.0357
     35 H           4.2298   -0.4253    1.3251 H       1  UNL1        0.0357
     36 H           6.4521    0.3946    5.5082 H       1  UNL1        0.0625
     37 H           6.1816    2.8160    5.8166 H       1  UNL1        0.0655
     38 H           5.4916    4.7495    4.8293 H       1  UNL1        0.2923
     39 H           4.6230    4.2391    1.9754 H       1  UNL1        0.2923
     40 H           7.9196   -0.9479    2.5935 H       1  UNL1        0.1037
     41 H           7.9692   -5.4045    2.9290 H       1  UNL1        0.0691
     42 H           5.9605   -8.0105    4.2110 H       1  UNL1        0.2921
     43 H           4.2677   -6.6112    4.7388 H       1  UNL1        0.0691
     44 H           2.7731   -5.0188    5.1076 H       1  UNL1        0.2922
@<TRIPOS>BOND
     1     1    27    1
     2     1    28    1
     3     1    29    1
     4     2     1    1
     5     3     2    1
     6     3    30    1
     7     3    31    1
     8     3    32    1
     9     4     2    2
    10     4    33    1
    11     5     4    1
    12     5    34    1
    13     5    35    1
    14     6     5    1
    15     7     6   ar
    16     8     7   ar
    17     8    36    1
    18     9     8   ar
    19     9    37    1
    20    10     9   ar
    21    11    10    1
    22    11    38    1
    23    12    10   ar
    24    12     6   ar
    25    13    12    1
    26    13    39    1
    27    14     7    1
    28    15    14   ar
    29    15    40    1
    30    16    15   ar
    31    17    16   ar
    32    18    17   ar
    33    18    41    1
    34    19    18   ar
    35    20    19    1
    36    20    42    1
    37    21    19   ar
    38    21    43    1
    39    22    21   ar
    40    23    22    1
    41    23    44    1
    42    24    22   ar
    43    24    17   ar
    44    25    24   ar
    45    25    14   ar
    46    26    25    2
