@<TRIPOS>MOLECULE
mol_635_akc_np0502600
>616.sdf
 35 38 0 0 0
SMALL
GASTEIGER

@<TRIPOS>ATOM
      1 C           1.4600    0.2803   -0.6699 C.3     1  UNL1        0.0788
      2 O           2.5587   -0.0892    0.1555 O.3     1  UNL1       -0.4950
      3 C           3.1109   -1.3248   -0.0616 C.ar    1  UNL1        0.1236
      4 C           2.6817   -2.2453   -1.0224 C.ar    1  UNL1       -0.0191
      5 C           3.3148   -3.4901   -1.1677 C.ar    1  UNL1       -0.0468
      6 C           4.3927   -3.8125   -0.3236 C.ar    1  UNL1        0.0312
      7 C           4.7893   -2.8750    0.6170 C.ar    1  UNL1        0.1398
      8 O           5.8365   -3.3522    1.3419 O.2     1  UNL1       -0.4539
      9 C           6.1105   -4.6174    0.8936 C.ar    1  UNL1        0.1500
     10 C           5.2709   -4.9282   -0.1680 C.ar    1  UNL1        0.0677
     11 C           5.2920   -6.1412   -0.9557 C.2     1  UNL1        0.1544
     12 O           4.3885   -6.4735   -1.7171 O.2     1  UNL1       -0.2956
     13 C           7.1579   -5.3198    1.6398 C.ar    1  UNL1        0.0630
     14 C           8.2679   -4.6463    2.2132 C.ar    1  UNL1        0.1312
     15 O           8.4411   -3.2894    2.1118 O.3     1  UNL1       -0.5059
     16 C           9.2642   -5.3289    2.9166 C.ar    1  UNL1        0.0260
     17 C           9.1370   -6.6919    3.0449 C.ar    1  UNL1        0.1697
     18 O           9.9974   -7.5225    3.6887 O.3     1  UNL1       -0.4525
     19 C           9.3567   -8.7973    3.4812 C.3     1  UNL1        0.2332
     20 O           8.1194   -8.7000    2.7452 O.3     1  UNL1       -0.4526
     21 C           8.0661   -7.3622    2.5095 C.ar    1  UNL1        0.1671
     22 C           7.0635   -6.7120    1.8187 C.ar    1  UNL1       -0.0019
     23 C           4.1877   -1.6295    0.7818 C.ar    1  UNL1        0.0230
     24 H           1.7576    0.3304   -1.7227 H       1  UNL1        0.0660
     25 H           0.6135   -0.4002   -0.5296 H       1  UNL1        0.0660
     26 H           1.1352    1.2807   -0.3682 H       1  UNL1        0.0660
     27 H           1.8485   -2.0312   -1.6851 H       1  UNL1        0.0654
     28 H           2.9686   -4.1954   -1.9199 H       1  UNL1        0.0626
     29 H           6.1872   -6.7754   -0.8545 H       1  UNL1        0.1083
     30 H           7.6120   -2.9020    1.7704 H       1  UNL1        0.2922
     31 H          10.1060   -4.7994    3.3508 H       1  UNL1        0.0692
     32 H          10.0438   -9.4484    2.9282 H       1  UNL1        0.1166
     33 H           9.1479   -9.2517    4.4562 H       1  UNL1        0.1166
     34 H           6.2224   -7.2893    1.4524 H       1  UNL1        0.0663
     35 H           4.5341   -0.9303    1.5335 H       1  UNL1        0.0691
@<TRIPOS>BOND
     1     1    24    1
     2     1    25    1
     3     1    26    1
     4     2     1    1
     5     3     2    1
     6     4     3   ar
     7     4    27    1
     8     5     4   ar
     9     5    28    1
    10     6     5   ar
    11     7     6   ar
    12     8     7   ar
    13     9     8   ar
    14    10     9   ar
    15    10     6   ar
    16    11    10    1
    17    11    29    1
    18    12    11    2
    19    13     9    1
    20    14    13   ar
    21    15    14    1
    22    15    30    1
    23    16    14   ar
    24    16    31    1
    25    17    16   ar
    26    18    17    1
    27    19    18    1
    28    19    32    1
    29    19    33    1
    30    20    19    1
    31    21    20    1
    32    21    17   ar
    33    22    21   ar
    34    22    13   ar
    35    22    34    1
    36    23     7   ar
    37    23     3   ar
    38    23    35    1
