@<TRIPOS>MOLECULE
mol_636_akc_jbmc200507043
>617.sdf
 52 54 0 0 0
SMALL
GASTEIGER

@<TRIPOS>ATOM
      1 C           2.5448   -0.9890   -1.5650 C.3     1  UNL1       -0.0587
      2 C           2.8292   -0.1675   -0.3108 C.3     1  UNL1       -0.0215
      3 C           3.9709   -0.7856    0.5079 C.3     1  UNL1       -0.0587
      4 C           3.1306    1.2797   -0.6496 C.ar    1  UNL1       -0.0448
      5 C           2.3060    2.3051   -0.1712 C.ar    1  UNL1       -0.0580
      6 C           2.6639    3.6428   -0.3468 C.ar    1  UNL1       -0.0574
      7 C           3.8934    3.9810   -0.9400 C.ar    1  UNL1       -0.0352
      8 C           4.6534    2.9588   -1.5214 C.ar    1  UNL1       -0.0574
      9 C           4.2691    1.6267   -1.3884 C.ar    1  UNL1       -0.0580
     10 C           4.5080    5.3803   -0.7755 C.3     1  UNL1        0.0473
     11 C           4.1813    5.9176    0.6348 C.2     1  UNL1        0.0234
     12 C           4.5601    5.0470    1.8004 C.2     1  UNL1        0.1585
     13 C           5.7331    4.0863    1.6963 C.3     1  UNL1       -0.0016
     14 O           3.8993    5.0331    2.8429 O.2     1  UNL1       -0.2926
     15 C           3.4460    7.0441    0.7548 C.2     1  UNL1        0.0135
     16 C           2.8632    7.6189    2.0252 C.3     1  UNL1       -0.0261
     17 N           3.1092    7.7705   -0.3851 N.pl3   1  UNL1       -0.3036
     18 C           3.4921    7.4976   -1.6845 C.ar    1  UNL1        0.1158
     19 C           4.1571    6.3442   -1.9001 C.ar    1  UNL1        0.0673
     20 C           4.7115    6.0669   -3.2435 C.ar    1  UNL1        0.2622
     21 O           5.5122    5.1519   -3.4117 O.2     1  UNL1       -0.2671
     22 N           4.3232    6.9075   -4.2636 N.ar    1  UNL1       -0.2637
     23 C           4.8091    6.5961   -5.5962 C.3     1  UNL1        0.0196
     24 C           3.6428    8.0906   -4.0604 C.ar    1  UNL1        0.3328
     25 O           3.4161    8.8818   -4.9759 O.2     1  UNL1       -0.2462
     26 N           3.2444    8.3572   -2.7467 N.ar    1  UNL1       -0.2843
     27 C           2.5830    9.6441   -2.5799 C.3     1  UNL1        0.0178
     28 H           2.3684   -2.0390   -1.3070 H       1  UNL1        0.0235
     29 H           1.6505   -0.6148   -2.0747 H       1  UNL1        0.0235
     30 H           3.3739   -0.9556   -2.2786 H       1  UNL1        0.0235
     31 H           1.9296   -0.2058    0.3183 H       1  UNL1        0.0343
     32 H           4.9342   -0.7263   -0.0106 H       1  UNL1        0.0235
     33 H           4.0836   -0.2686    1.4683 H       1  UNL1        0.0235
     34 H           3.7733   -1.8414    0.7180 H       1  UNL1        0.0235
     35 H           1.4085    2.0741    0.3983 H       1  UNL1        0.0620
     36 H           2.0268    4.4071    0.0948 H       1  UNL1        0.0621
     37 H           5.5945    3.1766   -2.0226 H       1  UNL1        0.0621
     38 H           4.9109    0.8572   -1.8101 H       1  UNL1        0.0620
     39 H           5.6024    5.2810   -0.8076 H       1  UNL1        0.0450
     40 H           6.2413    4.0412    2.6639 H       1  UNL1        0.0309
     41 H           5.3647    3.0894    1.4496 H       1  UNL1        0.0309
     42 H           6.4658    4.4130    0.9610 H       1  UNL1        0.0309
     43 H           3.3394    8.5801    2.2528 H       1  UNL1        0.0290
     44 H           1.7905    7.7984    1.8838 H       1  UNL1        0.0290
     45 H           2.9480    6.9956    2.9108 H       1  UNL1        0.0290
     46 H           2.5651    8.6054   -0.2182 H       1  UNL1        0.1532
     47 H           5.8998    6.4924   -5.5712 H       1  UNL1        0.0458
     48 H           4.3808    5.6385   -5.9083 H       1  UNL1        0.0458
     49 H           4.5473    7.3593   -6.3334 H       1  UNL1        0.0458
     50 H           3.2857   10.4384   -2.8516 H       1  UNL1        0.0458
     51 H           1.7255    9.6956   -3.2604 H       1  UNL1        0.0458
     52 H           2.2203    9.8369   -1.5711 H       1  UNL1        0.0458
@<TRIPOS>BOND
     1     1    28    1
     2     1    29    1
     3     1    30    1
     4     2     1    1
     5     2    31    1
     6     3     2    1
     7     3    32    1
     8     3    33    1
     9     3    34    1
    10     4     2    1
    11     5     4   ar
    12     5    35    1
    13     6     5   ar
    14     6    36    1
    15     7     6   ar
    16     8     7   ar
    17     8    37    1
    18     9     8   ar
    19     9     4   ar
    20     9    38    1
    21    10     7    1
    22    10    39    1
    23    11    10    1
    24    12    11    1
    25    13    12    1
    26    13    40    1
    27    13    41    1
    28    13    42    1
    29    14    12    2
    30    15    11    2
    31    16    15    1
    32    16    43    1
    33    16    44    1
    34    16    45    1
    35    17    15    1
    36    17    46    1
    37    18    17    1
    38    19    18   ar
    39    19    10    1
    40    20    19   ar
    41    21    20    2
    42    22    20   ar
    43    23    22    1
    44    23    47    1
    45    23    48    1
    46    23    49    1
    47    24    22   ar
    48    25    24    2
    49    26    24   ar
    50    26    18   ar
    51    27    26    1
    52    27    50    1
    53    27    51    1
    54    27    52    1
