@<TRIPOS>MOLECULE
mol_637_akc_jbmc200507043
>617_2.sdf
 52 54 0 0 0
SMALL
GASTEIGER

@<TRIPOS>ATOM
      1 C           6.5308   -2.5710   10.4278 C.3     1  UNL1       -0.0587
      2 C           5.4032   -3.0666    9.5192 C.3     1  UNL1       -0.0215
      3 C           4.2076   -3.5586   10.3363 C.3     1  UNL1       -0.0587
      4 C           4.9877   -2.0002    8.5248 C.ar    1  UNL1       -0.0448
      5 C           5.1390   -2.2349    7.1537 C.ar    1  UNL1       -0.0580
      6 C           4.7709   -1.2656    6.2208 C.ar    1  UNL1       -0.0574
      7 C           4.2646   -0.0224    6.6315 C.ar    1  UNL1       -0.0352
      8 C           4.1185    0.2103    8.0085 C.ar    1  UNL1       -0.0574
      9 C           4.4594   -0.7719    8.9402 C.ar    1  UNL1       -0.0580
     10 C           3.9561    1.0578    5.5782 C.3     1  UNL1        0.0473
     11 C           2.7937    1.9601    5.9960 C.2     1  UNL1        0.0234
     12 C           1.3894    1.4629    5.7856 C.2     1  UNL1        0.1585
     13 C           1.0752   -0.0159    5.8034 C.3     1  UNL1       -0.0016
     14 O           0.4725    2.2577    5.5619 O.2     1  UNL1       -0.2926
     15 C           3.0623    3.2087    6.4566 C.2     1  UNL1        0.0135
     16 C           2.0548    4.1873    7.0125 C.3     1  UNL1       -0.0261
     17 N           4.3761    3.6780    6.4589 N.pl3   1  UNL1       -0.3036
     18 C           5.4402    3.0766    5.7992 C.ar    1  UNL1        0.1158
     19 C           5.2334    1.8397    5.3129 C.ar    1  UNL1        0.0673
     20 C           6.2763    1.1834    4.5047 C.ar    1  UNL1        0.2622
     21 O           5.9985    0.2264    3.7890 O.2     1  UNL1       -0.2671
     22 N           7.5397    1.7096    4.6168 N.ar    1  UNL1       -0.2637
     23 C           8.6284    0.9385    4.0461 C.3     1  UNL1        0.0196
     24 C           7.7822    2.9853    5.0837 C.ar    1  UNL1        0.3328
     25 O           8.8980    3.5066    5.0162 O.2     1  UNL1       -0.2462
     26 N           6.6849    3.6677    5.6265 N.ar    1  UNL1       -0.2843
     27 C           6.9957    4.9978    6.1280 C.3     1  UNL1        0.0178
     28 H           6.8666   -3.3699   11.0967 H       1  UNL1        0.0235
     29 H           7.3932   -2.2437    9.8354 H       1  UNL1        0.0235
     30 H           6.2164   -1.7255   11.0495 H       1  UNL1        0.0235
     31 H           5.7923   -3.9299    8.9633 H       1  UNL1        0.0343
     32 H           3.8193   -2.7805   11.0024 H       1  UNL1        0.0235
     33 H           3.3889   -3.8754    9.6803 H       1  UNL1        0.0235
     34 H           4.4930   -4.4158   10.9549 H       1  UNL1        0.0235
     35 H           5.5544   -3.1745    6.7958 H       1  UNL1        0.0620
     36 H           4.9045   -1.4880    5.1633 H       1  UNL1        0.0621
     37 H           3.7435    1.1600    8.3832 H       1  UNL1        0.0621
     38 H           4.3209   -0.5594    9.9980 H       1  UNL1        0.0620
     39 H           3.6469    0.5722    4.6426 H       1  UNL1        0.0450
     40 H           0.3507   -0.2175    6.5959 H       1  UNL1        0.0309
     41 H           0.6466   -0.2890    4.8343 H       1  UNL1        0.0309
     42 H           1.9356   -0.6539    5.9694 H       1  UNL1        0.0309
     43 H           2.4103    4.5664    7.9788 H       1  UNL1        0.0290
     44 H           1.9417    5.0414    6.3367 H       1  UNL1        0.0290
     45 H           1.0699    3.7609    7.2075 H       1  UNL1        0.0290
     46 H           4.4758    4.6593    6.6868 H       1  UNL1        0.1532
     47 H           8.7155    0.0020    4.6085 H       1  UNL1        0.0458
     48 H           8.3999    0.6905    3.0047 H       1  UNL1        0.0458
     49 H           9.5856    1.4636    4.0881 H       1  UNL1        0.0458
     50 H           7.7269    4.9069    6.9385 H       1  UNL1        0.0458
     51 H           7.4463    5.5850    5.3216 H       1  UNL1        0.0458
     52 H           6.1293    5.5470    6.4955 H       1  UNL1        0.0458
@<TRIPOS>BOND
     1     1    28    1
     2     1    29    1
     3     1    30    1
     4     2     1    1
     5     2    31    1
     6     3     2    1
     7     3    32    1
     8     3    33    1
     9     3    34    1
    10     4     2    1
    11     5     4   ar
    12     5    35    1
    13     6     5   ar
    14     6    36    1
    15     7     6   ar
    16     8     7   ar
    17     8    37    1
    18     9     8   ar
    19     9     4   ar
    20     9    38    1
    21    11    10    1
    22    12    11    1
    23    13    12    1
    24    13    40    1
    25    13    41    1
    26    13    42    1
    27    14    12    2
    28    15    11    2
    29    16    15    1
    30    16    43    1
    31    16    44    1
    32    16    45    1
    33    17    15    1
    34    17    46    1
    35    18    17    1
    36    19    18   ar
    37    19    10    1
    38    20    19   ar
    39    21    20    2
    40    22    20   ar
    41    23    22    1
    42    23    47    1
    43    23    48    1
    44    23    49    1
    45    24    22   ar
    46    25    24    2
    47    26    24   ar
    48    26    18   ar
    49    27    26    1
    50    27    50    1
    51    27    51    1
    52    27    52    1
    53    10    39    1
    54    10     7    1
