@<TRIPOS>MOLECULE
mol_639_akc_jbmc200507005
>619.sdf
 55 57 0 0 0
SMALL
GASTEIGER

@<TRIPOS>ATOM
      1 C           9.1759   -3.7578   -7.2945 C.3     1  UNL1       -0.0440
      2 C           8.5539   -2.8137   -6.3056 C.2     1  UNL1       -0.0796
      3 C           8.9672   -1.3721   -6.4367 C.3     1  UNL1       -0.0440
      4 C           7.6755   -3.2441   -5.3776 C.2     1  UNL1       -0.0851
      5 C           6.9528   -2.3657   -4.3948 C.3     1  UNL1       -0.0306
      6 C           7.2720   -2.7079   -2.9353 C.3     1  UNL1       -0.0060
      7 C           6.6250   -1.7548   -1.8942 C.3     1  UNL1        0.1266
      8 C           5.0942   -1.8846   -1.9043 C.3     1  UNL1       -0.0212
      9 O           7.0342   -2.2476   -0.5948 O.3     1  UNL1       -0.4812
     10 C           7.8665   -1.4879    0.1763 C.ar    1  UNL1        0.1324
     11 C           8.2783   -0.1940   -0.1461 C.ar    1  UNL1        0.0586
     12 C           7.7832    0.4128   -1.3729 C.2     1  UNL1       -0.0478
     13 C           6.9965   -0.3142   -2.1696 C.2     1  UNL1       -0.0405
     14 C           9.1259    0.5011    0.7376 C.ar    1  UNL1        0.1382
     15 O           9.5033    1.7767    0.3736 O.3     1  UNL1       -0.5053
     16 C           9.5584   -0.0851    1.9463 C.ar    1  UNL1        0.0638
     17 C           9.1230   -1.3862    2.2448 C.ar    1  UNL1       -0.0439
     18 C           8.2844   -2.0779    1.3652 C.ar    1  UNL1       -0.0184
     19 C          10.4483    0.6975    2.8636 C.2     1  UNL1        0.1896
     20 O          10.8007    1.8326    2.5362 O.2     1  UNL1       -0.2872
     21 C          10.8860    0.1067    4.1537 C.2     1  UNL1       -0.0137
     22 C          11.6573    0.8054    5.0056 C.2     1  UNL1       -0.0510
     23 C          12.0497    0.1838    6.2667 C.ar    1  UNL1       -0.0247
     24 C          13.2245   -0.5738    6.3439 C.ar    1  UNL1       -0.0511
     25 C          13.5431   -1.2593    7.5187 C.ar    1  UNL1       -0.0196
     26 C          12.6819   -1.1838    8.6096 C.ar    1  UNL1        0.1169
     27 O          12.9427   -1.8527    9.7685 O.3     1  UNL1       -0.5068
     28 C          11.5182   -0.4259    8.5492 C.ar    1  UNL1       -0.0196
     29 C          11.2009    0.2612    7.3772 C.ar    1  UNL1       -0.0511
     30 H           8.9342   -3.4451   -8.3158 H       1  UNL1        0.0274
     31 H          10.2644   -3.7643   -7.1794 H       1  UNL1        0.0274
     32 H           8.8178   -4.7847   -7.1686 H       1  UNL1        0.0274
     33 H           8.1064   -0.7426   -6.6861 H       1  UNL1        0.0274
     34 H           9.4183   -1.0133   -5.5053 H       1  UNL1        0.0274
     35 H           9.7092   -1.2386   -7.2302 H       1  UNL1        0.0274
     36 H           7.4175   -4.3012   -5.3390 H       1  UNL1        0.0571
     37 H           7.1942   -1.3184   -4.5891 H       1  UNL1        0.0309
     38 H           5.8795   -2.4743   -4.5828 H       1  UNL1        0.0309
     39 H           6.9570   -3.7399   -2.7225 H       1  UNL1        0.0310
     40 H           8.3617   -2.7106   -2.7866 H       1  UNL1        0.0310
     41 H           4.6385   -1.1633   -1.2149 H       1  UNL1        0.0271
     42 H           4.6608   -1.7119   -2.8937 H       1  UNL1        0.0271
     43 H           4.7837   -2.8776   -1.5584 H       1  UNL1        0.0271
     44 H           8.0480    1.4374   -1.6083 H       1  UNL1        0.0624
     45 H           6.6082    0.1529   -3.0699 H       1  UNL1        0.0611
     46 H          10.0871    2.1419    1.0737 H       1  UNL1        0.2922
     47 H           9.4044   -1.9067    3.1522 H       1  UNL1        0.0627
     48 H           7.9503   -3.0830    1.6139 H       1  UNL1        0.0654
     49 H          10.5829   -0.8925    4.4216 H       1  UNL1        0.0656
     50 H          11.9989    1.8165    4.8031 H       1  UNL1        0.0625
     51 H          13.8875   -0.6483    5.4848 H       1  UNL1        0.0625
     52 H          14.4518   -1.8516    7.5580 H       1  UNL1        0.0654
     53 H          13.7948   -2.3095    9.6785 H       1  UNL1        0.2921
     54 H          10.8541   -0.3789    9.4082 H       1  UNL1        0.0654
     55 H          10.2820    0.8408    7.3313 H       1  UNL1        0.0625
@<TRIPOS>BOND
     1     1    30    1
     2     1    31    1
     3     1    32    1
     4     2     1    1
     5     3     2    1
     6     3    33    1
     7     3    34    1
     8     3    35    1
     9     4     2    2
    10     4    36    1
    11     5     4    1
    12     5    37    1
    13     5    38    1
    14     6     5    1
    15     6    39    1
    16     6    40    1
    17     8    41    1
    18     8    42    1
    19     8    43    1
    20     9     7    1
    21    10     9    1
    22    11    10   ar
    23    12    11    1
    24    12    44    1
    25    13    12    2
    26    13     7    1
    27    13    45    1
    28    14    11   ar
    29    15    14    1
    30    15    46    1
    31    16    14   ar
    32    17    16   ar
    33    17    47    1
    34    18    17   ar
    35    18    10   ar
    36    18    48    1
    37    19    16    1
    38    20    19    2
    39    21    19    1
    40    21    49    1
    41    22    21    2
    42    22    50    1
    43    23    22    1
    44    24    23   ar
    45    24    51    1
    46    25    24   ar
    47    25    52    1
    48    26    25   ar
    49    27    26    1
    50    27    53    1
    51    28    26   ar
    52    28    54    1
    53    29    28   ar
    54    29    23   ar
    55    29    55    1
    56     7     8    1
    57     7     6    1
