@<TRIPOS>MOLECULE
mol_63_akc_s00436_021_07266_w
>62.sdf
 52 52 0 0 0
SMALL
GASTEIGER

@<TRIPOS>ATOM
      1 C           1.3547    2.3169   -1.7296 C.3     1  UNL1        0.0817
      2 O           2.7619    2.1068   -1.6075 O.3     1  UNL1       -0.4664
      3 C           3.1040    1.0090   -0.8620 C.2     1  UNL1        0.3303
      4 O           2.2848    0.2420   -0.3669 O.2     1  UNL1       -0.2484
      5 C           4.6451    0.8512   -0.7505 C.3     1  UNL1        0.1290
      6 C           5.0077   -0.4846   -1.4122 C.3     1  UNL1       -0.0332
      7 C           5.0711    1.0119    0.7353 C.3     1  UNL1       -0.0191
      8 C           4.4683    0.1141    1.8407 C.3     1  UNL1       -0.0443
      9 C           4.7743   -1.3727    1.6775 C.3     1  UNL1       -0.0626
     10 C           5.0069    0.5807    3.2024 C.3     1  UNL1       -0.0626
     11 N           5.2914    1.9351   -1.5430 N.am    1  UNL1       -0.2994
     12 C           6.6447    2.0706   -1.7300 C.2     1  UNL1        0.2237
     13 O           7.4850    1.3994   -1.1372 O.2     1  UNL1       -0.2749
     14 C           7.0753    3.1628   -2.6940 C.3     1  UNL1        0.0703
     15 S           5.8737    3.4157   -4.0493 S.3     1  UNL1       -0.1497
     16 C           6.7686    4.6894   -4.9978 C.3     1  UNL1        0.0122
     17 C           8.0644    4.1517   -5.5984 C.3     1  UNL1        0.0354
     18 N           8.7430    5.1416   -6.4189 N.ar    1  UNL1       -0.3085
     19 C           8.5892    5.2630   -7.7909 C.ar    1  UNL1        0.1082
     20 C           7.6291    4.4573   -8.5945 C.3     1  UNL1       -0.0062
     21 N           9.4064    6.1744   -8.2744 N.ar    1  UNL1       -0.2385
     22 C          10.0943    6.6806   -7.2042 C.ar    1  UNL1        0.0769
     23 C           9.6799    6.0730   -6.0456 C.ar    1  UNL1        0.2157
     24 N          10.1127    6.3470   -4.7186 N.pl3   1  UNL1        0.0750
     25 O           9.5005    5.8061   -3.7900 O.2     1  UNL1       -0.1246
     26 O          11.0603    7.1300   -4.5959 O.2     1  UNL1       -0.1246
     27 H           0.8489    1.4174   -2.0942 H       1  UNL1        0.0661
     28 H           0.9409    2.6321   -0.7663 H       1  UNL1        0.0661
     29 H           1.1937    3.1178   -2.4567 H       1  UNL1        0.0661
     30 H           4.4907   -1.3358   -0.9716 H       1  UNL1        0.0256
     31 H           4.7146   -0.4764   -2.4708 H       1  UNL1        0.0256
     32 H           6.0831   -0.6875   -1.3779 H       1  UNL1        0.0256
     33 H           6.1618    0.9267    0.8101 H       1  UNL1        0.0294
     34 H           4.8461    2.0525    1.0174 H       1  UNL1        0.0294
     35 H           3.3814    0.2457    1.8723 H       1  UNL1        0.0296
     36 H           5.8022   -1.5371    1.3376 H       1  UNL1        0.0232
     37 H           4.6425   -1.9140    2.6201 H       1  UNL1        0.0232
     38 H           4.0862   -1.8358    0.9667 H       1  UNL1        0.0232
     39 H           6.0983    0.4962    3.2476 H       1  UNL1        0.0232
     40 H           4.7375    1.6250    3.3920 H       1  UNL1        0.0232
     41 H           4.5873   -0.0209    4.0160 H       1  UNL1        0.0232
     42 H           4.6850    2.4553   -2.1739 H       1  UNL1        0.1498
     43 H           7.2209    4.0921   -2.1372 H       1  UNL1        0.0471
     44 H           8.0254    2.8341   -3.1227 H       1  UNL1        0.0471
     45 H           6.0981    5.0234   -5.7976 H       1  UNL1        0.0394
     46 H           6.9403    5.5587   -4.3556 H       1  UNL1        0.0394
     47 H           8.7810    3.8092   -4.8490 H       1  UNL1        0.0501
     48 H           7.8633    3.2778   -6.2283 H       1  UNL1        0.0501
     49 H           7.8741    3.3920   -8.5480 H       1  UNL1        0.0307
     50 H           6.6066    4.6021   -8.2331 H       1  UNL1        0.0307
     51 H           7.6610    4.7635   -9.6446 H       1  UNL1        0.0307
     52 H          10.8386    7.4581   -7.3259 H       1  UNL1        0.0869
@<TRIPOS>BOND
     1     1    27    1
     2     1    28    1
     3     1    29    1
     4     2     1    1
     5     3     2    1
     6     4     3    2
     7     6    30    1
     8     6    31    1
     9     6    32    1
    10     7     5    1
    11     7    33    1
    12     7    34    1
    13     8     7    1
    14     8    35    1
    15     9     8    1
    16     9    36    1
    17     9    37    1
    18     9    38    1
    19    10     8    1
    20    10    39    1
    21    10    40    1
    22    10    41    1
    23    11     5    1
    24    11    42    1
    25    12    11   am
    26    13    12    2
    27    14    12    1
    28    14    43    1
    29    14    44    1
    30    15    14    1
    31    16    15    1
    32    16    45    1
    33    16    46    1
    34    17    16    1
    35    17    47    1
    36    17    48    1
    37    18    17    1
    38    19    18   ar
    39    20    19    1
    40    20    49    1
    41    20    50    1
    42    20    51    1
    43    21    19   ar
    44    22    21   ar
    45    22    52    1
    46    23    22   ar
    47    23    18   ar
    48    24    23    1
    49    25    24    2
    50    26    24    2
    51     5     6    1
    52     5     3    1
