@<TRIPOS>MOLECULE
mol_640_akc_jbmc200506045
>620.sdf
 31 33 0 0 0
SMALL
GASTEIGER

@<TRIPOS>ATOM
      1 O           1.0221   -0.1960    0.2503 O.3     1  UNL1       -0.3903
      2 C           2.3793    0.1219   -0.0376 C.3     1  UNL1        0.0712
      3 C           2.7825   -0.3738   -1.4050 C.ar    1  UNL1        0.0038
      4 C           3.2974    0.5341   -2.3478 C.ar    1  UNL1       -0.0543
      5 C           3.6893    0.0961   -3.6079 C.ar    1  UNL1       -0.0607
      6 C           3.5730   -1.2517   -3.9327 C.ar    1  UNL1       -0.0525
      7 C           3.0720   -2.1669   -2.9913 C.ar    1  UNL1        0.0013
      8 C           2.9608   -3.5295   -3.2843 C.ar    1  UNL1       -0.0434
      9 C           2.4851   -4.4251   -2.3190 C.ar    1  UNL1        0.0013
     10 C           2.4014   -5.8006   -2.5852 C.ar    1  UNL1       -0.0525
     11 C           1.9477   -6.6770   -1.6066 C.ar    1  UNL1       -0.0607
     12 C           1.5663   -6.1808   -0.3653 C.ar    1  UNL1       -0.0543
     13 C           1.6316   -4.8029   -0.0914 C.ar    1  UNL1        0.0038
     14 C           1.2056   -4.2494    1.2479 C.3     1  UNL1        0.0712
     15 O           0.7353   -5.2662    2.1301 O.3     1  UNL1       -0.3903
     16 C           2.1007   -3.9110   -1.0654 C.ar    1  UNL1        0.0770
     17 N           2.1828   -2.5913   -0.7946 N.ar    1  UNL1       -0.2460
     18 C           2.6719   -1.7334   -1.7151 C.ar    1  UNL1        0.0770
     19 H           0.9220   -1.1369    0.0012 H       1  UNL1        0.2098
     20 H           2.4878    1.2077    0.0426 H       1  UNL1        0.0608
     21 H           3.0173   -0.3319    0.7286 H       1  UNL1        0.0608
     22 H           3.3923    1.5893   -2.0985 H       1  UNL1        0.0622
     23 H           4.0849    0.8020   -4.3338 H       1  UNL1        0.0618
     24 H           3.8794   -1.5858   -4.9215 H       1  UNL1        0.0624
     25 H           3.2573   -3.8982   -4.2634 H       1  UNL1        0.0631
     26 H           2.6968   -6.1977   -3.5535 H       1  UNL1        0.0624
     27 H           1.8919   -7.7438   -1.8067 H       1  UNL1        0.0618
     28 H           1.2139   -6.8738    0.3969 H       1  UNL1        0.0622
     29 H           2.0513   -3.7514    1.7341 H       1  UNL1        0.0608
     30 H           0.3888   -3.5333    1.1057 H       1  UNL1        0.0608
     31 H           0.3947   -4.8068    2.9160 H       1  UNL1        0.2098
@<TRIPOS>BOND
     1     1    19    1
     2     2     1    1
     3     2    20    1
     4     2    21    1
     5     3     2    1
     6     4     3   ar
     7     4    22    1
     8     5     4   ar
     9     5    23    1
    10     6     5   ar
    11     6    24    1
    12     7     6   ar
    13     8     7   ar
    14     8    25    1
    15     9     8   ar
    16    10     9   ar
    17    10    26    1
    18    11    10   ar
    19    11    27    1
    20    12    11   ar
    21    12    28    1
    22    13    12   ar
    23    14    13    1
    24    14    29    1
    25    14    30    1
    26    15    14    1
    27    15    31    1
    28    16    13   ar
    29    16     9   ar
    30    17    16   ar
    31    18    17   ar
    32    18     3   ar
    33    18     7   ar
