@<TRIPOS>MOLECULE
mol_641_akc_jbmc200504041
>621.sdf
 28 30 0 0 0
SMALL
GASTEIGER

@<TRIPOS>ATOM
      1 C           0.9521   -0.2622    0.0367 C.3     1  UNL1       -0.0012
      2 C           2.4167    0.0870    0.0027 C.2     1  UNL1        0.1651
      3 O           3.0346    0.0673   -1.0645 O.2     1  UNL1       -0.2922
      4 C           3.1342    0.5565    1.2205 C.ar    1  UNL1        0.0806
      5 C           4.1806    1.4924    1.0197 C.ar    1  UNL1        0.1329
      6 O           4.6043    1.9090   -0.2091 O.3     1  UNL1       -0.5057
      7 C           4.8212    2.0180    2.1169 C.ar    1  UNL1        0.0089
      8 C           4.4589    1.6388    3.4294 C.ar    1  UNL1        0.0096
      9 C           5.3248    2.4532    4.3697 C.3     1  UNL1        0.0069
     10 C           6.6037    2.4496    3.5024 C.3     1  UNL1       -0.0322
     11 C           5.9170    3.0590    2.2584 C.3     1  UNL1        0.0069
     12 C           5.3276    4.2838    2.9429 C.2     1  UNL1       -0.0798
     13 C           4.9745    3.9246    4.1946 C.2     1  UNL1       -0.0798
     14 C           3.4791    0.7076    3.6526 C.ar    1  UNL1        0.1400
     15 O           3.1875    0.3690    4.9403 O.3     1  UNL1       -0.5050
     16 C           2.8261    0.1392    2.5428 C.ar    1  UNL1        0.0965
     17 CL          1.7281   -1.1622    2.8998 Cl      1  UNL1       -0.0789
     18 H           0.4486    0.2555   -0.7859 H       1  UNL1        0.0309
     19 H           0.8373   -1.3422   -0.0891 H       1  UNL1        0.0309
     20 H           0.4567    0.0716    0.9485 H       1  UNL1        0.0309
     21 H           4.2106    1.3163   -0.8891 H       1  UNL1        0.2922
     22 H           5.4596    2.0844    5.3854 H       1  UNL1        0.0393
     23 H           7.4074    3.0786    3.9093 H       1  UNL1        0.0283
     24 H           7.0084    1.4427    3.3274 H       1  UNL1        0.0283
     25 H           6.5789    3.2227    1.4089 H       1  UNL1        0.0393
     26 H           5.1750    5.2450    2.4766 H       1  UNL1        0.0575
     27 H           4.4808    4.5403    4.9304 H       1  UNL1        0.0575
     28 H           2.4593   -0.2810    4.9173 H       1  UNL1        0.2922
@<TRIPOS>BOND
     1     1    18    1
     2     1    19    1
     3     1    20    1
     4     2     1    1
     5     3     2    2
     6     4     2    1
     7     5     4   ar
     8     6     5    1
     9     6    21    1
    10     7     5   ar
    11     8     7   ar
    12     9     8    1
    13     9    22    1
    14    10     9    1
    15    10    23    1
    16    10    24    1
    17    11    10    1
    18    11     7    1
    19    11    25    1
    20    12    11    1
    21    12    26    1
    22    13    12    2
    23    13     9    1
    24    13    27    1
    25    14     8   ar
    26    15    14    1
    27    15    28    1
    28    16    14   ar
    29    16     4   ar
    30    17    16    1
