@<TRIPOS>MOLECULE
mol_642_akc_aac4951679_16872005
>622.sdf
 42 41 0 0 0
SMALL
GASTEIGER

@<TRIPOS>ATOM
      1 C           9.6928   -7.7842   -3.2270 C.3     1  UNL1       -0.0440
      2 C           9.4224   -6.5686   -2.3851 C.2     1  UNL1       -0.0796
      3 C           9.5754   -5.2451   -3.0801 C.3     1  UNL1       -0.0440
      4 C           9.0653   -6.6791   -1.0893 C.2     1  UNL1       -0.0850
      5 C           8.6582   -5.5385   -0.1926 C.3     1  UNL1       -0.0308
      6 C           9.8034   -5.0027    0.6806 C.3     1  UNL1       -0.0286
      7 C           9.4531   -3.8687    1.6379 C.2     1  UNL1       -0.0762
      8 C           8.0753   -3.2501    1.6088 C.3     1  UNL1       -0.0438
      9 C          10.3782   -3.4462    2.5290 C.2     1  UNL1       -0.0849
     10 C          10.1542   -2.3850    3.5784 C.3     1  UNL1       -0.0316
     11 C          11.2972   -1.3629    3.6962 C.3     1  UNL1       -0.0172
     12 C          10.9523   -0.2141    4.6764 C.3     1  UNL1        0.0814
     13 C          12.1715    0.6785    4.9267 C.3     1  UNL1       -0.0324
     14 O          10.5699   -0.7716    5.9356 O.3     1  UNL1       -0.3848
     15 C           9.8202    0.6378    4.1374 C.2     1  UNL1       -0.0602
     16 C           8.5952    0.7652    4.6688 C.2     1  UNL1       -0.1000
     17 H           9.0373   -7.7851   -4.1041 H       1  UNL1        0.0274
     18 H          10.7329   -7.7871   -3.5680 H       1  UNL1        0.0274
     19 H           9.5136   -8.7158   -2.6808 H       1  UNL1        0.0274
     20 H           8.6058   -4.7503   -3.1937 H       1  UNL1        0.0274
     21 H          10.2513   -4.5890   -2.5216 H       1  UNL1        0.0274
     22 H          10.0038   -5.3692   -4.0802 H       1  UNL1        0.0274
     23 H           8.9928   -7.6677   -0.6396 H       1  UNL1        0.0572
     24 H           8.2400   -4.7282   -0.7976 H       1  UNL1        0.0310
     25 H           7.8432   -5.9034    0.4441 H       1  UNL1        0.0310
     26 H          10.2076   -5.8370    1.2687 H       1  UNL1        0.0313
     27 H          10.6120   -4.6565    0.0242 H       1  UNL1        0.0313
     28 H           7.6277   -3.2647    2.6080 H       1  UNL1        0.0274
     29 H           8.1349   -2.2156    1.2558 H       1  UNL1        0.0274
     30 H           7.3669   -3.7671    0.9621 H       1  UNL1        0.0274
     31 H          11.3578   -3.9228    2.5383 H       1  UNL1        0.0572
     32 H           9.2222   -1.8496    3.3827 H       1  UNL1        0.0308
     33 H          10.0294   -2.8970    4.5406 H       1  UNL1        0.0308
     34 H          12.1888   -1.8927    4.0591 H       1  UNL1        0.0299
     35 H          11.5482   -0.9554    2.7090 H       1  UNL1        0.0299
     36 H          12.9831    0.1113    5.3970 H       1  UNL1        0.0260
     37 H          12.5506    1.1249    4.0017 H       1  UNL1        0.0260
     38 H          11.9237    1.4899    5.6240 H       1  UNL1        0.0260
     39 H          11.3112   -1.3121    6.2554 H       1  UNL1        0.2106
     40 H          10.0329    1.1827    3.2188 H       1  UNL1        0.0594
     41 H           8.3155    0.2370    5.5758 H       1  UNL1        0.0533
     42 H           7.8433    1.3903    4.1994 H       1  UNL1        0.0533
@<TRIPOS>BOND
     1     1    17    1
     2     1    18    1
     3     1    19    1
     4     2     1    1
     5     3     2    1
     6     3    20    1
     7     3    21    1
     8     3    22    1
     9     4     2    2
    10     4    23    1
    11     5     4    1
    12     5    24    1
    13     5    25    1
    14     6     5    1
    15     6    26    1
    16     6    27    1
    17     7     6    1
    18     8     7    1
    19     8    28    1
    20     8    29    1
    21     8    30    1
    22     9     7    2
    23     9    31    1
    24    10     9    1
    25    10    32    1
    26    10    33    1
    27    11    10    1
    28    11    34    1
    29    11    35    1
    30    13    36    1
    31    13    37    1
    32    13    38    1
    33    14    12    1
    34    14    39    1
    35    15    12    1
    36    15    40    1
    37    16    15    2
    38    16    41    1
    39    16    42    1
    40    12    13    1
    41    12    11    1
