@<TRIPOS>MOLECULE
mol_643_akc_aac4931076_10802005
>623.sdf
 35 37 0 0 0
SMALL
GASTEIGER

@<TRIPOS>ATOM
      1 C           1.0953    0.4470   -0.0437 C.3     1  UNL1       -0.0216
      2 C           2.5713    0.1799   -0.0787 C.ar    1  UNL1        0.0495
      3 N           3.3340    1.3056   -0.0928 N.ar    1  UNL1       -0.2511
      4 C           4.6719    1.1987   -0.1300 C.ar    1  UNL1        0.0748
      5 C           5.4376    2.3576   -0.1477 C.ar    1  UNL1       -0.0356
      6 C           6.8326    2.3215   -0.2195 C.ar    1  UNL1       -0.0597
      7 C           7.4865    1.0978   -0.2670 C.ar    1  UNL1       -0.0610
      8 C           6.7406   -0.0787   -0.2296 C.ar    1  UNL1       -0.0490
      9 C           5.3286   -0.0436   -0.1591 C.ar    1  UNL1        0.0424
     10 C           4.5198   -1.1962   -0.1137 C.ar    1  UNL1        0.1348
     11 O           5.1592   -2.4183   -0.1123 O.3     1  UNL1       -0.5055
     12 C           3.1197   -1.1062   -0.0629 C.ar    1  UNL1        0.0381
     13 C           2.2901   -2.3187    0.0318 C.2     1  UNL1       -0.0488
     14 C           1.8544   -2.9869   -1.0470 C.2     1  UNL1       -0.0539
     15 C           1.0815   -4.2417   -0.9987 C.ar    1  UNL1       -0.0250
     16 C           0.2944   -4.6079    0.1013 C.ar    1  UNL1       -0.0546
     17 C          -0.4167   -5.8124    0.1051 C.ar    1  UNL1       -0.0612
     18 C          -0.3630   -6.6594   -0.9980 C.ar    1  UNL1       -0.0617
     19 C           0.3968   -6.3009   -2.1088 C.ar    1  UNL1       -0.0612
     20 C           1.1105   -5.0970   -2.1096 C.ar    1  UNL1       -0.0546
     21 H           0.8061    0.8002    0.9516 H       1  UNL1        0.0293
     22 H           0.8473    1.2249   -0.7739 H       1  UNL1        0.0293
     23 H           0.4894   -0.4287   -0.2917 H       1  UNL1        0.0293
     24 H           4.9307    3.3191   -0.1095 H       1  UNL1        0.0639
     25 H           7.3994    3.2482   -0.2423 H       1  UNL1        0.0618
     26 H           8.5702    1.0556   -0.3334 H       1  UNL1        0.0618
     27 H           7.2580   -1.0356   -0.2610 H       1  UNL1        0.0625
     28 H           4.4937   -3.1265   -0.1169 H       1  UNL1        0.2922
     29 H           2.0959   -2.6526    1.0478 H       1  UNL1        0.0625
     30 H           2.0968   -2.6188   -2.0454 H       1  UNL1        0.0624
     31 H           0.2115   -3.9622    0.9725 H       1  UNL1        0.0623
     32 H          -1.0154   -6.0854    0.9703 H       1  UNL1        0.0618
     33 H          -0.9164   -7.5956   -0.9946 H       1  UNL1        0.0618
     34 H           0.4363   -6.9552   -2.9750 H       1  UNL1        0.0618
     35 H           1.6975   -4.8427   -2.9903 H       1  UNL1        0.0623
@<TRIPOS>BOND
     1     1    21    1
     2     1    22    1
     3     1    23    1
     4     2     1    1
     5     3     2   ar
     6     4     3   ar
     7     5     4   ar
     8     5    24    1
     9     6     5   ar
    10     6    25    1
    11     7     6   ar
    12     7    26    1
    13     8     7   ar
    14     8    27    1
    15     9     8   ar
    16     9     4   ar
    17    10     9   ar
    18    11    10    1
    19    11    28    1
    20    12    10   ar
    21    12     2   ar
    22    13    12    1
    23    13    29    1
    24    14    13    2
    25    14    30    1
    26    15    14    1
    27    16    15   ar
    28    16    31    1
    29    17    16   ar
    30    17    32    1
    31    18    17   ar
    32    18    33    1
    33    19    18   ar
    34    19    34    1
    35    20    19   ar
    36    20    15   ar
    37    20    35    1
