@<TRIPOS>MOLECULE
mol_644_akc_aac492808_8122005
>624.sdf
 15 15 0 0 0
SMALL
GASTEIGER

@<TRIPOS>ATOM
      1 N           1.1194    0.1206    0.3043 N.am    1  UNL1       -0.3253
      2 C           2.4441   -0.0925    0.0387 C.2     1  UNL1        0.2430
      3 O           3.0429   -1.0428    0.5229 O.2     1  UNL1       -0.2704
      4 C           3.1021    0.8439   -0.8952 C.ar    1  UNL1        0.0545
      5 C           2.6931    2.1693   -1.0566 C.ar    1  UNL1       -0.0467
      6 C           3.3621    2.9810   -1.9717 C.ar    1  UNL1       -0.0429
      7 C           4.4160    2.4366   -2.6897 C.ar    1  UNL1        0.0276
      8 N           4.8447    1.1638   -2.5452 N.ar    1  UNL1       -0.2625
      9 C           4.1842    0.3969   -1.6410 C.ar    1  UNL1        0.0396
     10 H           0.6532   -0.5955    0.8478 H       1  UNL1        0.1453
     11 H           0.5418    0.7179   -0.2697 H       1  UNL1        0.1453
     12 H           1.8834    2.5850   -0.4653 H       1  UNL1        0.0626
     13 H           3.0732    4.0163   -2.1174 H       1  UNL1        0.0633
     14 H           4.9635    3.0290   -3.4179 H       1  UNL1        0.0829
     15 H           4.5564   -0.6202   -1.5422 H       1  UNL1        0.0837
@<TRIPOS>BOND
     1     1    10    1
     2     1    11    1
     3     2     1   am
     4     3     2    2
     5     4     2    1
     6     5     4   ar
     7     5    12    1
     8     6     5   ar
     9     6    13    1
    10     7     6   ar
    11     7    14    1
    12     8     7   ar
    13     9     8   ar
    14     9     4   ar
    15     9    15    1
