@<TRIPOS>MOLECULE
mol_645_akc_jijantimicag200408010
>625.sdf
 51 55 0 0 0
SMALL
GASTEIGER

@<TRIPOS>ATOM
      1 C           3.9605   -1.8585    0.9056 C.3     1  UNL1       -0.0544
      2 C           2.5978   -1.2970    0.4734 C.3     1  UNL1        0.0062
      3 C           2.7715   -0.3372   -0.7220 C.3     1  UNL1       -0.0425
      4 C           1.4353    0.2475   -1.2166 C.3     1  UNL1       -0.0517
      5 C           0.2608   -0.7438   -1.2523 C.3     1  UNL1       -0.0451
      6 C           0.1735   -1.7489   -0.0411 C.3     1  UNL1       -0.0027
      7 C          -0.1999   -0.9768    1.2436 C.3     1  UNL1        0.0455
      8 N           0.8716   -0.2904    1.9618 N.2     1  UNL1       -0.2947
      9 C           2.0924   -0.4672    1.6304 C.2     1  UNL1        0.0058
     10 C           1.5903   -2.3742    0.0329 C.3     1  UNL1       -0.0232
     11 C           1.6597   -3.7157    0.7505 C.3     1  UNL1       -0.0482
     12 C           0.7946   -4.7177   -0.0149 C.3     1  UNL1       -0.0441
     13 C          -0.6883   -4.3323    0.0056 C.3     1  UNL1        0.0040
     14 C          -1.2439   -4.6779    1.4247 C.3     1  UNL1       -0.0439
     15 C          -2.7556   -4.4644    1.5111 C.3     1  UNL1       -0.0458
     16 C          -3.2465   -3.7794    0.2343 C.3     1  UNL1       -0.0174
     17 C          -2.4223   -2.4868    0.0230 C.3     1  UNL1       -0.0424
     18 C          -0.9455   -2.8255   -0.3738 C.3     1  UNL1       -0.0246
     19 C          -2.9904   -4.7486   -0.9103 C.2     1  UNL1       -0.0449
     20 C          -3.9565   -5.1620   -1.7393 C.2     1  UNL1       -0.0967
     21 C          -1.5359   -5.1752   -1.0238 C.3     1  UNL1        0.0821
     22 O          -1.1424   -4.9562   -2.3756 O.3     1  UNL1       -0.3869
     23 H           4.4096   -2.4768    0.1250 H       1  UNL1        0.0239
     24 H           4.6677   -1.0480    1.1409 H       1  UNL1        0.0239
     25 H           3.8692   -2.4540    1.8198 H       1  UNL1        0.0239
     26 H           3.4507    0.4913   -0.4724 H       1  UNL1        0.0274
     27 H           3.2470   -0.8780   -1.5517 H       1  UNL1        0.0274
     28 H           1.1652    1.1018   -0.5850 H       1  UNL1        0.0266
     29 H           1.5881    0.6542   -2.2241 H       1  UNL1        0.0266
     30 H          -0.6751   -0.1876   -1.3593 H       1  UNL1        0.0271
     31 H           0.3703   -1.3215   -2.1789 H       1  UNL1        0.0271
     32 H          -0.6584   -1.6458    1.9755 H       1  UNL1        0.0514
     33 H          -0.9506   -0.2133    0.9977 H       1  UNL1        0.0514
     34 H           2.8540    0.0950    2.2068 H       1  UNL1        0.0784
     35 H           1.8749   -2.6384   -1.0013 H       1  UNL1        0.0315
     36 H           2.6819   -4.1073    0.7262 H       1  UNL1        0.0269
     37 H           1.3751   -3.6306    1.8033 H       1  UNL1        0.0269
     38 H           0.9357   -5.7179    0.4139 H       1  UNL1        0.0272
     39 H           1.1714   -4.7845   -1.0415 H       1  UNL1        0.0272
     40 H          -0.7499   -4.0863    2.2013 H       1  UNL1        0.0272
     41 H          -1.0303   -5.7302    1.6610 H       1  UNL1        0.0272
     42 H          -2.9916   -3.8601    2.3951 H       1  UNL1        0.0271
     43 H          -3.2616   -5.4295    1.6556 H       1  UNL1        0.0271
     44 H          -4.3095   -3.5408    0.3333 H       1  UNL1        0.0346
     45 H          -2.4886   -1.9143    0.9526 H       1  UNL1        0.0274
     46 H          -2.8782   -1.8639   -0.7537 H       1  UNL1        0.0274
     47 H          -0.9697   -2.8127   -1.4714 H       1  UNL1        0.0313
     48 H          -4.9884   -4.8273   -1.6363 H       1  UNL1        0.0535
     49 H          -3.7329   -5.8373   -2.5677 H       1  UNL1        0.0535
     50 H          -1.4385   -6.2456   -0.8103 H       1  UNL1        0.0646
     51 H          -0.1880   -5.0981   -2.4515 H       1  UNL1        0.2102
@<TRIPOS>BOND
     1     1    23    1
     2     1    24    1
     3     1    25    1
     4     3     2    1
     5     4     3    1
     6     5     4    1
     7     6     5    1
     8     7     6    1
     9     8     7    1
    10     9     8    2
    11     9     2    1
    12    10     6    1
    13    10     2    1
    14    11    10    1
    15    12    11    1
    16    13    12    1
    17    14    13    1
    18    15    14    1
    19    16    15    1
    20    17    16    1
    21    18    17    1
    22    18     6    1
    23    18    13    1
    24    19    16    1
    25    20    48    1
    26    20    49    1
    27    21    19    1
    28    21    13    1
    29    22    51    1
    30     2     1    1
    31     3    26    1
    32     3    27    1
    33     4    28    1
    34     4    29    1
    35     5    30    1
    36     5    31    1
    37     7    32    1
    38     7    33    1
    39     9    34    1
    40    10    35    1
    41    11    36    1
    42    11    37    1
    43    12    38    1
    44    12    39    1
    45    14    40    1
    46    14    41    1
    47    15    42    1
    48    15    43    1
    49    16    44    1
    50    17    45    1
    51    17    46    1
    52    18    47    1
    53    20    19    2
    54    21    50    1
    55    22    21    1
