@<TRIPOS>MOLECULE
mol_646_akc_jbioorg200507001
>626.sdf
 42 44 0 0 0
SMALL
GASTEIGER

@<TRIPOS>ATOM
      1 C          -9.1019    7.9261    2.0019 C.3     1  UNL1       -0.0319
      2 C          -8.9590    6.4849    2.3277 C.ar    1  UNL1        0.0068
      3 C          -9.2986    5.3830    1.5774 C.ar    1  UNL1        0.0383
      4 N          -9.0299    4.1615    2.1571 N.ar    1  UNL1       -0.2468
      5 C          -8.5235    4.3118    3.3724 C.ar    1  UNL1        0.1150
      6 S          -8.2828    5.9741    3.8129 S.2     1  UNL1       -0.0723
      7 C          -8.1085    3.2426    4.2211 C.ar    1  UNL1        0.0876
      8 C          -7.6190    2.1230    3.6646 C.ar    1  UNL1        0.0242
      9 N          -7.1894    1.0329    4.4012 N.ar    1  UNL1       -0.2996
     10 C          -6.6577   -0.1454    3.7021 C.3     1  UNL1        0.0304
     11 C          -5.3711    0.1336    2.9011 C.3     1  UNL1       -0.0201
     12 C          -4.2177    0.6530    3.7731 C.3     1  UNL1       -0.0221
     13 C          -3.3333   -0.5638    4.0035 C.3     1  UNL1        0.0605
     14 O          -2.0265   -0.2007    4.4036 O.3     1  UNL1       -0.3914
     15 C          -3.3532   -1.2394    2.6390 C.3     1  UNL1        0.0085
     16 C          -2.7977   -2.6562    2.6661 C.3     1  UNL1        0.0494
     17 O          -2.8178   -3.1885    1.3467 O.3     1  UNL1       -0.3946
     18 C          -4.8310   -1.1540    2.2353 C.3     1  UNL1       -0.0412
     19 C          -7.2789    1.0155    5.7885 C.ar    1  UNL1        0.3294
     20 O          -6.9501    0.0672    6.4966 O.2     1  UNL1       -0.2465
     21 N          -7.7741    2.1572    6.3587 N.ar    1  UNL1       -0.2744
     22 C          -8.2420    3.2658    5.7006 C.ar    1  UNL1        0.2637
     23 O          -8.7557    4.1885    6.3242 O.2     1  UNL1       -0.2670
     24 H          -9.6911    8.4445    2.7652 H       1  UNL1        0.0283
     25 H          -8.1210    8.4072    1.9301 H       1  UNL1        0.0283
     26 H          -9.6106    8.0593    1.0410 H       1  UNL1        0.0283
     27 H          -9.7428    5.4103    0.5895 H       1  UNL1        0.0838
     28 H          -7.5326    2.0353    2.5833 H       1  UNL1        0.0819
     29 H          -6.4681   -0.9481    4.4247 H       1  UNL1        0.0496
     30 H          -7.4457   -0.5115    3.0318 H       1  UNL1        0.0496
     31 H          -5.5861    0.8745    2.1217 H       1  UNL1        0.0319
     32 H          -4.5282    1.1125    4.7149 H       1  UNL1        0.0293
     33 H          -3.6629    1.4258    3.2239 H       1  UNL1        0.0293
     34 H          -3.7656   -1.2120    4.7750 H       1  UNL1        0.0597
     35 H          -1.7084    0.5058    3.8154 H       1  UNL1        0.2098
     36 H          -2.7593   -0.6551    1.9216 H       1  UNL1        0.0348
     37 H          -1.7624   -2.6581    3.0227 H       1  UNL1        0.0561
     38 H          -3.3916   -3.3100    3.3131 H       1  UNL1        0.0561
     39 H          -2.3381   -4.0348    1.3767 H       1  UNL1        0.2094
     40 H          -5.3834   -2.0385    2.5746 H       1  UNL1        0.0273
     41 H          -4.9356   -1.1068    1.1457 H       1  UNL1        0.0273
     42 H          -7.8775    2.1488    7.3608 H       1  UNL1        0.1734
@<TRIPOS>BOND
     1     1    24    1
     2     1    25    1
     3     1    26    1
     4     2     1    1
     5     3     2   ar
     6     3    27    1
     7     4     3   ar
     8     5     4   ar
     9     6     5   ar
    10     6     2   ar
    11     7     5    1
    12     8     7   ar
    13     8    28    1
    14     9     8   ar
    15    10     9    1
    16    10    29    1
    17    10    30    1
    18    12    11    1
    19    12    32    1
    20    12    33    1
    21    13    12    1
    22    14    35    1
    23    15    13    1
    24    15    36    1
    25    16    15    1
    26    16    37    1
    27    16    38    1
    28    17    16    1
    29    17    39    1
    30    18    15    1
    31    18    11    1
    32    18    40    1
    33    18    41    1
    34    19     9   ar
    35    20    19    2
    36    21    19   ar
    37    21    42    1
    38    22    21   ar
    39    22     7   ar
    40    23    22    2
    41    11    31    1
    42    11    10    1
    43    13    14    1
    44    13    34    1
