@<TRIPOS>MOLECULE
mol_647_akc_aac4911176_1822005
>627.sdf
 38 40 0 0 0
SMALL
GASTEIGER

@<TRIPOS>ATOM
      1 C           1.6984    7.4755    2.7997 C.3     1  UNL1       -0.0438
      2 C           1.1957    6.7361    1.5777 C.2     1  UNL1       -0.0765
      3 C           2.0487    6.5965    0.5438 C.2     1  UNL1       -0.0849
      4 C           1.8574    5.9492   -0.7897 C.3     1  UNL1       -0.0318
      5 C           1.2792    6.8656   -1.8750 C.3     1  UNL1       -0.0180
      6 C           1.2713    8.3362   -1.5377 C.3     1  UNL1        0.0971
      7 C           0.2077    9.0877   -0.7167 C.3     1  UNL1        0.1254
      8 O           0.1563    9.0175   -2.1450 O.3     1  UNL1       -0.3612
      9 C          -1.0136    8.6207    0.0139 C.3     1  UNL1        0.1390
     10 C          -1.6342    7.2682   -0.3115 C.3     1  UNL1        0.0303
     11 C          -1.1346    6.0346    0.4827 C.3     1  UNL1       -0.0388
     12 C          -0.2320    6.2425    1.7065 C.3     1  UNL1       -0.0313
     13 C          -3.0909    7.5836   -0.1291 C.2     1  UNL1        0.0362
     14 C          -4.1476    6.7738    0.0333 C.2     1  UNL1       -0.0883
     15 C          -3.2690    9.0470   -0.1956 C.2     1  UNL1        0.3353
     16 O          -4.3268    9.6490   -0.2255 O.2     1  UNL1       -0.2453
     17 O          -2.0385    9.6087   -0.2325 O.3     1  UNL1       -0.4548
     18 C           2.5859    9.0570   -1.6981 C.3     1  UNL1       -0.0332
     19 H           1.3081    7.0272    3.7173 H       1  UNL1        0.0274
     20 H           2.7918    7.4566    2.8729 H       1  UNL1        0.0274
     21 H           1.3765    8.5212    2.7557 H       1  UNL1        0.0274
     22 H           3.0457    7.0292    0.6537 H       1  UNL1        0.0572
     23 H           1.2755    5.0254   -0.7129 H       1  UNL1        0.0308
     24 H           2.8432    5.5988   -1.1260 H       1  UNL1        0.0308
     25 H           1.8713    6.7270   -2.7898 H       1  UNL1        0.0297
     26 H           0.2847    6.5136   -2.1589 H       1  UNL1        0.0297
     27 H           0.5104   10.0436   -0.2982 H       1  UNL1        0.0662
     28 H          -0.8025    8.7120    1.0846 H       1  UNL1        0.0767
     29 H          -1.5369    7.0547   -1.3821 H       1  UNL1        0.0388
     30 H          -1.9982    5.4711    0.8587 H       1  UNL1        0.0275
     31 H          -0.6764    5.3291   -0.2138 H       1  UNL1        0.0275
     32 H          -0.7717    6.9068    2.3954 H       1  UNL1        0.0310
     33 H          -0.1703    5.2809    2.2360 H       1  UNL1        0.0310
     34 H          -5.1520    7.1809    0.1321 H       1  UNL1        0.0540
     35 H          -4.0565    5.6942    0.0481 H       1  UNL1        0.0540
     36 H           3.4214    8.3569   -1.8030 H       1  UNL1        0.0258
     37 H           2.7963    9.6753   -0.8187 H       1  UNL1        0.0258
     38 H           2.5755    9.7078   -2.5787 H       1  UNL1        0.0258
@<TRIPOS>BOND
     1     1    19    1
     2     1    20    1
     3     1    21    1
     4     2     1    1
     5     3     2    2
     6     3    22    1
     7     4     3    1
     8     4    23    1
     9     4    24    1
    10     5     4    1
    11     5    25    1
    12     5    26    1
    13     6     5    1
    14     6    18    1
    15     7     6    1
    16     7    27    1
    17     8     7    1
    18     8     6    1
    19     9     7    1
    20     9    28    1
    21    10     9    1
    22    10    29    1
    23    11    10    1
    24    11    30    1
    25    11    31    1
    26    12    11    1
    27    12     2    1
    28    12    32    1
    29    12    33    1
    30    13    10    1
    31    14    13    2
    32    14    34    1
    33    14    35    1
    34    15    13    1
    35    16    15    2
    36    17    15    1
    37    17     9    1
    38    18    36    1
    39    18    37    1
    40    18    38    1
