@<TRIPOS>MOLECULE
mol_648_akc_jbmc200403054
>628.sdf
 22 23 0 0 0
SMALL
GASTEIGER

@<TRIPOS>ATOM
      1 CL         -2.0343    0.0785   -0.5376 Cl      1  UNL1       -0.0835
      2 C          -0.3251    0.0508   -0.3475 C.ar    1  UNL1        0.0410
      3 C           0.4522   -0.7458   -1.1854 C.ar    1  UNL1       -0.0427
      4 C           1.8436   -0.7563   -1.0415 C.ar    1  UNL1       -0.0496
      5 C           2.4664    0.0288   -0.0584 C.ar    1  UNL1        0.0225
      6 C           1.6653    0.8147    0.7854 C.ar    1  UNL1       -0.0496
      7 C           0.2745    0.8283    0.6400 C.ar    1  UNL1       -0.0427
      8 C           3.9181    0.0411    0.0893 C.ar    1  UNL1        0.2021
      9 N           4.7642   -0.6202   -0.7185 N.ar    1  UNL1       -0.0561
     10 O           6.0221   -0.3225   -0.2016 O.2     1  UNL1       -0.3368
     11 C           5.8166    0.4912    0.8725 C.ar    1  UNL1        0.2385
     12 C           7.0140    0.9143    1.6324 C.3     1  UNL1        0.0867
     13 S           7.6932    2.4610    0.9714 S.3     1  UNL1       -0.0370
     14 C           8.9711    2.6146    2.0645 C.1     1  UNL1        0.1334
     15 N           9.8396    2.6901    2.8272 N.1     1  UNL1       -0.1838
     16 N           4.5474    0.7454    1.0952 N.ar    1  UNL1       -0.1906
     17 H          -0.0140   -1.3566   -1.9540 H       1  UNL1        0.0632
     18 H           2.4357   -1.3820   -1.7075 H       1  UNL1        0.0625
     19 H           2.1204    1.4291    1.5606 H       1  UNL1        0.0625
     20 H          -0.3295    1.4498    1.2961 H       1  UNL1        0.0632
     21 H           6.7359    1.0588    2.6823 H       1  UNL1        0.0483
     22 H           7.7766    0.1289    1.5934 H       1  UNL1        0.0483
@<TRIPOS>BOND
     1     2     1    1
     2     3     2   ar
     3     3    17    1
     4     4     3   ar
     5     4    18    1
     6     5     4   ar
     7     6     5   ar
     8     6    19    1
     9     7     6   ar
    10     7     2   ar
    11     7    20    1
    12     8     5    1
    13     9     8   ar
    14    10     9   ar
    15    11    10   ar
    16    12    11    1
    17    12    21    1
    18    12    22    1
    19    13    12    1
    20    14    13    1
    21    15    14    3
    22    16    11   ar
    23    16     8   ar
