@<TRIPOS>MOLECULE
mol_649_akc
>629.sdf
 30 32 0 0 0
SMALL
GASTEIGER

@<TRIPOS>ATOM
      1 C           0.9642    0.0407    0.0260 C.3     1  UNL1       -0.0208
      2 C           2.4671    0.1110    0.0171 C.2     1  UNL1        0.0563
      3 N           3.0399    1.2639    0.0215 N.2     1  UNL1       -0.2861
      4 C           4.5117    1.4037   -0.0221 C.3     1  UNL1        0.0441
      5 C           5.3853    0.1366    0.0617 C.3     1  UNL1       -0.0055
      6 C           4.6061   -1.1196    0.0192 C.ar    1  UNL1       -0.0115
      7 C           3.2320   -1.1031    0.0041 C.ar    1  UNL1        0.0644
      8 N           2.8014   -2.4028   -0.0098 N.ar    1  UNL1       -0.3529
      9 C           3.8843   -3.2601   -0.0004 C.ar    1  UNL1        0.0507
     10 C           5.0351   -2.4716    0.0127 C.ar    1  UNL1        0.0038
     11 C           6.2905   -3.1050    0.0253 C.ar    1  UNL1       -0.0489
     12 C           6.3470   -4.5039    0.0261 C.ar    1  UNL1       -0.0193
     13 C           5.1852   -5.2774    0.0160 C.ar    1  UNL1        0.1221
     14 C           3.9267   -4.6638    0.0024 C.ar    1  UNL1        0.0040
     15 O           5.4097   -6.6294    0.0225 O.3     1  UNL1       -0.4950
     16 C           4.2633   -7.4704    0.0168 C.3     1  UNL1        0.0788
     17 H           0.6142   -0.4856   -0.8669 H       1  UNL1        0.0293
     18 H           0.6225   -0.4938    0.9166 H       1  UNL1        0.0293
     19 H           0.5344    1.0470    0.0311 H       1  UNL1        0.0293
     20 H           4.7616    1.9390   -0.9463 H       1  UNL1        0.0511
     21 H           4.8039    2.0764    0.7937 H       1  UNL1        0.0511
     22 H           5.9699    0.1647    0.9897 H       1  UNL1        0.0332
     23 H           6.1123    0.1485   -0.7597 H       1  UNL1        0.0332
     24 H           1.8375   -2.7033   -0.0183 H       1  UNL1        0.1659
     25 H           7.2060   -2.5219    0.0358 H       1  UNL1        0.0625
     26 H           7.3179   -4.9951    0.0360 H       1  UNL1        0.0654
     27 H           3.0046   -5.2297   -0.0039 H       1  UNL1        0.0675
     28 H           3.6570   -7.3162    0.9155 H       1  UNL1        0.0660
     29 H           3.6705   -7.3220   -0.8917 H       1  UNL1        0.0660
     30 H           4.6092   -8.5082    0.0228 H       1  UNL1        0.0660
@<TRIPOS>BOND
     1     1    17    1
     2     1    18    1
     3     1    19    1
     4     2     1    1
     5     3     2    2
     6     4     3    1
     7     4    20    1
     8     4    21    1
     9     5     4    1
    10     5    22    1
    11     5    23    1
    12     6     5    1
    13     7     6   ar
    14     7     2    1
    15     8     7   ar
    16     8    24    1
    17     9     8   ar
    18    10     9   ar
    19    10     6   ar
    20    11    10   ar
    21    11    25    1
    22    12    11   ar
    23    12    26    1
    24    13    12   ar
    25    14    13   ar
    26    14     9   ar
    27    14    27    1
    28    15    13    1
    29    16    15    1
    30    16    28    1
    31    16    29    1
    32    16    30    1
