@<TRIPOS>MOLECULE
mol_64_akc_1040663820222092877
>63.sdf
 55 56 0 0 0
SMALL
GASTEIGER

@<TRIPOS>ATOM
      1 C           2.5453   -0.6728   -1.1322 C.3     1  UNL1       -0.0306
      2 C           4.0477   -0.5270   -0.9901 C.3     1  UNL1        0.0900
      3 O           4.4243    0.8257   -1.2933 O.3     1  UNL1       -0.4616
      4 C           4.5571    1.6389   -0.2172 C.2     1  UNL1        0.3375
      5 O           4.3374    1.3312    0.9446 O.2     1  UNL1       -0.2452
      6 C           4.9896    2.9882   -0.6437 C.2     1  UNL1        0.0652
      7 C           4.3794    4.0850   -0.1329 C.2     1  UNL1        0.0157
      8 C           3.1903    4.0881    0.7969 C.3     1  UNL1       -0.0260
      9 N           4.8566    5.3454   -0.4627 N.pl3   1  UNL1       -0.3207
     10 C           6.0895    5.5752   -1.0563 C.2     1  UNL1        0.0157
     11 C           6.5598    7.0080   -0.9731 C.3     1  UNL1       -0.0260
     12 C           6.7644    4.5441   -1.6214 C.2     1  UNL1        0.0652
     13 C           6.1529    3.1302   -1.6292 C.3     1  UNL1        0.0507
     14 C           7.2082    2.0324   -1.4803 C.ar    1  UNL1       -0.0314
     15 C           7.3421    1.0601   -2.4838 C.ar    1  UNL1       -0.0540
     16 C           8.3744    0.1206   -2.4364 C.ar    1  UNL1       -0.0160
     17 C           9.3146    0.1493   -1.4026 C.ar    1  UNL1        0.1615
     18 O          10.3697   -0.7193   -1.3094 O.3     1  UNL1       -0.4915
     19 C          10.6263   -1.5611   -2.4265 C.3     1  UNL1        0.0790
     20 C           9.1692    1.1078   -0.3839 C.ar    1  UNL1        0.1618
     21 O           9.9983    1.2433    0.7009 O.3     1  UNL1       -0.4914
     22 C          11.3855    1.2635    0.3772 C.3     1  UNL1        0.0790
     23 C           8.1009    2.0110   -0.4033 C.ar    1  UNL1       -0.0122
     24 C           8.1532    4.7499   -2.1075 C.2     1  UNL1        0.3375
     25 O           8.9626    5.4678   -1.5351 O.2     1  UNL1       -0.2452
     26 O           8.4185    4.0199   -3.2196 O.3     1  UNL1       -0.4616
     27 C           9.7976    4.0901   -3.6226 C.3     1  UNL1        0.0900
     28 C          10.1243    2.9439   -4.5617 C.3     1  UNL1       -0.0306
     29 H           2.2300   -1.6971   -0.9152 H       1  UNL1        0.0262
     30 H           2.0212    0.0092   -0.4551 H       1  UNL1        0.0262
     31 H           2.2328   -0.4155   -2.1493 H       1  UNL1        0.0262
     32 H           4.3813   -0.8358    0.0079 H       1  UNL1        0.0695
     33 H           4.5567   -1.1776   -1.7091 H       1  UNL1        0.0695
     34 H           3.4874    4.4653    1.7808 H       1  UNL1        0.0290
     35 H           2.4123    4.7507    0.4003 H       1  UNL1        0.0290
     36 H           2.7223    3.1111    0.9313 H       1  UNL1        0.0290
     37 H           4.4643    6.1216    0.0673 H       1  UNL1        0.1516
     38 H           5.7498    7.6841   -1.2698 H       1  UNL1        0.0290
     39 H           6.8383    7.2475    0.0593 H       1  UNL1        0.0290
     40 H           7.4036    7.2421   -1.6244 H       1  UNL1        0.0290
     41 H           5.7102    3.0188   -2.6297 H       1  UNL1        0.0451
     42 H           6.6511    1.0393   -3.3262 H       1  UNL1        0.0622
     43 H           8.4239   -0.6086   -3.2380 H       1  UNL1        0.0655
     44 H           9.8474   -2.3242   -2.5221 H       1  UNL1        0.0660
     45 H          10.7325   -0.9845   -3.3520 H       1  UNL1        0.0660
     46 H          11.5766   -2.0727   -2.2479 H       1  UNL1        0.0660
     47 H          11.8090    0.2597    0.4813 H       1  UNL1        0.0660
     48 H          11.5863    1.6711   -0.6213 H       1  UNL1        0.0660
     49 H          11.8868    1.9101    1.1031 H       1  UNL1        0.0660
     50 H           8.0123    2.7399    0.4004 H       1  UNL1        0.0658
     51 H           9.9596    5.0436   -4.1346 H       1  UNL1        0.0695
     52 H          10.4655    4.0265   -2.7532 H       1  UNL1        0.0695
     53 H          10.0784    1.9881   -4.0319 H       1  UNL1        0.0262
     54 H           9.4096    2.8934   -5.3874 H       1  UNL1        0.0262
     55 H          11.1344    3.0573   -4.9675 H       1  UNL1        0.0262
@<TRIPOS>BOND
     1     1    29    1
     2     1    30    1
     3     1    31    1
     4     2     1    1
     5     2    32    1
     6     2    33    1
     7     3     2    1
     8     4     3    1
     9     5     4    2
    10     6     4    1
    11     7     6    2
    12     8     7    1
    13     8    34    1
    14     8    35    1
    15     8    36    1
    16     9     7    1
    17     9    37    1
    18    10     9    1
    19    11    10    1
    20    11    38    1
    21    11    39    1
    22    11    40    1
    23    12    10    2
    24    13    12    1
    25    13     6    1
    26    15    14   ar
    27    15    42    1
    28    16    15   ar
    29    16    43    1
    30    17    16   ar
    31    18    17    1
    32    19    18    1
    33    19    44    1
    34    19    45    1
    35    19    46    1
    36    20    17   ar
    37    21    20    1
    38    22    21    1
    39    22    47    1
    40    22    48    1
    41    22    49    1
    42    23    20   ar
    43    23    14   ar
    44    23    50    1
    45    24    12    1
    46    25    24    2
    47    26    24    1
    48    27    26    1
    49    27    51    1
    50    27    52    1
    51    28    27    1
    52    28    53    1
    53    28    54    1
    54    28    55    1
    55    13    14    1
    56    13    41    1
