@<TRIPOS>MOLECULE
mol_651_akc_s_2004_815460
>631.sdf
 69 74 0 0 0
SMALL
GASTEIGER

@<TRIPOS>ATOM
      1 C          13.5147   -5.7862   -3.8902 C.3     1  UNL1       -0.0359
      2 C          13.2829   -5.7417   -2.3787 C.3     1  UNL1        0.0867
      3 C          11.8176   -6.0091   -1.9505 C.3     1  UNL1        0.1100
      4 C          10.9561   -4.8487   -2.3297 C.2     1  UNL1        0.0399
      5 C          11.4966   -3.6278   -2.4678 C.2     1  UNL1        0.0376
      6 C          12.9659   -3.3371   -2.2242 C.3     1  UNL1        0.0853
      7 O          13.7244   -4.4973   -1.8207 O.3     1  UNL1       -0.3663
      8 C          13.2071   -2.2771   -1.1437 C.3     1  UNL1       -0.0344
      9 C          10.6902   -2.5278   -3.0419 C.2     1  UNL1        0.1963
     10 O          11.2637   -1.5547   -3.5133 O.2     1  UNL1       -0.2867
     11 C           9.2128   -2.6713   -3.0123 C.ar    1  UNL1        0.0750
     12 C           8.3895   -1.5460   -3.1670 C.ar    1  UNL1        0.1318
     13 C           7.0136   -1.6689   -3.0720 C.ar    1  UNL1        0.0227
     14 C           6.4522   -2.9018   -2.7638 C.ar    1  UNL1        0.1287
     15 C           7.2329   -4.0674   -2.5746 C.ar    1  UNL1        0.0362
     16 C           8.6332   -3.9347   -2.7638 C.ar    1  UNL1        0.0475
     17 C           9.5394   -5.1050   -2.6753 C.2     1  UNL1        0.1937
     18 O           9.1347   -6.2381   -2.9112 O.2     1  UNL1       -0.2868
     19 C           6.5558   -5.2645   -1.9797 C.ar    1  UNL1        0.0005
     20 C           5.6290   -5.9979   -2.7528 C.ar    1  UNL1        0.0008
     21 C           5.8517   -6.2857   -4.2212 C.3     1  UNL1        0.1070
     22 C           5.3351   -7.7259   -4.4980 C.3     1  UNL1        0.0866
     23 O           3.9214   -7.8343   -4.2512 O.3     1  UNL1       -0.3663
     24 C           3.4335   -7.1537   -3.0787 C.3     1  UNL1        0.0850
     25 C           4.5258   -6.6411   -2.1511 C.ar    1  UNL1        0.0293
     26 C           4.5217   -6.7750   -0.7584 C.ar    1  UNL1        0.1340
     27 C           5.5590   -6.2284    0.0589 C.ar    1  UNL1        0.0661
     28 C           6.5830   -5.4704   -0.5690 C.ar    1  UNL1        0.0008
     29 C           7.6219   -4.9523    0.2470 C.ar    1  UNL1       -0.0115
     30 C           7.6440   -5.1355    1.6229 C.ar    1  UNL1        0.1209
     31 C           6.6258   -5.8195    2.2484 C.ar    1  UNL1        0.0220
     32 C           5.6164   -6.3799    1.4718 C.ar    1  UNL1        0.1315
     33 O           4.6890   -7.1152    2.1699 O.3     1  UNL1       -0.5059
     34 O           8.6756   -4.6622    2.3789 O.3     1  UNL1       -0.5066
     35 O           3.5349   -7.4996   -0.1213 O.3     1  UNL1       -0.5057
     36 C           2.4948   -6.0240   -3.5338 C.3     1  UNL1       -0.0344
     37 C           6.0878   -8.8121   -3.7140 C.3     1  UNL1       -0.0359
     38 O           5.1768   -5.3176   -5.0117 O.3     1  UNL1       -0.3846
     39 O           5.0912   -2.8594   -2.5920 O.3     1  UNL1       -0.5060
     40 O           8.9146   -0.3035   -3.3721 O.3     1  UNL1       -0.5059
     41 O          11.7152   -6.1310   -0.5309 O.3     1  UNL1       -0.3845
     42 H          14.5681   -5.5846   -4.1139 H       1  UNL1        0.0255
     43 H          13.2499   -6.7648   -4.2979 H       1  UNL1        0.0255
     44 H          12.9377   -5.0272   -4.4288 H       1  UNL1        0.0255
     45 H          13.9225   -6.5064   -1.9223 H       1  UNL1        0.0623
     46 H          11.4795   -6.9503   -2.3967 H       1  UNL1        0.0671
     47 H          13.4136   -2.9862   -3.1626 H       1  UNL1        0.0645
     48 H          12.2968   -1.7486   -0.8445 H       1  UNL1        0.0258
     49 H          13.6671   -2.7034   -0.2443 H       1  UNL1        0.0258
     50 H          13.9044   -1.5194   -1.5219 H       1  UNL1        0.0258
     51 H           6.3576   -0.8062   -3.1770 H       1  UNL1        0.0691
     52 H           6.9191   -6.2446   -4.4710 H       1  UNL1        0.0670
     53 H           5.4613   -7.9376   -5.5636 H       1  UNL1        0.0623
     54 H           2.8015   -7.8891   -2.5742 H       1  UNL1        0.0645
     55 H           8.4585   -4.4252   -0.1925 H       1  UNL1        0.0660
     56 H           6.6249   -5.9415    3.3259 H       1  UNL1        0.0691
     57 H           4.0748   -7.4845    1.5045 H       1  UNL1        0.2922
     58 H           9.4212   -4.4569    1.7977 H       1  UNL1        0.2921
     59 H           3.1994   -8.1874   -0.7231 H       1  UNL1        0.2922
     60 H           1.9177   -5.6192   -2.6957 H       1  UNL1        0.0258
     61 H           3.0297   -5.1840   -3.9838 H       1  UNL1        0.0258
     62 H           1.7975   -6.3858   -4.2981 H       1  UNL1        0.0258
     63 H           5.7149   -8.9366   -2.6909 H       1  UNL1        0.0255
     64 H           5.9470   -9.7862   -4.1932 H       1  UNL1        0.0255
     65 H           7.1609   -8.6032   -3.6707 H       1  UNL1        0.0255
     66 H           4.8690   -5.7565   -5.8158 H       1  UNL1        0.2103
     67 H           4.7360   -3.7594   -2.5443 H       1  UNL1        0.2922
     68 H           8.2054    0.3466   -3.5059 H       1  UNL1        0.2922
     69 H          12.5226   -6.5751   -0.2092 H       1  UNL1        0.2103
@<TRIPOS>BOND
     1     1    42    1
     2     1    43    1
     3     1    44    1
     4     3     2    1
     5     3    46    1
     6     4     3    1
     7     5     4    2
     8     6     5    1
     9     7     6    1
    10     7     2    1
    11     8    48    1
    12     8    49    1
    13     8    50    1
    14     9     5    1
    15    10     9    2
    16    11     9    1
    17    12    11   ar
    18    13    12   ar
    19    13    51    1
    20    14    13   ar
    21    15    14   ar
    22    16    15   ar
    23    16    11   ar
    24    17    16    1
    25    17     4    1
    26    18    17    2
    27    19    15    1
    28    20    19   ar
    29    21    20    1
    30    21    52    1
    31    22    21    1
    32    23    22    1
    33    24    23    1
    34    24    54    1
    35    25    24    1
    36    25    20   ar
    37    26    25   ar
    38    27    26   ar
    39    28    27   ar
    40    28    19   ar
    41    29    28   ar
    42    29    55    1
    43    30    29   ar
    44    31    30   ar
    45    31    56    1
    46    32    31   ar
    47    32    27   ar
    48    33    32    1
    49    33    57    1
    50    34    30    1
    51    34    58    1
    52    35    26    1
    53    35    59    1
    54    36    24    1
    55    36    60    1
    56    36    61    1
    57    36    62    1
    58    37    63    1
    59    37    64    1
    60    37    65    1
    61    38    21    1
    62    38    66    1
    63    39    14    1
    64    39    67    1
    65    40    12    1
    66    40    68    1
    67    41     3    1
    68    41    69    1
    69     2    45    1
    70     2     1    1
    71     6     8    1
    72     6    47    1
    73    22    37    1
    74    22    53    1
