@<TRIPOS>MOLECULE
mol_652_akc_s0001_706x0200258_9
>633.sdf
 56 56 0 0 0
SMALL
GASTEIGER

@<TRIPOS>ATOM
      1 C           4.0281   -0.9143    0.2983 C.3     1  UNL1       -0.0610
      2 C           3.6086    0.4739    0.7519 C.3     1  UNL1       -0.0237
      3 C           3.6562    1.4696   -0.3753 C.2     1  UNL1        0.0369
      4 C           4.7467    2.1945   -0.6824 C.2     1  UNL1        0.1080
      5 C           4.7417    3.2588   -1.7423 C.3     1  UNL1        0.0271
      6 C           3.3716    3.6152   -2.2529 C.2     1  UNL1       -0.0558
      7 C           3.3271    4.8806   -3.0694 C.3     1  UNL1       -0.0307
      8 C           3.0444    6.1079   -2.1939 C.3     1  UNL1       -0.0493
      9 C           2.9404    7.3909   -3.0149 C.3     1  UNL1       -0.0528
     10 C           1.8001    7.3229   -4.0287 C.3     1  UNL1       -0.0530
     11 C           1.6985    8.6014   -4.8402 C.3     1  UNL1       -0.0530
     12 C           0.5768    8.4879   -5.8695 C.3     1  UNL1       -0.0526
     13 C           0.5010    9.7718   -6.6807 C.3     1  UNL1       -0.0430
     14 C          -0.6070    9.7270   -7.7237 C.3     1  UNL1        0.0449
     15 C          -0.6397   11.0225   -8.4995 C.2     1  UNL1        0.3068
     16 O           0.1056   11.9704   -8.3191 O.2     1  UNL1       -0.2509
     17 O          -1.6300   10.9730   -9.4333 O.3     1  UNL1       -0.4679
     18 C          -1.7260   12.1653  -10.2095 C.3     1  UNL1        0.0817
     19 C           2.2718    2.8712   -2.0109 C.2     1  UNL1       -0.0038
     20 C           0.9028    3.1936   -2.5460 C.3     1  UNL1       -0.0361
     21 C           2.3872    1.6643   -1.1387 C.2     1  UNL1        0.1881
     22 O           1.4533    0.8770   -1.0213 O.2     1  UNL1       -0.2872
     23 O           5.9027    2.0323    0.0718 O.2     1  UNL1       -0.4987
     24 C           7.1330    2.1614   -0.6360 C.3     1  UNL1        0.0784
     25 H           3.9701   -1.6159    1.1361 H       1  UNL1        0.0233
     26 H           3.3806   -1.2855   -0.5026 H       1  UNL1        0.0233
     27 H           5.0599   -0.9125   -0.0693 H       1  UNL1        0.0233
     28 H           2.6015    0.4345    1.1848 H       1  UNL1        0.0313
     29 H           4.2590    0.7989    1.5727 H       1  UNL1        0.0313
     30 H           5.1975    4.1626   -1.3205 H       1  UNL1        0.0389
     31 H           5.3553    2.9368   -2.5932 H       1  UNL1        0.0389
     32 H           4.2722    5.0171   -3.6096 H       1  UNL1        0.0310
     33 H           2.5672    4.7705   -3.8462 H       1  UNL1        0.0310
     34 H           2.1115    5.9688   -1.6316 H       1  UNL1        0.0268
     35 H           3.8394    6.2291   -1.4482 H       1  UNL1        0.0268
     36 H           2.7754    8.2354   -2.3343 H       1  UNL1        0.0265
     37 H           3.8915    7.5768   -3.5283 H       1  UNL1        0.0265
     38 H           1.9592    6.4995   -4.7313 H       1  UNL1        0.0265
     39 H           0.8542    7.1297   -3.5087 H       1  UNL1        0.0265
     40 H           1.5148    9.4528   -4.1749 H       1  UNL1        0.0265
     41 H           2.6507    8.7856   -5.3535 H       1  UNL1        0.0265
     42 H           0.7618    7.6348   -6.5348 H       1  UNL1        0.0265
     43 H          -0.3781    8.3021   -5.3631 H       1  UNL1        0.0265
     44 H           0.3359   10.6188   -6.0035 H       1  UNL1        0.0270
     45 H           1.4650    9.9462   -7.1750 H       1  UNL1        0.0270
     46 H          -0.4322    8.9026   -8.4241 H       1  UNL1        0.0377
     47 H          -1.5775    9.5866   -7.2350 H       1  UNL1        0.0377
     48 H          -1.9591   13.0213   -9.5677 H       1  UNL1        0.0661
     49 H          -0.7965   12.3378  -10.7619 H       1  UNL1        0.0661
     50 H          -2.5391   12.0383  -10.9285 H       1  UNL1        0.0661
     51 H           0.5524    4.1526   -2.1496 H       1  UNL1        0.0279
     52 H           0.9159    3.2512   -3.6398 H       1  UNL1        0.0279
     53 H           0.1501    2.4456   -2.2823 H       1  UNL1        0.0279
     54 H           7.1882    1.4500   -1.4665 H       1  UNL1        0.0660
     55 H           7.2818    3.1850   -0.9933 H       1  UNL1        0.0660
     56 H           7.9445    1.9368    0.0625 H       1  UNL1        0.0660
@<TRIPOS>BOND
     1     1    25    1
     2     1    26    1
     3     1    27    1
     4     2     1    1
     5     2    28    1
     6     2    29    1
     7     3     2    1
     8     4     3    2
     9     5     4    1
    10     5    30    1
    11     5    31    1
    12     6     5    1
    13     7     6    1
    14     7    32    1
    15     7    33    1
    16     8     7    1
    17     8    34    1
    18     8    35    1
    19     9     8    1
    20     9    36    1
    21     9    37    1
    22    10     9    1
    23    10    38    1
    24    10    39    1
    25    11    10    1
    26    11    40    1
    27    11    41    1
    28    12    11    1
    29    12    42    1
    30    12    43    1
    31    13    12    1
    32    13    44    1
    33    13    45    1
    34    14    13    1
    35    14    46    1
    36    14    47    1
    37    15    14    1
    38    16    15    2
    39    17    15    1
    40    18    17    1
    41    18    48    1
    42    18    49    1
    43    18    50    1
    44    19     6    2
    45    20    19    1
    46    20    51    1
    47    20    52    1
    48    20    53    1
    49    21    19    1
    50    21     3    1
    51    22    21    2
    52    23     4    1
    53    24    23    1
    54    24    54    1
    55    24    55    1
    56    24    56    1
