@<TRIPOS>MOLECULE
mol_654_akc_1475636021000005613
>635.sdf
 42 45 0 0 0
SMALL
GASTEIGER

@<TRIPOS>ATOM
      1 C          -0.0152   -1.4448   -0.3374 C.3     1  UNL1       -0.0471
      2 C           1.3383   -0.7565   -0.3252 C.3     1  UNL1        0.0205
      3 N           2.4292   -1.6871   -0.5664 N.ar    1  UNL1       -0.3465
      4 C           2.9499   -1.9396   -1.8069 C.ar    1  UNL1        0.0112
      5 C           3.9629   -2.8794   -1.6888 C.ar    1  UNL1        0.0050
      6 C           4.8031   -3.4674   -2.8149 C.3     1  UNL1        0.0888
      7 N           3.8719   -4.2007   -3.6843 N.ar    1  UNL1       -0.3253
      8 C           3.1277   -3.7435   -4.7431 C.ar    1  UNL1        0.0250
      9 C           2.4429   -4.8440   -5.2039 C.ar    1  UNL1        0.0454
     10 N           2.6767   -5.9324   -4.4073 N.ar    1  UNL1       -0.2440
     11 C           3.5147   -5.5119   -3.4861 C.ar    1  UNL1        0.0967
     12 C           5.6180   -2.3326   -3.4664 C.ar    1  UNL1       -0.0018
     13 C           5.9786   -1.1861   -2.7145 C.ar    1  UNL1       -0.0535
     14 C           6.5963   -0.0760   -3.2980 C.ar    1  UNL1       -0.0430
     15 C           6.9030   -0.0952   -4.6483 C.ar    1  UNL1        0.0424
     16 CL          7.5712    1.3004   -5.3959 Cl      1  UNL1       -0.0835
     17 C           6.7020   -1.2538   -5.3859 C.ar    1  UNL1       -0.0247
     18 C           6.1248   -2.3824   -4.7825 C.ar    1  UNL1        0.0478
     19 CL          6.1915   -3.8364   -5.7200 Cl      1  UNL1       -0.0831
     20 C           4.0348   -3.2159   -0.2919 C.ar    1  UNL1        0.0064
     21 C           3.0820   -2.4393    0.3818 C.ar    1  UNL1        0.0495
     22 C           2.8978   -2.5232    1.7743 C.ar    1  UNL1       -0.0366
     23 C           3.6905   -3.4206    2.4919 C.ar    1  UNL1       -0.0458
     24 C           4.6330   -4.2064    1.8411 C.ar    1  UNL1        0.0186
     25 BR          5.6669   -5.4401    2.8363 Br      1  UNL1       -0.0503
     26 C           4.8253   -4.1130    0.4569 C.ar    1  UNL1       -0.0382
     27 H          -0.8166   -0.7084   -0.2239 H       1  UNL1        0.0247
     28 H          -0.1775   -1.9842   -1.2769 H       1  UNL1        0.0247
     29 H          -0.0985   -2.1678    0.4806 H       1  UNL1        0.0247
     30 H           1.3798    0.0117   -1.1056 H       1  UNL1        0.0489
     31 H           1.5191   -0.2574    0.6325 H       1  UNL1        0.0489
     32 H           2.5559   -1.4408   -2.6844 H       1  UNL1        0.0813
     33 H           5.5172   -4.2024   -2.4262 H       1  UNL1        0.0630
     34 H           3.1778   -2.7259   -5.1023 H       1  UNL1        0.0825
     35 H           1.7888   -4.9066   -6.0634 H       1  UNL1        0.0845
     36 H           3.8862   -6.1028   -2.6595 H       1  UNL1        0.1029
     37 H           5.7640   -1.1233   -1.6477 H       1  UNL1        0.0622
     38 H           6.8173    0.7980   -2.6899 H       1  UNL1        0.0632
     39 H           7.0109   -1.2888   -6.4280 H       1  UNL1        0.0647
     40 H           2.1561   -1.9188    2.2861 H       1  UNL1        0.0639
     41 H           3.5532   -3.5030    3.5673 H       1  UNL1        0.0629
     42 H           5.5684   -4.7345   -0.0325 H       1  UNL1        0.0635
@<TRIPOS>BOND
     1     1    27    1
     2     1    28    1
     3     1    29    1
     4     2     1    1
     5     2    30    1
     6     2    31    1
     7     3     2    1
     8     4     3   ar
     9     4    32    1
    10     5     4   ar
    11     6     5    1
    12     6    33    1
    13     7     6    1
    14     8     7   ar
    15     8    34    1
    16     9     8   ar
    17     9    35    1
    18    10     9   ar
    19    11    10   ar
    20    11     7   ar
    21    11    36    1
    22    12     6    1
    23    13    12   ar
    24    13    37    1
    25    14    13   ar
    26    14    38    1
    27    15    14   ar
    28    16    15    1
    29    17    15   ar
    30    17    39    1
    31    18    17   ar
    32    18    12   ar
    33    19    18    1
    34    20     5   ar
    35    21    20   ar
    36    21     3   ar
    37    22    21   ar
    38    22    40    1
    39    23    22   ar
    40    23    41    1
    41    24    23   ar
    42    25    24    1
    43    26    24   ar
    44    26    20   ar
    45    26    42    1
