@<TRIPOS>MOLECULE
mol_655_akc_s0001_706x0200180_8
>636.sdf
 28 29 0 0 0
SMALL
GASTEIGER

@<TRIPOS>ATOM
      1 BR          1.0967   -0.8048   -2.6732 Br      1  UNL1       -0.0499
      2 C           0.9588   -2.6925   -2.4752 C.ar    1  UNL1        0.0238
      3 C           0.6019   -3.3097   -1.2594 C.ar    1  UNL1        0.0006
      4 C           0.4771   -4.7144   -1.2494 C.ar    1  UNL1       -0.0548
      5 C           0.7241   -5.4717   -2.3962 C.ar    1  UNL1       -0.0613
      6 C           1.0887   -4.8427   -3.5823 C.ar    1  UNL1       -0.0607
      7 C           1.2054   -3.4558   -3.6229 C.ar    1  UNL1       -0.0474
      8 C           0.2359   -2.4990   -0.0228 C.3     1  UNL1        0.1349
      9 N           0.6381   -3.1840    1.2216 N.pl3   1  UNL1       -0.3253
     10 C           0.4758   -2.5806    2.4759 C.ar    1  UNL1        0.0283
     11 C          -0.0944   -1.3160    2.6873 C.ar    1  UNL1       -0.0408
     12 C          -0.3389   -0.8283    3.9761 C.ar    1  UNL1       -0.0600
     13 C          -0.0200   -1.5996    5.0862 C.ar    1  UNL1       -0.0616
     14 C           0.5476   -2.8547    4.9047 C.ar    1  UNL1       -0.0600
     15 C           0.7892   -3.3382    3.6133 C.ar    1  UNL1       -0.0408
     16 C          -1.2565   -2.2109   -0.0361 C.1     1  UNL1        0.0898
     17 N          -2.4945   -1.9718   -0.0471 N.1     1  UNL1       -0.1942
     18 H           0.1576   -5.2323   -0.3446 H       1  UNL1        0.0622
     19 H           0.6119   -6.5533   -2.3684 H       1  UNL1        0.0618
     20 H           1.2662   -5.4297   -4.4801 H       1  UNL1        0.0618
     21 H           1.4727   -2.9755   -4.5618 H       1  UNL1        0.0629
     22 H           0.7834   -1.5514   -0.0395 H       1  UNL1        0.0708
     23 H           1.5313   -3.6637    1.1503 H       1  UNL1        0.1476
     24 H          -0.3708   -0.6622    1.8676 H       1  UNL1        0.0636
     25 H          -0.7963    0.1501    4.1046 H       1  UNL1        0.0618
     26 H          -0.2274   -1.2274    6.0861 H       1  UNL1        0.0618
     27 H           0.7837   -3.4719    5.7672 H       1  UNL1        0.0618
     28 H           1.1965   -4.3407    3.5025 H       1  UNL1        0.0636
@<TRIPOS>BOND
     1     2     1    1
     2     3     2   ar
     3     4     3   ar
     4     4    18    1
     5     5     4   ar
     6     5    19    1
     7     6     5   ar
     8     6    20    1
     9     7     6   ar
    10     7     2   ar
    11     7    21    1
    12     9     8    1
    13     9    23    1
    14    10     9    1
    15    11    10   ar
    16    11    24    1
    17    12    11   ar
    18    12    25    1
    19    13    12   ar
    20    13    26    1
    21    14    13   ar
    22    14    27    1
    23    15    14   ar
    24    15    10   ar
    25    15    28    1
    26    16     8    1
    27    17    16    3
    28     8    22    1
    29     8     3    1
