@<TRIPOS>MOLECULE
mol_656_akc_aac4682569_25742002
>637.sdf
 43 45 0 0 0
SMALL
GASTEIGER

@<TRIPOS>ATOM
      1 C          12.3878    4.3973   -6.2042 C.3     1  UNL1        0.0788
      2 O          11.2689    3.8362   -5.5252 O.3     1  UNL1       -0.4950
      3 C          10.9026    2.5630   -5.8766 C.ar    1  UNL1        0.1222
      4 C          11.6007    1.7344   -6.7596 C.ar    1  UNL1       -0.0178
      5 C          11.1693    0.4215   -7.0118 C.ar    1  UNL1       -0.0308
      6 C          10.0280   -0.0493   -6.3526 C.ar    1  UNL1        0.0903
      7 N           9.4678   -1.3039   -6.3687 N.ar    1  UNL1       -0.2200
      8 C           8.4454   -1.2302   -5.5458 C.ar    1  UNL1        0.1981
      9 N           8.2775    0.0421   -5.0620 N.ar    1  UNL1       -0.3309
     10 C           9.3291    0.8021   -5.5061 C.ar    1  UNL1        0.0704
     11 C           9.7335    2.1108   -5.2427 C.ar    1  UNL1        0.0055
     12 S           7.4277   -2.5642   -5.1100 S.O     1  UNL1        0.0954
     13 O           6.3910   -1.9649   -4.1913 O.2     1  UNL1       -0.2488
     14 C           8.6172   -3.4575   -4.0602 C.3     1  UNL1        0.0734
     15 C           9.7039   -4.1945   -4.8005 C.ar    1  UNL1        0.0603
     16 N           9.2880   -5.3485   -5.3872 N.ar    1  UNL1       -0.2582
     17 C          10.2094   -6.1292   -5.9909 C.ar    1  UNL1        0.0343
     18 C          11.5623   -5.8379   -6.0667 C.ar    1  UNL1        0.0095
     19 C          12.4886   -6.8121   -6.7226 C.3     1  UNL1       -0.0348
     20 C          11.9703   -4.6255   -5.5040 C.ar    1  UNL1        0.1290
     21 O          13.2898   -4.2384   -5.4645 O.3     1  UNL1       -0.4945
     22 C          13.9086   -4.1078   -6.7423 C.3     1  UNL1        0.0788
     23 C          11.0511   -3.7981   -4.8205 C.ar    1  UNL1        0.0136
     24 C          11.5605   -2.5313   -4.1875 C.3     1  UNL1       -0.0345
     25 H          13.2906    3.7955   -6.0635 H       1  UNL1        0.0660
     26 H          12.1625    4.5347   -7.2666 H       1  UNL1        0.0660
     27 H          12.5814    5.3834   -5.7697 H       1  UNL1        0.0660
     28 H          12.5026    2.0652   -7.2635 H       1  UNL1        0.0655
     29 H          11.7222   -0.2324   -7.6757 H       1  UNL1        0.0641
     30 H           7.5391    0.3198   -4.4295 H       1  UNL1        0.1679
     31 H           9.1842    2.7522   -4.5631 H       1  UNL1        0.0675
     32 H           8.9883   -2.7825   -3.2869 H       1  UNL1        0.0470
     33 H           8.0219   -4.2055   -3.5209 H       1  UNL1        0.0470
     34 H           9.8082   -7.0494   -6.4088 H       1  UNL1        0.0833
     35 H          12.7359   -6.4816   -7.7355 H       1  UNL1        0.0279
     36 H          13.4067   -6.9311   -6.1383 H       1  UNL1        0.0279
     37 H          12.0329   -7.8061   -6.7981 H       1  UNL1        0.0279
     38 H          14.5696   -4.9641   -6.9108 H       1  UNL1        0.0660
     39 H          13.1954   -4.0092   -7.5677 H       1  UNL1        0.0660
     40 H          14.5349   -3.2105   -6.7259 H       1  UNL1        0.0660
     41 H          12.4646   -2.7282   -3.6030 H       1  UNL1        0.0279
     42 H          11.8062   -1.8016   -4.9638 H       1  UNL1        0.0279
     43 H          10.8530   -2.0672   -3.4997 H       1  UNL1        0.0279
@<TRIPOS>BOND
     1     1    25    1
     2     1    26    1
     3     1    27    1
     4     2     1    1
     5     3     2    1
     6     4     3   ar
     7     4    28    1
     8     5     4   ar
     9     5    29    1
    10     6     5   ar
    11     7     6   ar
    12     8     7   ar
    13     9     8   ar
    14     9    30    1
    15    10     9   ar
    16    10     6   ar
    17    11    10   ar
    18    11     3   ar
    19    11    31    1
    20    14    12    1
    21    14    32    1
    22    14    33    1
    23    15    14    1
    24    16    15   ar
    25    17    16   ar
    26    17    34    1
    27    18    17   ar
    28    19    18    1
    29    19    35    1
    30    19    36    1
    31    19    37    1
    32    20    18   ar
    33    21    20    1
    34    22    21    1
    35    22    38    1
    36    22    39    1
    37    22    40    1
    38    23    20   ar
    39    23    15   ar
    40    24    23    1
    41    24    41    1
    42    24    42    1
    43    24    43    1
    44    12    13    2
    45    12     8    1
