@<TRIPOS>MOLECULE
mol_657_akc_aac463797_8072002
>638.sdf
 43 45 0 0 0
SMALL
GASTEIGER

@<TRIPOS>ATOM
      1 N           1.4330    0.9593   -0.2521 N.pl3   1  UNL1       -0.2525
      2 C           2.4176    0.0782   -0.0241 C.2     1  UNL1        0.2309
      3 N           2.7099   -0.0015    1.1754 N.2     1  UNL1       -0.4100
      4 C           3.1587   -0.6573   -1.0721 C.ar    1  UNL1        0.0573
      5 C           3.3212   -0.0800   -2.3328 C.ar    1  UNL1       -0.0466
      6 C           4.0087   -0.7716   -3.3351 C.ar    1  UNL1       -0.0527
      7 C           4.5382   -2.0484   -3.0977 C.ar    1  UNL1       -0.0112
      8 C           4.3881   -2.6020   -1.8151 C.ar    1  UNL1       -0.0527
      9 C           3.6996   -1.9182   -0.8080 C.ar    1  UNL1       -0.0466
     10 C           5.2065   -2.7806   -4.1846 C.ar    1  UNL1        0.0199
     11 C           5.9560   -2.2931   -5.2383 C.ar    1  UNL1       -0.0463
     12 C           6.4028   -3.3233   -6.1193 C.ar    1  UNL1       -0.0463
     13 C           5.9943   -4.5833   -5.7221 C.ar    1  UNL1        0.0199
     14 S           5.0434   -4.4824   -4.3010 S.2     1  UNL1       -0.0883
     15 C           6.2452   -5.8861   -6.3599 C.ar    1  UNL1       -0.0112
     16 C           6.3555   -7.0688   -5.6142 C.ar    1  UNL1       -0.0527
     17 C           6.6135   -8.2979   -6.2331 C.ar    1  UNL1       -0.0466
     18 C           6.7788   -8.3714   -7.6187 C.ar    1  UNL1        0.0573
     19 C           6.6609   -7.1982   -8.3761 C.ar    1  UNL1       -0.0466
     20 C           6.3964   -5.9727   -7.7501 C.ar    1  UNL1       -0.0527
     21 C           7.0924   -9.6779   -8.2695 C.2     1  UNL1        0.2309
     22 N           7.2519  -10.8430   -7.6282 N.pl3   1  UNL1       -0.2525
     23 N           7.2746   -9.7905   -9.4874 N.2     1  UNL1       -0.4100
     24 H           0.6667    1.1427    0.3951 H       1  UNL1        0.2882
     25 H           1.0546    0.9889   -1.2038 H       1  UNL1        0.2882
     26 H           3.7130   -0.0655    1.2821 H       1  UNL1        0.2551
     27 H           2.9332    0.9108   -2.5572 H       1  UNL1        0.0626
     28 H           4.1089   -0.3069   -4.3149 H       1  UNL1        0.0624
     29 H           4.7991   -3.5843   -1.5859 H       1  UNL1        0.0624
     30 H           3.5791   -2.4117    0.1510 H       1  UNL1        0.0626
     31 H           6.1825   -1.2430   -5.3825 H       1  UNL1        0.0629
     32 H           7.0063   -3.1341   -6.9992 H       1  UNL1        0.0629
     33 H           6.2550   -7.0537   -4.5298 H       1  UNL1        0.0624
     34 H           6.6862   -9.1711   -5.5929 H       1  UNL1        0.0626
     35 H           6.7701   -7.1858   -9.4552 H       1  UNL1        0.0626
     36 H           6.3014   -5.0798   -8.3670 H       1  UNL1        0.0624
     37 H           7.3528  -11.7781   -8.0129 H       1  UNL1        0.2882
     38 H           7.1060  -10.8988   -6.6196 H       1  UNL1        0.2882
     39 H           6.4876   -9.4068   -9.9900 H       1  UNL1        0.2551
     40 H           7.4447  -10.7424   -9.7478 H       1  UNL1        0.2551
     41 H           2.3441    0.7979    1.6605 H       1  UNL1        0.2551
     42 H           2.3231   -0.8496    1.5592 H       1  UNL1        0.2551
     43 H           8.0715   -9.2229   -9.7424 H       1  UNL1        0.2551
@<TRIPOS>BOND
     1     1    24    1
     2     1    25    1
     3     2     1    1
     4     3     2    2
     5     3    26    1
     6     3    41    1
     7     4     2    1
     8     5     4   ar
     9     5    27    1
    10     6     5   ar
    11     6    28    1
    12     7     6   ar
    13     8     7   ar
    14     8    29    1
    15     9     8   ar
    16     9     4   ar
    17     9    30    1
    18    10     7    1
    19    11    10   ar
    20    11    31    1
    21    12    11   ar
    22    12    32    1
    23    13    12   ar
    24    14    13   ar
    25    14    10   ar
    26    15    13    1
    27    16    15   ar
    28    16    33    1
    29    17    16   ar
    30    17    34    1
    31    18    17   ar
    32    19    18   ar
    33    19    35    1
    34    20    19   ar
    35    20    15   ar
    36    20    36    1
    37    21    18    1
    38    22    21    1
    39    22    37    1
    40    22    38    1
    41    23    21    2
    42    23    39    1
    43    23    40    1
    44     3    42    1
    45    23    43    1
