@<TRIPOS>MOLECULE
mol_658_akc_parasite2002094367
>639.sdf
 13 13 0 0 0
SMALL
GASTEIGER

@<TRIPOS>ATOM
      1 N           3.2060    0.7182    1.0302 N.am    1  UNL1       -0.3228
      2 C           2.5947   -0.0162    0.0523 C.2     1  UNL1        0.2768
      3 O           1.5770    0.4034   -0.4900 O.2     1  UNL1       -0.2671
      4 C           3.2422   -1.2681   -0.2656 C.ar    1  UNL1        0.1888
      5 C           2.9421   -2.2313   -1.2103 C.ar    1  UNL1       -0.0113
      6 C           3.9165   -3.2495   -1.0803 C.ar    1  UNL1       -0.0231
      7 C           4.7509   -2.8521   -0.0629 C.ar    1  UNL1        0.0928
      8 O           4.3566   -1.6527    0.4376 O.2     1  UNL1       -0.4583
      9 H           2.8133    1.6128    1.2816 H       1  UNL1        0.1453
     10 H           4.0595    0.3910    1.4621 H       1  UNL1        0.1453
     11 H           2.1152   -2.1882   -1.9066 H       1  UNL1        0.0657
     12 H           3.9999   -4.1606   -1.6562 H       1  UNL1        0.0649
     13 H           5.6260   -3.2872    0.3998 H       1  UNL1        0.1029
@<TRIPOS>BOND
     1     1     9    1
     2     1    10    1
     3     2     1   am
     4     3     2    2
     5     4     2    1
     6     5     4   ar
     7     5    11    1
     8     6     5   ar
     9     6    12    1
    10     7     6   ar
    11     7    13    1
    12     8     7   ar
    13     8     4   ar
