@<TRIPOS>MOLECULE
mol_659_akc_aac4682588_25942002
>640.sdf
 38 40 0 0 0
SMALL
GASTEIGER

@<TRIPOS>ATOM
      1 O           4.8322    2.2687   -0.9634 O.3     1  UNL1       -0.3935
      2 C           5.7774    1.2654   -0.5793 C.3     1  UNL1        0.0597
      3 C           5.0575   -0.0535   -0.2757 C.3     1  UNL1        0.0341
      4 N           4.3860   -0.5487   -1.4746 N.pl3   1  UNL1       -0.3213
      5 C           5.0848   -1.3606   -2.3033 C.ar    1  UNL1        0.1593
      6 N           6.1192   -2.0785   -1.9399 N.ar    1  UNL1       -0.2249
      7 C           6.6185   -2.7848   -3.0142 C.ar    1  UNL1        0.0804
      8 C           7.7317   -3.6418   -2.9823 C.ar    1  UNL1       -0.0334
      9 C           8.1324   -4.2971   -4.1501 C.ar    1  UNL1       -0.0385
     10 C           7.4218   -4.1534   -5.3468 C.ar    1  UNL1        0.0325
     11 N           7.8494   -4.8117   -6.5352 N.pl3   1  UNL1       -0.3138
     12 C           8.4442   -6.1105   -6.5866 C.ar    1  UNL1        0.0454
     13 C           9.3708   -6.4463   -7.5943 C.ar    1  UNL1        0.0799
     14 C           9.8871   -7.7512   -7.6634 C.ar    1  UNL1       -0.0460
     15 C           9.4874   -8.7252   -6.7466 C.ar    1  UNL1       -0.0609
     16 C           8.5471   -8.4096   -5.7737 C.ar    1  UNL1       -0.0600
     17 C           8.0145   -7.1216   -5.7072 C.ar    1  UNL1       -0.0397
     18 C           9.8688   -5.4794   -8.6127 C.2     1  UNL1        0.3386
     19 O           9.7903   -4.1823   -8.2475 O.3     1  UNL1       -0.4771
     20 O          10.3500   -5.8341   -9.6778 O.2     1  UNL1       -0.2451
     21 C           6.3426   -3.2555   -5.4024 C.ar    1  UNL1       -0.0246
     22 C           5.9471   -2.5990   -4.2211 C.ar    1  UNL1        0.0425
     23 S           4.6527   -1.4931   -3.9634 S.2     1  UNL1       -0.0524
     24 H           4.2598    2.4365   -0.1952 H       1  UNL1        0.2095
     25 H           6.4917    1.1481   -1.4002 H       1  UNL1        0.0573
     26 H           6.3196    1.6234    0.3013 H       1  UNL1        0.0573
     27 H           5.7575   -0.7848    0.1437 H       1  UNL1        0.0484
     28 H           4.2860    0.1246    0.4824 H       1  UNL1        0.0484
     29 H           3.8310    0.1683   -1.9371 H       1  UNL1        0.1480
     30 H           8.2726   -3.7844   -2.0522 H       1  UNL1        0.0640
     31 H           9.0123   -4.9354   -4.1010 H       1  UNL1        0.0637
     32 H           7.1027   -4.7791   -7.2372 H       1  UNL1        0.1522
     33 H          10.6116   -8.0125   -8.4336 H       1  UNL1        0.0626
     34 H           9.9026   -9.7281   -6.8018 H       1  UNL1        0.0618
     35 H           8.2187   -9.1688   -5.0653 H       1  UNL1        0.0618
     36 H           7.2562   -6.9150   -4.9548 H       1  UNL1        0.0636
     37 H           5.8014   -3.0767   -6.3265 H       1  UNL1        0.0648
     38 H           9.3645   -4.0573   -7.3702 H       1  UNL1        0.2954
@<TRIPOS>BOND
     1     1    24    1
     2     2     1    1
     3     2    25    1
     4     2    26    1
     5     3     2    1
     6     3    27    1
     7     3    28    1
     8     4     3    1
     9     4    29    1
    10     5     4    1
    11     6     5   ar
    12     7     6   ar
    13     8     7   ar
    14     8    30    1
    15     9     8   ar
    16     9    31    1
    17    10     9   ar
    18    11    10    1
    19    11    32    1
    20    12    11    1
    21    13    12   ar
    22    14    13   ar
    23    14    33    1
    24    15    14   ar
    25    15    34    1
    26    16    15   ar
    27    16    35    1
    28    17    16   ar
    29    17    12   ar
    30    17    36    1
    31    18    13    1
    32    19    18    1
    33    20    18    2
    34    21    10   ar
    35    21    37    1
    36    22    21   ar
    37    22     7   ar
    38    23    22   ar
    39    23     5   ar
    40    19    38    1
