@<TRIPOS>MOLECULE
mol_65_akc_acsjmedchem1c00813
>64.sdf
 37 39 0 0 0
SMALL
GASTEIGER

@<TRIPOS>ATOM
      1 C           1.0342    0.0927    0.3005 C.3     1  UNL1        0.0004
      2 N           2.3905    0.0105   -0.2337 N.pl3   1  UNL1       -0.3360
      3 C           3.2003   -1.0996    0.2716 C.3     1  UNL1        0.0004
      4 C           3.0842    1.1888   -0.5361 C.ar    1  UNL1        0.0313
      5 C           4.2434    1.1430   -1.3217 C.ar    1  UNL1       -0.0400
      6 C           4.9177    2.3066   -1.6977 C.ar    1  UNL1       -0.0508
      7 C           4.4387    3.5588   -1.2948 C.ar    1  UNL1        0.0012
      8 C           5.0630    4.7513   -1.6855 C.ar    1  UNL1       -0.0416
      9 C           4.5483    6.0022   -1.3073 C.ar    1  UNL1        0.0223
     10 C           3.4035    5.9660   -0.4950 C.ar    1  UNL1        0.1246
     11 N           2.7741    7.1218   -0.0306 N.pl3   1  UNL1       -0.3426
     12 N           2.8017    4.8286   -0.0874 N.ar    1  UNL1       -0.2318
     13 C           3.2935    3.6451   -0.4936 C.ar    1  UNL1        0.0749
     14 C           2.6471    2.4635   -0.1322 C.ar    1  UNL1       -0.0146
     15 C           5.2007    7.2480   -1.7846 C.ar    1  UNL1       -0.0118
     16 C           5.6507    7.3626   -3.1150 C.ar    1  UNL1       -0.0355
     17 C           6.2776    8.5248   -3.5718 C.ar    1  UNL1        0.0429
     18 CL          6.8336    8.6075   -5.1984 Cl      1  UNL1       -0.0835
     19 C           6.4580    9.6122   -2.7281 C.ar    1  UNL1       -0.0250
     20 C           6.0145    9.5214   -1.4128 C.ar    1  UNL1        0.0429
     21 CL          6.2141   10.8658   -0.3560 Cl      1  UNL1       -0.0835
     22 C           5.4071    8.3530   -0.9403 C.ar    1  UNL1       -0.0355
     23 H           0.5273   -0.8715    0.1767 H       1  UNL1        0.0428
     24 H           1.0407    0.3409    1.3666 H       1  UNL1        0.0428
     25 H           0.4280    0.8260   -0.2434 H       1  UNL1        0.0428
     26 H           3.8265   -1.5277   -0.5176 H       1  UNL1        0.0428
     27 H           3.8366   -0.7794    1.1046 H       1  UNL1        0.0428
     28 H           2.5639   -1.9135    0.6379 H       1  UNL1        0.0428
     29 H           4.6160    0.1931   -1.6960 H       1  UNL1        0.0636
     30 H           5.8002    2.2243   -2.3274 H       1  UNL1        0.0625
     31 H           5.9615    4.6974   -2.2970 H       1  UNL1        0.0631
     32 H           1.9570    6.8142    0.4897 H       1  UNL1        0.1437
     33 H           2.5178    7.7300   -0.8024 H       1  UNL1        0.1437
     34 H           1.7673    2.5677    0.4962 H       1  UNL1        0.0657
     35 H           5.5079    6.5389   -3.8130 H       1  UNL1        0.0638
     36 H           6.9369   10.5178   -3.0865 H       1  UNL1        0.0647
     37 H           5.0907    8.3108    0.1014 H       1  UNL1        0.0638
@<TRIPOS>BOND
     1     1    23    1
     2     1    24    1
     3     1    25    1
     4     2     1    1
     5     3     2    1
     6     3    26    1
     7     3    27    1
     8     3    28    1
     9     4     2    1
    10     5     4   ar
    11     5    29    1
    12     6     5   ar
    13     6    30    1
    14     7     6   ar
    15     8     7   ar
    16     8    31    1
    17     9     8   ar
    18    10     9   ar
    19    11    10    1
    20    11    32    1
    21    11    33    1
    22    12    10   ar
    23    13    12   ar
    24    13     7   ar
    25    14    13   ar
    26    14     4   ar
    27    14    34    1
    28    15     9    1
    29    16    15   ar
    30    16    35    1
    31    17    16   ar
    32    18    17    1
    33    19    17   ar
    34    19    36    1
    35    20    19   ar
    36    21    20    1
    37    22    20   ar
    38    22    15   ar
    39    22    37    1
