@<TRIPOS>MOLECULE
mol_660_akc_aac4551349_13542001
>641.sdf
 52 56 0 0 0
SMALL
GASTEIGER

@<TRIPOS>ATOM
      1 C           3.7395    2.1976    3.0633 C.3     1  UNL1       -0.0648
      2 C           3.6487    2.8270    1.6877 C.3     1  UNL1       -0.0479
      3 C           2.2205    3.1826    1.1984 C.3     1  UNL1        0.0037
      4 C           2.3874    3.9739   -0.1275 C.3     1  UNL1       -0.0374
      5 C           1.3777    3.4848   -1.1683 C.3     1  UNL1        0.0012
      6 C          -0.0133    3.6307   -0.5368 C.3     1  UNL1       -0.0187
      7 C          -0.2225    2.5096    0.5277 C.3     1  UNL1        0.1503
      8 C           1.2129    1.9921    0.9573 C.3     1  UNL1        0.0037
      9 N           1.8354    1.2207   -0.2395 N.4     1  UNL1        0.2391
     10 C           1.6558    2.0114   -1.5316 C.3     1  UNL1       -0.0286
     11 C           1.5475   -0.2639   -0.3503 C.3     1  UNL1       -0.0274
     12 C           0.1888   -0.7298    0.1580 C.3     1  UNL1        0.0150
     13 C          -0.9674    0.0797   -0.3069 C.ar    1  UNL1       -0.0128
     14 C          -1.1238    1.4435   -0.1220 C.ar    1  UNL1        0.0429
     15 N          -2.3840    1.7715   -0.5879 N.ar    1  UNL1       -0.3566
     16 C          -3.0409    0.6599   -1.0427 C.ar    1  UNL1        0.0470
     17 C          -4.3484    0.5344   -1.5248 C.ar    1  UNL1       -0.0378
     18 C          -4.7714   -0.7360   -1.9181 C.ar    1  UNL1       -0.0598
     19 C          -3.9113   -1.8282   -1.8453 C.ar    1  UNL1       -0.0611
     20 C          -2.6089   -1.6833   -1.3499 C.ar    1  UNL1       -0.0523
     21 C          -2.1639   -0.4140   -0.9239 C.ar    1  UNL1        0.0033
     22 C          -0.9669    3.0520    1.7709 C.2     1  UNL1        0.3244
     23 O          -0.9206    4.2119    2.1398 O.2     1  UNL1       -0.2496
     24 O          -1.7373    2.0835    2.3429 O.3     1  UNL1       -0.4671
     25 C          -2.9825    2.5168    2.9057 C.3     1  UNL1        0.0817
     26 H           3.3302    2.8639    3.8276 H       1  UNL1        0.0230
     27 H           4.7938    2.0205    3.3095 H       1  UNL1        0.0230
     28 H           3.2221    1.2369    3.1063 H       1  UNL1        0.0230
     29 H           4.2411    3.7527    1.7131 H       1  UNL1        0.0267
     30 H           4.1661    2.1775    0.9729 H       1  UNL1        0.0267
     31 H           1.7821    3.8495    1.9516 H       1  UNL1        0.0356
     32 H           3.3983    3.8732   -0.5399 H       1  UNL1        0.0274
     33 H           2.2446    5.0443    0.0730 H       1  UNL1        0.0274
     34 H           1.4400    4.1071   -2.0673 H       1  UNL1        0.0353
     35 H          -0.1075    4.6321   -0.0968 H       1  UNL1        0.0286
     36 H          -0.7641    3.6009   -1.3352 H       1  UNL1        0.0286
     37 H           1.1877    1.3170    1.8186 H       1  UNL1        0.0869
     38 H           2.8482    1.2272   -0.0866 H       1  UNL1        0.2037
     39 H           2.5888    1.9031   -2.0894 H       1  UNL1        0.0817
     40 H           0.8366    1.5705   -2.1069 H       1  UNL1        0.0817
     41 H           2.3283   -0.7603    0.2392 H       1  UNL1        0.0818
     42 H           1.7043   -0.5431   -1.3983 H       1  UNL1        0.0818
     43 H           0.1856   -0.7366    1.2558 H       1  UNL1        0.0366
     44 H           0.0611   -1.7781   -0.1386 H       1  UNL1        0.0366
     45 H          -2.8098    2.6899   -0.5549 H       1  UNL1        0.1656
     46 H          -5.0236    1.3829   -1.5770 H       1  UNL1        0.0638
     47 H          -5.7879   -0.8731   -2.2815 H       1  UNL1        0.0618
     48 H          -4.2622   -2.8080   -2.1625 H       1  UNL1        0.0618
     49 H          -1.9657   -2.5558   -1.2850 H       1  UNL1        0.0624
     50 H          -2.9629    3.5508    3.2597 H       1  UNL1        0.0661
     51 H          -3.7564    2.4119    2.1353 H       1  UNL1        0.0661
     52 H          -3.2410    1.8530    3.7338 H       1  UNL1        0.0661
@<TRIPOS>UNITY_ATOM_ATTR
9 1
charge 1
@<TRIPOS>BOND
     1     1    26    1
     2     1    27    1
     3     1    28    1
     4     2     1    1
     5     2    29    1
     6     2    30    1
     7     4     3    1
     8     4    32    1
     9     4    33    1
    10     5     4    1
    11     5    34    1
    12     6     5    1
    13     6    35    1
    14     6    36    1
    15     7     6    1
    16     7    22    1
    17     8     7    1
    18     8     3    1
    19     8    37    1
    20     9     8    1
    21     9    10    1
    22     9    38    1
    23    10     5    1
    24    10    39    1
    25    10    40    1
    26    11     9    1
    27    11    41    1
    28    11    42    1
    29    12    11    1
    30    12    43    1
    31    12    44    1
    32    13    12    1
    33    14    13   ar
    34    14     7    1
    35    15    14   ar
    36    15    45    1
    37    16    15   ar
    38    17    16   ar
    39    17    46    1
    40    18    17   ar
    41    18    47    1
    42    19    18   ar
    43    19    48    1
    44    20    19   ar
    45    20    49    1
    46    21    20   ar
    47    21    13   ar
    48    21    16   ar
    49    23    22    2
    50    24    22    1
    51    25    24    1
    52    25    50    1
    53    25    51    1
    54    25    52    1
    55     3    31    1
    56     3     2    1
