@<TRIPOS>MOLECULE
mol_661_akc_s0001_706x0000161_3
>642.sdf
 36 39 0 0 0
SMALL
GASTEIGER

@<TRIPOS>ATOM
      1 C           0.9814    2.5528    0.1625 C.ar    1  UNL1       -0.0576
      2 C          -0.3359    2.1030    0.0794 C.ar    1  UNL1       -0.0500
      3 C          -0.6063    0.7273    0.0516 C.ar    1  UNL1        0.0360
      4 C           0.4345   -0.1999    0.1080 C.ar    1  UNL1        0.0744
      5 C           1.7538    0.2642    0.1951 C.ar    1  UNL1        0.1283
      6 C           2.0261    1.6327    0.2212 C.ar    1  UNL1       -0.0194
      7 O           2.8406   -0.5655    0.2527 O.3     1  UNL1       -0.5060
      8 C           0.1440   -1.6471    0.0451 C.2     1  UNL1        0.1981
      9 O           1.0713   -2.4519    0.0013 O.2     1  UNL1       -0.2865
     10 C          -1.2813   -2.0885   -0.0225 C.2     1  UNL1        0.0369
     11 C          -2.2608   -1.1754   -0.0725 C.2     1  UNL1       -0.0028
     12 C          -2.0025    0.2743   -0.0548 C.2     1  UNL1        0.1876
     13 O          -2.9358    1.0618   -0.1338 O.2     1  UNL1       -0.2872
     14 C          -1.5716   -3.5179   -0.0465 C.2     1  UNL1        0.0369
     15 C          -2.1903   -4.0894   -1.0888 C.2     1  UNL1       -0.0028
     16 C          -2.5011   -5.5265   -1.1430 C.2     1  UNL1        0.1876
     17 O          -3.0935   -5.9884   -2.1088 O.2     1  UNL1       -0.2872
     18 C          -2.0828   -6.3683   -0.0103 C.ar    1  UNL1        0.0360
     19 C          -1.4338   -5.8027    1.0875 C.ar    1  UNL1        0.0744
     20 C          -1.1743   -4.3490    1.1290 C.2     1  UNL1        0.1981
     21 O          -0.6851   -3.8473    2.1382 O.2     1  UNL1       -0.2865
     22 C          -1.0632   -6.6288    2.1574 C.ar    1  UNL1        0.1283
     23 C          -1.3408   -7.9955    2.1306 C.ar    1  UNL1       -0.0194
     24 C          -1.9893   -8.5543    1.0291 C.ar    1  UNL1       -0.0576
     25 C          -2.3600   -7.7428   -0.0421 C.ar    1  UNL1       -0.0500
     26 O          -0.4257   -6.1669    3.2781 O.3     1  UNL1       -0.5060
     27 H           1.1945    3.6193    0.1799 H       1  UNL1        0.0619
     28 H          -1.1485    2.8264    0.0317 H       1  UNL1        0.0625
     29 H           3.0553    1.9774    0.2834 H       1  UNL1        0.0654
     30 H           2.5259   -1.4976    0.2169 H       1  UNL1        0.2922
     31 H          -3.3105   -1.4481   -0.1263 H       1  UNL1        0.0663
     32 H          -2.5011   -3.5253   -1.9631 H       1  UNL1        0.0663
     33 H          -1.0517   -8.6236    2.9699 H       1  UNL1        0.0654
     34 H          -2.2074   -9.6179    1.0098 H       1  UNL1        0.0619
     35 H          -2.8685   -8.1835   -0.8988 H       1  UNL1        0.0625
     36 H          -0.2933   -5.1956    3.1860 H       1  UNL1        0.2922
@<TRIPOS>BOND
     1     1    27    1
     2     2     1   ar
     3     2    28    1
     4     3     2   ar
     5     4     3   ar
     6     5     4   ar
     7     6     5   ar
     8     6     1   ar
     9     6    29    1
    10     7     5    1
    11     7    30    1
    12     8     4    1
    13     9     8    2
    14    10     8    1
    15    11    10    2
    16    11    31    1
    17    12    11    1
    18    12     3    1
    19    13    12    2
    20    14    10    1
    21    15    14    2
    22    15    32    1
    23    16    15    1
    24    17    16    2
    25    18    16    1
    26    19    18   ar
    27    20    19    1
    28    20    14    1
    29    21    20    2
    30    22    19   ar
    31    23    22   ar
    32    23    33    1
    33    24    23   ar
    34    24    34    1
    35    25    24   ar
    36    25    18   ar
    37    25    35    1
    38    26    22    1
    39    26    36    1
