@<TRIPOS>MOLECULE
mol_663_akc_s0960_894x0000154_2
>644.sdf
 98 100 0 0 0
SMALL
GASTEIGER

@<TRIPOS>ATOM
      1 C           1.0603   -4.6764    0.5420 C.3     1  UNL1       -0.0433
      2 N           2.5654   -4.6480    0.5730 N.4     1  UNL1        0.2309
      3 C           3.1461   -4.9033   -0.7918 C.3     1  UNL1       -0.0433
      4 C           3.0713   -3.3846    1.2116 C.3     1  UNL1       -0.0310
      5 C           4.5929   -3.3671    1.2655 C.3     1  UNL1        0.0030
      6 C           5.0301   -2.1392    2.0295 C.3     1  UNL1        0.0167
      7 N           6.4565   -1.9926    2.1584 N.am    1  UNL1       -0.3111
      8 C           7.1663   -2.8462    2.9794 C.2     1  UNL1        0.2476
      9 O           6.6175   -3.7354    3.6029 O.2     1  UNL1       -0.2701
     10 C           8.6435   -2.6863    3.0158 C.ar    1  UNL1        0.0794
     11 C           9.3641   -3.8868    3.1161 C.ar    1  UNL1       -0.0424
     12 C          10.7616   -3.9013    3.1338 C.ar    1  UNL1       -0.0408
     13 C          11.4044   -2.6572    3.0274 C.ar    1  UNL1       -0.0505
     14 C          10.7061   -1.4275    2.9637 C.ar    1  UNL1        0.0060
     15 C           9.3105   -1.4528    2.9531 C.ar    1  UNL1        0.1446
     16 O           8.5484   -0.3138    2.8950 O.3     1  UNL1       -0.4539
     17 C           9.1458    0.9188    2.9268 C.ar    1  UNL1        0.1446
     18 C           8.3072    2.0505    2.9361 C.ar    1  UNL1        0.0794
     19 C           8.8525    3.3449    2.9376 C.ar    1  UNL1       -0.0424
     20 C          10.2339    3.5574    2.9308 C.ar    1  UNL1       -0.0408
     21 C          11.0481    2.4109    2.9392 C.ar    1  UNL1       -0.0505
     22 C          10.5306    1.0941    2.9290 C.ar    1  UNL1        0.0060
     23 C          11.4744   -0.1075    2.9125 C.3     1  UNL1        0.0221
     24 C          12.3120   -0.0689    1.6124 C.3     1  UNL1       -0.0515
     25 C          12.4097   -0.0254    4.1456 C.3     1  UNL1       -0.0515
     26 C          10.8367    4.9737    2.9713 C.3     1  UNL1       -0.0126
     27 C          11.0391    5.3672    4.4471 C.3     1  UNL1       -0.0560
     28 C          12.1967    5.0523    2.2407 C.3     1  UNL1       -0.0560
     29 C           9.9244    6.0296    2.3044 C.3     1  UNL1       -0.0560
     30 C           6.8252    1.9684    2.9348 C.2     1  UNL1        0.2476
     31 O           6.1429    2.8441    2.4008 O.2     1  UNL1       -0.2701
     32 N           6.2435    0.9195    3.6037 N.am    1  UNL1       -0.3111
     33 C           4.8359    0.6457    3.4849 C.3     1  UNL1        0.0167
     34 C           3.9621    1.2847    4.5333 C.3     1  UNL1        0.0030
     35 C           4.0843    2.7896    4.5120 C.3     1  UNL1       -0.0310
     36 N           3.1714    3.4077    5.5392 N.4     1  UNL1        0.2309
     37 C           3.4765    2.9734    6.9490 C.3     1  UNL1       -0.0433
     38 C           3.2300    4.9056    5.4027 C.3     1  UNL1       -0.0433
     39 C          11.5547   -5.2171    3.2119 C.3     1  UNL1       -0.0126
     40 C          11.8140   -5.7080    1.7752 C.3     1  UNL1       -0.0560
     41 C          12.9092   -5.0375    3.9351 C.3     1  UNL1       -0.0560
     42 C          10.7982   -6.3262    3.9801 C.3     1  UNL1       -0.0560
     43 H           0.7469   -5.6289    0.1098 H       1  UNL1        0.0777
     44 H           0.6977   -4.5939    1.5704 H       1  UNL1        0.0777
     45 H           0.7109   -3.8345   -0.0626 H       1  UNL1        0.0777
     46 H           2.8624   -5.4319    1.1730 H       1  UNL1        0.2028
     47 H           2.9678   -4.0210   -1.4121 H       1  UNL1        0.0777
     48 H           4.2152   -5.0980   -0.6778 H       1  UNL1        0.0777
     49 H           2.6673   -5.7906   -1.2083 H       1  UNL1        0.0777
     50 H           2.6803   -2.5350    0.6384 H       1  UNL1        0.0815
     51 H           2.6447   -3.3501    2.2225 H       1  UNL1        0.0815
     52 H           4.9580   -4.2777    1.7520 H       1  UNL1        0.0332
     53 H           5.0336   -3.3252    0.2650 H       1  UNL1        0.0332
     54 H           4.6569   -1.2400    1.5276 H       1  UNL1        0.0464
     55 H           4.5995   -2.2131    3.0334 H       1  UNL1        0.0464
     56 H           6.9297   -1.1848    1.7711 H       1  UNL1        0.1490
     57 H           8.8058   -4.8184    3.1599 H       1  UNL1        0.0629
     58 H          12.4920   -2.6299    2.9914 H       1  UNL1        0.0625
     59 H           8.1673    4.1895    2.9528 H       1  UNL1        0.0629
     60 H          12.1288    2.5346    2.9540 H       1  UNL1        0.0625
     61 H          13.0276   -0.8970    1.5576 H       1  UNL1        0.0241
     62 H          11.6697   -0.1336    0.7249 H       1  UNL1        0.0241
     63 H          12.8972    0.8533    1.5250 H       1  UNL1        0.0241
     64 H          11.8338   -0.0492    5.0791 H       1  UNL1        0.0241
     65 H          13.1257   -0.8535    4.1825 H       1  UNL1        0.0241
     66 H          13.0091    0.8911    4.1547 H       1  UNL1        0.0241
     67 H          11.7275    4.6820    4.9555 H       1  UNL1        0.0238
     68 H          11.4528    6.3784    4.5340 H       1  UNL1        0.0238
     69 H          10.0919    5.3486    5.0000 H       1  UNL1        0.0238
     70 H          12.1088    4.6964    1.2073 H       1  UNL1        0.0238
     71 H          12.5705    6.0818    2.2089 H       1  UNL1        0.0238
     72 H          12.9725    4.4600    2.7371 H       1  UNL1        0.0238
     73 H           9.7026    5.7611    1.2649 H       1  UNL1        0.0238
     74 H           8.9730    6.1543    2.8329 H       1  UNL1        0.0238
     75 H          10.4025    7.0162    2.2990 H       1  UNL1        0.0238
     76 H           6.8549    0.2055    4.0102 H       1  UNL1        0.1490
     77 H           4.4941    0.8900    2.4725 H       1  UNL1        0.0464
     78 H           4.7303   -0.4135    3.6590 H       1  UNL1        0.0464
     79 H           2.9209    0.9824    4.3543 H       1  UNL1        0.0332
     80 H           4.2549    0.8704    5.5039 H       1  UNL1        0.0332
     81 H           5.0981    3.1216    4.7516 H       1  UNL1        0.0815
     82 H           3.7790    3.1804    3.5341 H       1  UNL1        0.0815
     83 H           2.2066    3.1258    5.3255 H       1  UNL1        0.2028
     84 H           4.5367    3.1555    7.1484 H       1  UNL1        0.0777
     85 H           2.8379    3.5406    7.6277 H       1  UNL1        0.0777
     86 H           3.2375    1.9110    7.0441 H       1  UNL1        0.0777
     87 H           4.2533    5.2284    5.6137 H       1  UNL1        0.0777
     88 H           2.9446    5.1596    4.3779 H       1  UNL1        0.0777
     89 H           2.5202    5.3367    6.1093 H       1  UNL1        0.0777
     90 H          12.3965   -4.9788    1.1999 H       1  UNL1        0.0238
     91 H          12.3699   -6.6525    1.7741 H       1  UNL1        0.0238
     92 H          10.8749   -5.8760    1.2341 H       1  UNL1        0.0238
     93 H          12.7673   -4.6067    4.9333 H       1  UNL1        0.0238
     94 H          13.4245   -5.9973    4.0557 H       1  UNL1        0.0238
     95 H          13.5955   -4.3882    3.3815 H       1  UNL1        0.0238
     96 H          10.5380   -5.9989    4.9935 H       1  UNL1        0.0238
     97 H           9.8754   -6.6308    3.4751 H       1  UNL1        0.0238
     98 H          11.4109   -7.2311    4.0696 H       1  UNL1        0.0238
@<TRIPOS>UNITY_ATOM_ATTR
2 1
charge 1
36 1
charge 1
@<TRIPOS>BOND
     1     1    43    1
     2     1    44    1
     3     1    45    1
     4     2     1    1
     5     2    46    1
     6     3     2    1
     7     3    47    1
     8     3    48    1
     9     3    49    1
    10     4     2    1
    11     4    50    1
    12     4    51    1
    13     5     4    1
    14     5    52    1
    15     5    53    1
    16     6     5    1
    17     6    54    1
    18     6    55    1
    19     7     6    1
    20     7    56    1
    21     8     7   am
    22     9     8    2
    23    10     8    1
    24    11    10   ar
    25    11    57    1
    26    12    11   ar
    27    13    12   ar
    28    13    58    1
    29    14    13   ar
    30    15    14   ar
    31    15    10   ar
    32    16    15    1
    33    17    16    1
    34    18    17   ar
    35    19    18   ar
    36    19    59    1
    37    20    19   ar
    38    21    20   ar
    39    21    60    1
    40    22    21   ar
    41    22    17   ar
    42    23    22    1
    43    23    14    1
    44    24    23    1
    45    24    61    1
    46    24    62    1
    47    24    63    1
    48    25    23    1
    49    25    64    1
    50    25    65    1
    51    25    66    1
    52    26    20    1
    53    27    26    1
    54    27    67    1
    55    27    68    1
    56    27    69    1
    57    28    26    1
    58    28    70    1
    59    28    71    1
    60    28    72    1
    61    29    26    1
    62    29    73    1
    63    29    74    1
    64    29    75    1
    65    30    18    1
    66    31    30    2
    67    32    30   am
    68    32    76    1
    69    33    32    1
    70    33    77    1
    71    33    78    1
    72    34    33    1
    73    34    79    1
    74    34    80    1
    75    35    34    1
    76    35    81    1
    77    35    82    1
    78    36    35    1
    79    36    83    1
    80    37    36    1
    81    37    84    1
    82    37    85    1
    83    37    86    1
    84    38    36    1
    85    38    87    1
    86    38    88    1
    87    38    89    1
    88    39    12    1
    89    40    39    1
    90    40    90    1
    91    40    91    1
    92    40    92    1
    93    41    39    1
    94    41    93    1
    95    41    94    1
    96    41    95    1
    97    42    39    1
    98    42    96    1
    99    42    97    1
   100    42    98    1
