@<TRIPOS>MOLECULE
mol_664_akc_s_1999_13993
>645.sdf
 28 30 0 0 0
SMALL
GASTEIGER

@<TRIPOS>ATOM
      1 O           1.1369    0.0279   -0.0043 O.3     1  UNL1       -0.5066
      2 C           2.5006    0.0895   -0.0152 C.ar    1  UNL1        0.1204
      3 C           3.0768    1.3566   -0.0137 C.ar    1  UNL1        0.0229
      4 C           4.4507    1.4207   -0.0277 C.ar    1  UNL1        0.1430
      5 C           5.2372    0.2716   -0.0442 C.ar    1  UNL1        0.0678
      6 C           4.6818   -0.9940   -0.0424 C.ar    1  UNL1       -0.0438
      7 C           3.2830   -1.0805   -0.0274 C.ar    1  UNL1       -0.0193
      8 C           6.6338    0.7076   -0.0607 C.2     1  UNL1        0.2315
      9 O           7.6277    0.0165   -0.0794 O.2     1  UNL1       -0.2832
     10 C           6.5176    2.1929   -0.0447 C.2     1  UNL1        0.1761
     11 O           5.1798    2.5804   -0.0260 O.3     1  UNL1       -0.4513
     12 C           7.5419    3.0550   -0.0392 C.2     1  UNL1       -0.0083
     13 C           7.2758    4.4942    0.0076 C.ar    1  UNL1       -0.0214
     14 C           7.1270    5.1352    1.2430 C.ar    1  UNL1       -0.0545
     15 C           6.7290    6.4723    1.2977 C.ar    1  UNL1       -0.0612
     16 C           6.4822    7.1755    0.1195 C.ar    1  UNL1       -0.0617
     17 C           6.6465    6.5478   -1.1149 C.ar    1  UNL1       -0.0612
     18 C           7.0424    5.2098   -1.1723 C.ar    1  UNL1       -0.0545
     19 H           0.8582   -0.9024   -0.0148 H       1  UNL1        0.2921
     20 H           2.4699    2.2543   -0.0034 H       1  UNL1        0.0691
     21 H           5.3054   -1.8819   -0.0516 H       1  UNL1        0.0627
     22 H           2.8132   -2.0603   -0.0254 H       1  UNL1        0.0654
     23 H           8.5751    2.7251   -0.0514 H       1  UNL1        0.0661
     24 H           7.2884    4.5892    2.1695 H       1  UNL1        0.0623
     25 H           6.5924    6.9583    2.2602 H       1  UNL1        0.0618
     26 H           6.1519    8.2102    0.1636 H       1  UNL1        0.0618
     27 H           6.4470    7.0946   -2.0327 H       1  UNL1        0.0618
     28 H           7.1362    4.7232   -2.1402 H       1  UNL1        0.0623
@<TRIPOS>BOND
     1     1    19    1
     2     2     1    1
     3     3     2   ar
     4     3    20    1
     5     4     3   ar
     6     5     4   ar
     7     6     5   ar
     8     6    21    1
     9     7     6   ar
    10     7     2   ar
    11     7    22    1
    12     8     5    1
    13     9     8    2
    14    10     8    1
    15    11    10    1
    16    11     4    1
    17    12    10    2
    18    12    23    1
    19    13    12    1
    20    14    13   ar
    21    14    24    1
    22    15    14   ar
    23    15    25    1
    24    16    15   ar
    25    16    26    1
    26    17    16   ar
    27    17    27    1
    28    18    17   ar
    29    18    13   ar
    30    18    28    1
