@<TRIPOS>MOLECULE
mol_665_akc_j1574_69681999tb13495x
>646.sdf
 32 31 0 0 0
SMALL
GASTEIGER

@<TRIPOS>ATOM
      1 C          13.7864   -1.7686   -8.5310 C.3     1  UNL1       -0.0653
      2 C          13.3572   -2.8594   -7.5615 C.3     1  UNL1       -0.0551
      3 C          12.3503   -2.3082   -6.5583 C.3     1  UNL1       -0.0411
      4 C          11.8880   -3.3597   -5.5534 C.3     1  UNL1        0.0315
      5 S          10.7026   -2.6381   -4.4113 S.3     1  UNL1        0.0460
      6 N          11.3781   -1.4708   -3.6571 N.2     1  UNL1       -0.2518
      7 O           9.4553   -2.4917   -5.1511 O.2     1  UNL1       -0.2477
      8 C          10.3952   -3.9201   -3.2039 C.3     1  UNL1        0.0370
      9 C           9.3906   -3.4277   -2.1562 C.3     1  UNL1        0.0078
     10 CA          9.0512   -4.4401   -1.0690 C.3     1  UNL1        0.0169
     11 N           8.0474   -3.7697   -0.1365 N.4     1  UNL1        0.2249
     12 C          10.2671   -5.0039   -0.2639 C.2     1  UNL1        0.0894
     13 O          11.1705   -5.5511   -0.9362 O.co2   1  UNL1       -0.5442
     14 OXT        10.1195   -4.8226    0.9758 O.co2   1  UNL1       -0.5442
     15 H          14.5116   -2.1585   -9.2508 H       1  UNL1        0.0230
     16 H          12.9258   -1.3815   -9.0865 H       1  UNL1        0.0230
     17 H          14.2499   -0.9332   -7.9957 H       1  UNL1        0.0230
     18 H          12.9164   -3.6915   -8.1219 H       1  UNL1        0.0263
     19 H          14.2380   -3.2455   -7.0361 H       1  UNL1        0.0263
     20 H          12.8023   -1.4651   -6.0230 H       1  UNL1        0.0274
     21 H          11.4817   -1.9080   -7.0963 H       1  UNL1        0.0274
     22 H          11.3864   -4.1840   -6.0737 H       1  UNL1        0.0410
     23 H          12.7302   -3.7642   -4.9842 H       1  UNL1        0.0410
     24 H          12.2939   -1.6948   -3.2642 H       1  UNL1        0.1971
     25 H          10.0016   -4.7905   -3.7394 H       1  UNL1        0.0412
     26 H          11.3670   -4.1611   -2.7720 H       1  UNL1        0.0412
     27 H           9.7596   -2.4987   -1.7024 H       1  UNL1        0.0333
     28 H           8.4583   -3.1577   -2.6710 H       1  UNL1        0.0333
     29 HA          8.5043   -5.2839   -1.4957 H       1  UNL1        0.0915
     30 H1          7.8430   -4.4516    0.6095 H       1  UNL1        0.2001
     31 H2          8.5517   -3.0285    0.3702 H       1  UNL1        0.2001
     32 H3          7.2026   -3.4272   -0.5920 H       1  UNL1        0.2001
@<TRIPOS>UNITY_ATOM_ATTR
11 1
charge 1
13 1
charge -1
@<TRIPOS>BOND
     1     1    15    1
     2     1    16    1
     3     1    17    1
     4     2     1    1
     5     2    18    1
     6     2    19    1
     7     3     2    1
     8     3    20    1
     9     3    21    1
    10     4     3    1
    11     4    22    1
    12     4    23    1
    13     5     4    1
    14     6     5    2
    15     6    24    1
    16     7     5    2
    17     8     5    1
    18     8    25    1
    19     8    26    1
    20     9     8    1
    21     9    27    1
    22     9    28    1
    23    11    10    1
    24    11    30    1
    25    11    31    1
    26    11    32    1
    27    12    10    1
    28    13    12   ar
    29    14    12   ar
    30    10    29    1
    31    10     9    1
