@<TRIPOS>MOLECULE
mol_666_akc_jac433359
>647.sdf
 46 50 0 0 0
SMALL
GASTEIGER

@<TRIPOS>ATOM
      1 N          -1.6759   -3.6033   -0.5747 N.pl3   1  UNL1       -0.3577
      2 C          -0.9639   -4.0602    0.5465 C.ar    1  UNL1        0.0281
      3 C          -1.4808   -5.1616    1.2468 C.ar    1  UNL1       -0.0408
      4 C          -0.7777   -5.7465    2.2978 C.ar    1  UNL1       -0.0600
      5 C           0.4788   -5.2644    2.6340 C.ar    1  UNL1       -0.0614
      6 C           1.0316   -4.2038    1.9145 C.ar    1  UNL1       -0.0565
      7 C           0.3394   -3.6035    0.8436 C.ar    1  UNL1       -0.0209
      8 C           0.9480   -2.4219    0.0996 C.3     1  UNL1        0.0172
      9 C           2.4619   -2.3449    0.0279 C.ar    1  UNL1        0.0554
     10 N           3.0332   -1.6650    1.0691 N.ar    1  UNL1       -0.2506
     11 C           4.3575   -1.4423    1.0702 C.ar    1  UNL1        0.0713
     12 C           4.9385   -0.7483    2.1238 C.ar    1  UNL1       -0.0357
     13 C           6.3056   -0.4550    2.1468 C.ar    1  UNL1       -0.0597
     14 C           7.1189   -0.8684    1.0982 C.ar    1  UNL1       -0.0611
     15 C           6.5637   -1.5876    0.0423 C.ar    1  UNL1       -0.0525
     16 C           5.1868   -1.8790    0.0265 C.ar    1  UNL1        0.0010
     17 C           4.5943   -2.6042   -1.0149 C.ar    1  UNL1       -0.0417
     18 C           3.2144   -2.8649   -1.0349 C.ar    1  UNL1        0.0205
     19 C           2.6831   -3.6494   -2.1595 C.ar    1  UNL1        0.0492
     20 C           3.0982   -3.6995   -3.4833 C.ar    1  UNL1       -0.0286
     21 C           2.3879   -4.7336   -4.1495 C.ar    1  UNL1        0.0003
     22 C           2.4269   -5.2756   -5.4485 C.ar    1  UNL1       -0.0526
     23 C           1.5829   -6.3463   -5.7662 C.ar    1  UNL1       -0.0611
     24 C           0.6976   -6.8591   -4.8197 C.ar    1  UNL1       -0.0598
     25 C           0.6347   -6.3274   -3.5286 C.ar    1  UNL1       -0.0378
     26 C           1.5037   -5.2748   -3.2231 C.ar    1  UNL1        0.0469
     27 N           1.6921   -4.6009   -2.0392 N.ar    1  UNL1       -0.3541
     28 H          -1.5155   -2.6261   -0.8055 H       1  UNL1        0.1423
     29 H          -2.6707   -3.8000   -0.5274 H       1  UNL1        0.1423
     30 H          -2.4574   -5.5642    0.9863 H       1  UNL1        0.0636
     31 H          -1.2116   -6.5762    2.8492 H       1  UNL1        0.0618
     32 H           1.0348   -5.7115    3.4545 H       1  UNL1        0.0618
     33 H           2.0181   -3.8489    2.2074 H       1  UNL1        0.0621
     34 H           0.5613   -2.3556   -0.9227 H       1  UNL1        0.0377
     35 H           0.5873   -1.5135    0.6020 H       1  UNL1        0.0377
     36 H           4.3071   -0.4205    2.9460 H       1  UNL1        0.0639
     37 H           6.7267    0.1005    2.9805 H       1  UNL1        0.0618
     38 H           8.1800   -0.6329    1.1020 H       1  UNL1        0.0618
     39 H           7.2061   -1.9129   -0.7730 H       1  UNL1        0.0624
     40 H           5.2246   -2.9781   -1.8195 H       1  UNL1        0.0631
     41 H           3.8726   -3.0841   -3.9230 H       1  UNL1        0.0645
     42 H           3.1153   -4.8825   -6.1902 H       1  UNL1        0.0624
     43 H           1.6226   -6.7837   -6.7603 H       1  UNL1        0.0618
     44 H           0.0490   -7.6907   -5.0848 H       1  UNL1        0.0618
     45 H          -0.0528   -6.7261   -2.7893 H       1  UNL1        0.0638
     46 H           1.1932   -4.8264   -1.1907 H       1  UNL1        0.1659
@<TRIPOS>BOND
     1     1    28    1
     2     1    29    1
     3     2     1    1
     4     3     2   ar
     5     3    30    1
     6     4     3   ar
     7     4    31    1
     8     5     4   ar
     9     5    32    1
    10     6     5   ar
    11     6    33    1
    12     7     6   ar
    13     7     2   ar
    14     8     7    1
    15     8    34    1
    16     8    35    1
    17     9     8    1
    18    10     9   ar
    19    11    10   ar
    20    12    11   ar
    21    12    36    1
    22    13    12   ar
    23    13    37    1
    24    14    13   ar
    25    14    38    1
    26    15    14   ar
    27    15    39    1
    28    16    15   ar
    29    16    11   ar
    30    17    16   ar
    31    17    40    1
    32    18    17   ar
    33    18     9   ar
    34    19    18    1
    35    20    19   ar
    36    20    41    1
    37    21    20   ar
    38    22    21   ar
    39    22    42    1
    40    23    22   ar
    41    23    43    1
    42    24    23   ar
    43    24    44    1
    44    25    24   ar
    45    25    45    1
    46    26    25   ar
    47    26    21   ar
    48    27    26   ar
    49    27    19   ar
    50    27    46    1
