@<TRIPOS>MOLECULE
mol_667_akc_aac4351234
>648.sdf
 34 35 0 0 0
SMALL
GASTEIGER

@<TRIPOS>ATOM
      1 C           1.1285   -0.0123   -0.4084 C.3     1  UNL1        0.0788
      2 O           2.4345   -0.1182    0.1472 O.3     1  UNL1       -0.4949
      3 C           3.0507   -1.3360    0.0644 C.ar    1  UNL1        0.1271
      4 C           2.5257   -2.4769   -0.5421 C.ar    1  UNL1        0.0225
      5 C           3.2596   -3.6724   -0.5546 C.ar    1  UNL1        0.1346
      6 O           2.7225   -4.7477   -1.2109 O.3     1  UNL1       -0.5058
      7 C           4.5218   -3.7543    0.0527 C.ar    1  UNL1        0.1045
      8 C           5.3415   -4.9980    0.1138 C.2     1  UNL1        0.1931
      9 O           6.5646   -4.8963    0.2124 O.2     1  UNL1       -0.2870
     10 C           4.6707   -6.3239    0.1564 C.2     1  UNL1       -0.0135
     11 C           5.3993   -7.4493    0.1393 C.2     1  UNL1       -0.0510
     12 C           4.7552   -8.7615    0.1542 C.ar    1  UNL1       -0.0249
     13 C           4.4353   -9.3957   -1.0513 C.ar    1  UNL1       -0.0546
     14 C           3.8208  -10.6493   -1.0445 C.ar    1  UNL1       -0.0612
     15 C           3.5204  -11.2722    0.1662 C.ar    1  UNL1       -0.0617
     16 C           3.8270  -10.6394    1.3707 C.ar    1  UNL1       -0.0612
     17 C           4.4410   -9.3849    1.3659 C.ar    1  UNL1       -0.0546
     18 C           5.0501   -2.5838    0.6239 C.ar    1  UNL1        0.1346
     19 O           6.2949   -2.5248    1.1992 O.3     1  UNL1       -0.5058
     20 C           4.3198   -1.3942    0.6397 C.ar    1  UNL1        0.0225
     21 H           1.1483   -0.1825   -1.4898 H       1  UNL1        0.0660
     22 H           0.4322   -0.6978    0.0864 H       1  UNL1        0.0660
     23 H           0.7707    1.0069   -0.2369 H       1  UNL1        0.0660
     24 H           1.5514   -2.4487   -1.0165 H       1  UNL1        0.0691
     25 H           1.8452   -4.5192   -1.5625 H       1  UNL1        0.2922
     26 H           3.5913   -6.3660    0.2107 H       1  UNL1        0.0656
     27 H           6.4850   -7.4384    0.0978 H       1  UNL1        0.0625
     28 H           4.6656   -8.9185   -2.0010 H       1  UNL1        0.0623
     29 H           3.5802  -11.1406   -1.9837 H       1  UNL1        0.0618
     30 H           3.0486  -12.2515    0.1711 H       1  UNL1        0.0618
     31 H           3.5913  -11.1245    2.3143 H       1  UNL1        0.0618
     32 H           4.6761   -8.9013    2.3110 H       1  UNL1        0.0623
     33 H           6.7748   -3.3529    0.9684 H       1  UNL1        0.2922
     34 H           4.7494   -0.5072    1.0998 H       1  UNL1        0.0691
@<TRIPOS>BOND
     1     1    21    1
     2     1    22    1
     3     1    23    1
     4     2     1    1
     5     3     2    1
     6     4     3   ar
     7     4    24    1
     8     5     4   ar
     9     6     5    1
    10     6    25    1
    11     7     5   ar
    12     8     7    1
    13     9     8    2
    14    10     8    1
    15    10    26    1
    16    11    10    2
    17    11    27    1
    18    12    11    1
    19    13    12   ar
    20    13    28    1
    21    14    13   ar
    22    14    29    1
    23    15    14   ar
    24    15    30    1
    25    16    15   ar
    26    16    31    1
    27    17    16   ar
    28    17    12   ar
    29    17    32    1
    30    18     7   ar
    31    19    18    1
    32    19    33    1
    33    20    18   ar
    34    20     3   ar
    35    20    34    1
