@<TRIPOS>MOLECULE
mol_668_akc_jm9804073
>649.sdf
 38 39 0 0 0
SMALL
GASTEIGER

@<TRIPOS>ATOM
      1 N           4.7171    1.1841   -5.7153 N.3     1  UNL1       -0.2034
      2 S           4.1205    0.1983   -4.4943 S.O2    1  UNL1        0.0588
      3 O           2.7403   -0.0890   -4.7965 O.2     1  UNL1       -0.1532
      4 O           5.1126   -0.8476   -4.3418 O.2     1  UNL1       -0.1532
      5 C           4.2143    1.2639   -3.1011 C.ar    1  UNL1        0.1424
      6 C           3.4752    2.4475   -3.1370 C.ar    1  UNL1        0.1705
      7 F           2.6975    2.6691   -4.2080 F       1  UNL1       -0.2015
      8 C           3.5872    3.4229   -2.1247 C.ar    1  UNL1        0.0679
      9 C           4.4581    3.0961   -1.0622 C.ar    1  UNL1       -0.0261
     10 C           5.2239    1.9126   -1.0191 C.ar    1  UNL1        0.0586
     11 C           5.0830    0.9812   -2.0484 C.ar    1  UNL1       -0.0208
     12 C           6.2270    1.6895    0.0874 C.3     1  UNL1        0.4175
     13 F           6.3021    2.7237    0.9705 F       1  UNL1       -0.1659
     14 F           5.9560    0.5814    0.8278 F       1  UNL1       -0.1659
     15 F           7.4911    1.5234   -0.3944 F       1  UNL1       -0.1659
     16 N           2.9342    4.6607   -2.1612 N.pl3   1  UNL1       -0.3276
     17 C           1.7921    4.8929   -3.0524 C.3     1  UNL1        0.0123
     18 C           2.2533    5.5153   -4.3720 C.3     1  UNL1       -0.0372
     19 C           2.5827    7.0049   -4.2818 C.3     1  UNL1       -0.0516
     20 C           3.6016    7.3836   -3.2073 C.3     1  UNL1       -0.0516
     21 C           3.0827    7.1550   -1.7880 C.3     1  UNL1       -0.0372
     22 C           3.3421    5.7442   -1.2584 C.3     1  UNL1        0.0123
     23 H           3.9809    1.4096   -6.3853 H       1  UNL1        0.1442
     24 H           5.5692    0.7974   -6.1172 H       1  UNL1        0.1442
     25 H           4.5732    3.7834   -0.2252 H       1  UNL1        0.0642
     26 H           5.6737    0.0655   -2.0456 H       1  UNL1        0.0643
     27 H           1.0546    5.5421   -2.5654 H       1  UNL1        0.0464
     28 H           1.2375    3.9659   -3.2373 H       1  UNL1        0.0464
     29 H           1.4520    5.3949   -5.1115 H       1  UNL1        0.0280
     30 H           3.1261    4.9843   -4.7696 H       1  UNL1        0.0280
     31 H           2.9683    7.3302   -5.2562 H       1  UNL1        0.0266
     32 H           1.6565    7.5691   -4.1159 H       1  UNL1        0.0266
     33 H           4.5482    6.8550   -3.3696 H       1  UNL1        0.0266
     34 H           3.8178    8.4530   -3.3216 H       1  UNL1        0.0266
     35 H           3.5963    7.8531   -1.1144 H       1  UNL1        0.0280
     36 H           2.0182    7.4073   -1.7203 H       1  UNL1        0.0280
     37 H           4.4212    5.6987   -1.0681 H       1  UNL1        0.0464
     38 H           2.8308    5.6206   -0.2966 H       1  UNL1        0.0464
@<TRIPOS>BOND
     1     1    23    1
     2     1    24    1
     3     2     1    1
     4     3     2    2
     5     4     2    2
     6     5     2    1
     7     6     5   ar
     8     7     6    1
     9     8     6   ar
    10     9     8   ar
    11     9    25    1
    12    10     9   ar
    13    11    10   ar
    14    11     5   ar
    15    11    26    1
    16    12    10    1
    17    13    12    1
    18    14    12    1
    19    15    12    1
    20    16     8    1
    21    17    16    1
    22    17    27    1
    23    17    28    1
    24    18    17    1
    25    18    29    1
    26    18    30    1
    27    19    18    1
    28    19    31    1
    29    19    32    1
    30    20    19    1
    31    20    33    1
    32    20    34    1
    33    21    20    1
    34    21    35    1
    35    21    36    1
    36    22    21    1
    37    22    16    1
    38    22    37    1
    39    22    38    1
