@<TRIPOS>MOLECULE
mol_669_akc_jm9804073
>650.sdf
 44 46 0 0 0
SMALL
GASTEIGER

@<TRIPOS>ATOM
      1 N           1.1702    0.3999   -0.0131 N.3     1  UNL1       -0.2035
      2 S           2.7505   -0.2104    0.0062 S.O2    1  UNL1        0.0578
      3 O           2.5639   -1.6025   -0.3623 O.2     1  UNL1       -0.1532
      4 O           3.6191    0.6395   -0.7638 O.2     1  UNL1       -0.1532
      5 C           3.1587   -0.1218    1.7419 C.ar    1  UNL1        0.1282
      6 C           3.4830    1.0622    2.4589 C.ar    1  UNL1        0.0777
      7 N           3.5667    2.3515    1.9352 N.pl3   1  UNL1       -0.3270
      8 C           2.7784    3.0113    0.8909 C.3     1  UNL1        0.0123
      9 C           3.7489    3.9691    0.2090 C.3     1  UNL1       -0.0358
     10 C           4.6224    4.4098    1.3601 C.3     1  UNL1       -0.0358
     11 C           4.8221    3.1109    2.1418 C.3     1  UNL1        0.0123
     12 C           3.7858    0.8698    3.8730 C.ar    1  UNL1        0.0535
     13 C           3.7630   -0.4233    4.4491 C.ar    1  UNL1       -0.0271
     14 C           3.4792   -1.5646    3.7102 C.ar    1  UNL1        0.0585
     15 C           3.1802   -1.3996    2.3638 C.ar    1  UNL1       -0.0218
     16 C           3.4732   -2.9363    4.3346 C.3     1  UNL1        0.4175
     17 F           3.7503   -2.9323    5.6682 F       1  UNL1       -0.1659
     18 F           2.2656   -3.5538    4.2084 F       1  UNL1       -0.1659
     19 F           4.3833   -3.7731    3.7660 F       1  UNL1       -0.1659
     20 N           4.0325    1.9681    4.7215 N.pl3   1  UNL1       -0.3284
     21 C           4.8703    1.8690    5.9250 C.3     1  UNL1        0.0123
     22 C           3.9619    2.3268    7.0578 C.3     1  UNL1       -0.0358
     23 C           3.1091    3.3869    6.3829 C.3     1  UNL1       -0.0358
     24 C           2.8449    2.7938    4.9994 C.3     1  UNL1        0.0123
     25 H           0.5350   -0.3521   -0.2805 H       1  UNL1        0.1442
     26 H           0.9125    0.8186    0.8817 H       1  UNL1        0.1442
     27 H           1.9606    3.5667    1.3649 H       1  UNL1        0.0464
     28 H           2.3349    2.3889    0.1302 H       1  UNL1        0.0464
     29 H           4.3522    3.4376   -0.5364 H       1  UNL1        0.0281
     30 H           3.2403    4.7986   -0.2888 H       1  UNL1        0.0281
     31 H           5.5659    4.8563    1.0381 H       1  UNL1        0.0281
     32 H           4.0839    5.1448    1.9725 H       1  UNL1        0.0281
     33 H           5.6718    2.5497    1.7402 H       1  UNL1        0.0464
     34 H           5.0332    3.3808    3.1764 H       1  UNL1        0.0464
     35 H           3.9377   -0.5468    5.5155 H       1  UNL1        0.0642
     36 H           2.9625   -2.3001    1.7864 H       1  UNL1        0.0643
     37 H           5.7057    2.5700    5.8132 H       1  UNL1        0.0464
     38 H           5.3125    0.8879    6.1215 H       1  UNL1        0.0464
     39 H           3.3331    1.4978    7.4029 H       1  UNL1        0.0281
     40 H           4.5221    2.7161    7.9123 H       1  UNL1        0.0281
     41 H           2.1856    3.5990    6.9286 H       1  UNL1        0.0281
     42 H           3.6757    4.3215    6.2917 H       1  UNL1        0.0281
     43 H           1.9303    2.1880    5.0256 H       1  UNL1        0.0464
     44 H           2.7205    3.5911    4.2596 H       1  UNL1        0.0464
@<TRIPOS>BOND
     1     1    25    1
     2     1    26    1
     3     2     1    1
     4     3     2    2
     5     4     2    2
     6     5     2    1
     7     6     5   ar
     8     7     6    1
     9     8     7    1
    10     8    27    1
    11     8    28    1
    12     9     8    1
    13     9    29    1
    14     9    30    1
    15    10     9    1
    16    10    31    1
    17    10    32    1
    18    11    10    1
    19    11     7    1
    20    11    33    1
    21    11    34    1
    22    12     6   ar
    23    13    12   ar
    24    13    35    1
    25    14    13   ar
    26    15    14   ar
    27    15     5   ar
    28    15    36    1
    29    16    14    1
    30    17    16    1
    31    18    16    1
    32    19    16    1
    33    20    12    1
    34    21    20    1
    35    21    37    1
    36    21    38    1
    37    22    21    1
    38    22    39    1
    39    22    40    1
    40    23    22    1
    41    23    41    1
    42    23    42    1
    43    24    23    1
    44    24    20    1
    45    24    43    1
    46    24    44    1
