@<TRIPOS>MOLECULE
mol_66_akc_ijms21186839
>65.sdf
 47 50 0 0 0
SMALL
GASTEIGER

@<TRIPOS>ATOM
      1 C           1.7614   -0.8856   -2.0832 C.3     1  UNL1        0.1346
      2 O           1.9921   -2.2712   -2.3183 O.3     1  UNL1       -0.4858
      3 C           1.1189   -2.9156   -3.1473 C.ar    1  UNL1        0.1211
      4 C           0.0190   -2.3474   -3.7917 C.ar    1  UNL1       -0.0199
      5 C          -0.7725   -3.1288   -4.6360 C.ar    1  UNL1       -0.0583
      6 C          -0.4742   -4.4718   -4.8376 C.ar    1  UNL1       -0.0615
      7 C           0.6147   -5.0452   -4.1860 C.ar    1  UNL1       -0.0583
      8 C           1.4073   -4.2678   -3.3414 C.ar    1  UNL1       -0.0199
      9 C           2.8094   -0.3384   -1.1936 C.ar    1  UNL1        0.1204
     10 C           4.0385    0.2191   -1.4839 C.ar    1  UNL1        0.0578
     11 N           4.5298    0.6526   -0.2655 N.ar    1  UNL1       -0.2191
     12 N           3.6703    0.2793    0.6955 N.ar    1  UNL1       -0.0604
     13 N           2.6223   -0.3122    0.1525 N.ar    1  UNL1       -0.1307
     14 C           5.7297    1.3763   -0.0251 C.ar    1  UNL1        0.0756
     15 C           5.8992    2.2859    1.0413 C.ar    1  UNL1        0.0200
     16 C           4.8827    2.6611    2.0504 C.2     1  UNL1        0.0547
     17 N           4.2581    1.7698    2.7358 N.2     1  UNL1       -0.1899
     18 N           3.2908    2.2140    3.5814 N.pl3   1  UNL1       -0.2378
     19 C           2.6707    1.2029    4.3662 C.ar    1  UNL1        0.0483
     20 C           3.1998   -0.0942    4.4528 C.ar    1  UNL1       -0.0391
     21 C           2.6744   -1.0367    5.3355 C.ar    1  UNL1       -0.0600
     22 C           1.6112   -0.6893    6.1647 C.ar    1  UNL1       -0.0616
     23 C           1.0647    0.5916    6.0881 C.ar    1  UNL1       -0.0600
     24 C           1.5907    1.5324    5.1964 C.ar    1  UNL1       -0.0391
     25 C           7.0926    3.0232    1.1421 C.ar    1  UNL1       -0.0511
     26 C           8.1256    2.8425    0.2226 C.ar    1  UNL1       -0.0610
     27 C           7.9731    1.9347   -0.8190 C.ar    1  UNL1       -0.0597
     28 C           6.7829    1.2154   -0.9501 C.ar    1  UNL1       -0.0356
     29 H           0.7829   -0.7439   -1.6036 H       1  UNL1        0.0764
     30 H           1.7790   -0.3319   -3.0296 H       1  UNL1        0.0764
     31 H          -0.2509   -1.3052   -3.6593 H       1  UNL1        0.0654
     32 H          -1.6311   -2.6806   -5.1415 H       1  UNL1        0.0619
     33 H          -1.0897   -5.0768   -5.4978 H       1  UNL1        0.0618
     34 H           0.8518   -6.0963   -4.3327 H       1  UNL1        0.0619
     35 H           2.2550   -4.7167   -2.8296 H       1  UNL1        0.0654
     36 H           4.5397    0.4049   -2.4192 H       1  UNL1        0.0851
     37 H           4.7319    3.7403    2.2304 H       1  UNL1        0.0852
     38 H           2.5841    2.8335    3.1814 H       1  UNL1        0.1744
     39 H           4.0297   -0.3814    3.8114 H       1  UNL1        0.0636
     40 H           3.1079   -2.0309    5.3800 H       1  UNL1        0.0618
     41 H           1.2208   -1.4114    6.8749 H       1  UNL1        0.0618
     42 H           0.2381    0.8651    6.7390 H       1  UNL1        0.0618
     43 H           1.1633    2.5306    5.1680 H       1  UNL1        0.0636
     44 H           7.2307    3.7387    1.9514 H       1  UNL1        0.0625
     45 H           9.0499    3.4068    0.3230 H       1  UNL1        0.0618
     46 H           8.7825    1.7817   -1.5292 H       1  UNL1        0.0618
     47 H           6.7164    0.4995   -1.7674 H       1  UNL1        0.0639
@<TRIPOS>BOND
     1     1    29    1
     2     1    30    1
     3     2     1    1
     4     3     2    1
     5     4     3   ar
     6     4    31    1
     7     5     4   ar
     8     5    32    1
     9     6     5   ar
    10     6    33    1
    11     7     6   ar
    12     7    34    1
    13     8     7   ar
    14     8     3   ar
    15     8    35    1
    16     9     1    1
    17    10     9   ar
    18    10    36    1
    19    11    10   ar
    20    12    11   ar
    21    13    12   ar
    22    13     9   ar
    23    14    11    1
    24    15    14   ar
    25    16    15    1
    26    16    37    1
    27    17    16    2
    28    18    17    1
    29    18    38    1
    30    19    18    1
    31    20    19   ar
    32    20    39    1
    33    21    20   ar
    34    21    40    1
    35    22    21   ar
    36    22    41    1
    37    23    22   ar
    38    23    42    1
    39    24    23   ar
    40    24    19   ar
    41    24    43    1
    42    25    15   ar
    43    25    44    1
    44    26    25   ar
    45    26    45    1
    46    27    26   ar
    47    27    46    1
    48    28    27   ar
    49    28    14   ar
    50    28    47    1
