@<TRIPOS>MOLECULE
mol_670_akc_jm970232h
>651.sdf
 74 77 0 0 0
SMALL
GASTEIGER

@<TRIPOS>ATOM
      1 C           8.1131   -8.5466  -11.7078 C.3     1  UNL1       -0.0653
      2 C           7.5756   -7.3962  -10.8696 C.3     1  UNL1       -0.0559
      3 C           8.4408   -6.1456  -11.0222 C.3     1  UNL1       -0.0533
      4 C           7.9448   -4.9959  -10.1385 C.3     1  UNL1       -0.0516
      5 C           8.8784   -3.7866  -10.2513 C.3     1  UNL1       -0.0372
      6 C           8.4459   -2.5702   -9.4226 C.3     1  UNL1        0.0119
      7 N           8.4725   -2.8159   -7.9747 N.pl3   1  UNL1       -0.3329
      8 C           7.1982   -3.1777   -7.3532 C.3     1  UNL1        0.0007
      9 C           9.6385   -2.7508   -7.2159 C.ar    1  UNL1        0.0295
     10 C          10.9119   -2.5840   -7.7819 C.ar    1  UNL1       -0.0389
     11 C          12.1069   -2.6116   -7.0213 C.ar    1  UNL1       -0.0388
     12 C          12.0884   -2.7291   -5.6417 C.ar    1  UNL1        0.0315
     13 N          13.2197   -2.7882   -4.8111 N.pl3   1  UNL1       -0.3135
     14 C          14.5741   -2.3492   -4.7415 C.ar    1  UNL1        0.0499
     15 C          15.2251   -1.3381   -5.5347 C.ar    1  UNL1        0.0222
     16 C          14.8659   -0.7309   -6.7598 C.ar    1  UNL1       -0.0490
     17 C          15.8706   -0.2272   -7.6321 C.ar    1  UNL1       -0.0399
     18 C          17.2063   -0.1536   -7.2239 C.ar    1  UNL1        0.0313
     19 C          17.3951   -0.2514   -5.8551 C.ar    1  UNL1       -0.0146
     20 C          16.5029   -0.9501   -5.0824 C.ar    1  UNL1        0.0752
     21 N          17.1065   -1.4328   -4.0297 N.ar    1  UNL1       -0.2465
     22 C          16.7549   -2.6553   -3.7260 C.ar    1  UNL1        0.0752
     23 C          17.8272   -3.4679   -3.4448 C.ar    1  UNL1       -0.0146
     24 C          17.7014   -4.8472   -3.4231 C.ar    1  UNL1        0.0313
     25 C          16.3987   -5.3450   -3.3126 C.ar    1  UNL1       -0.0399
     26 C          15.2821   -4.5114   -3.5493 C.ar    1  UNL1       -0.0490
     27 C          15.4731   -3.1695   -3.9564 C.ar    1  UNL1        0.0222
     28 N          18.7888   -5.6894   -3.6837 N.pl3   1  UNL1       -0.3360
     29 C          19.2064   -6.5752   -2.6116 C.3     1  UNL1        0.0004
     30 C          19.8798   -5.1409   -4.5046 C.3     1  UNL1        0.0004
     31 N          18.3265   -0.0240   -8.0741 N.pl3   1  UNL1       -0.3360
     32 C          18.1351   -0.2804   -9.4972 C.3     1  UNL1        0.0004
     33 C          19.5504   -0.6936   -7.5525 C.3     1  UNL1        0.0004
     34 C          10.8175   -2.8479   -5.0561 C.ar    1  UNL1       -0.0388
     35 C           9.6320   -2.8709   -5.8201 C.ar    1  UNL1       -0.0389
     36 H           7.4875   -9.4355  -11.5797 H       1  UNL1        0.0230
     37 H           8.1225   -8.2875  -12.7713 H       1  UNL1        0.0230
     38 H           9.1341   -8.8056  -11.4090 H       1  UNL1        0.0230
     39 H           6.5455   -7.1775  -11.1733 H       1  UNL1        0.0263
     40 H           7.5468   -7.7041   -9.8180 H       1  UNL1        0.0263
     41 H           9.4774   -6.3875  -10.7566 H       1  UNL1        0.0265
     42 H           8.4437   -5.8273  -12.0719 H       1  UNL1        0.0265
     43 H           6.9282   -4.7128  -10.4366 H       1  UNL1        0.0266
     44 H           7.8995   -5.3382   -9.0991 H       1  UNL1        0.0266
     45 H           9.8918   -4.0950   -9.9747 H       1  UNL1        0.0280
     46 H           8.9238   -3.4772  -11.3035 H       1  UNL1        0.0280
     47 H           9.0745   -1.7064   -9.6724 H       1  UNL1        0.0463
     48 H           7.4362   -2.2713   -9.7332 H       1  UNL1        0.0463
     49 H           7.2678   -4.1493   -6.8526 H       1  UNL1        0.0428
     50 H           6.8791   -2.4154   -6.6355 H       1  UNL1        0.0428
     51 H           6.3946   -3.2681   -8.0947 H       1  UNL1        0.0428
     52 H          11.0267   -2.4653   -8.8544 H       1  UNL1        0.0637
     53 H          13.0466   -2.6046   -7.5610 H       1  UNL1        0.0637
     54 H          12.9550   -3.1350   -3.8883 H       1  UNL1        0.1522
     55 H          13.8514   -0.7711   -7.1347 H       1  UNL1        0.0625
     56 H          15.5819    0.0213   -8.6434 H       1  UNL1        0.0636
     57 H          18.3626   -0.0364   -5.4133 H       1  UNL1        0.0657
     58 H          18.8084   -3.0011   -3.4447 H       1  UNL1        0.0657
     59 H          16.2395   -6.4146   -3.2007 H       1  UNL1        0.0636
     60 H          14.3030   -4.9783   -3.6100 H       1  UNL1        0.0625
     61 H          19.8045   -7.3921   -3.0310 H       1  UNL1        0.0428
     62 H          19.8281   -6.0382   -1.8875 H       1  UNL1        0.0428
     63 H          18.3579   -7.0296   -2.0912 H       1  UNL1        0.0428
     64 H          19.4975   -4.7570   -5.4587 H       1  UNL1        0.0428
     65 H          20.4265   -4.3417   -3.9915 H       1  UNL1        0.0428
     66 H          20.6081   -5.9223   -4.7495 H       1  UNL1        0.0428
     67 H          19.0491   -0.0212  -10.0427 H       1  UNL1        0.0428
     68 H          17.9270   -1.3397   -9.6837 H       1  UNL1        0.0428
     69 H          17.3350    0.3409   -9.9262 H       1  UNL1        0.0428
     70 H          20.0005   -0.1297   -6.7278 H       1  UNL1        0.0428
     71 H          19.3386   -1.7190   -7.2188 H       1  UNL1        0.0428
     72 H          20.3254   -0.7669   -8.3239 H       1  UNL1        0.0428
     73 H          10.7181   -2.9453   -3.9763 H       1  UNL1        0.0637
     74 H           8.6966   -2.9880   -5.2768 H       1  UNL1        0.0637
@<TRIPOS>BOND
     1     1    36    1
     2     1    37    1
     3     1    38    1
     4     2     1    1
     5     2    39    1
     6     2    40    1
     7     3     2    1
     8     3    41    1
     9     3    42    1
    10     4     3    1
    11     4    43    1
    12     4    44    1
    13     5     4    1
    14     5    45    1
    15     5    46    1
    16     6     5    1
    17     6    47    1
    18     6    48    1
    19     7     6    1
    20     8     7    1
    21     8    49    1
    22     8    50    1
    23     8    51    1
    24     9     7    1
    25    10     9   ar
    26    10    52    1
    27    11    10   ar
    28    11    53    1
    29    12    11   ar
    30    13    12    1
    31    13    54    1
    32    14    13    1
    33    15    14   ar
    34    16    15   ar
    35    16    55    1
    36    17    16   ar
    37    17    56    1
    38    18    17   ar
    39    19    18   ar
    40    19    57    1
    41    20    19   ar
    42    20    15   ar
    43    21    20   ar
    44    22    21   ar
    45    23    22   ar
    46    23    58    1
    47    24    23   ar
    48    25    24   ar
    49    25    59    1
    50    26    25   ar
    51    26    60    1
    52    27    26   ar
    53    27    14   ar
    54    27    22   ar
    55    28    24    1
    56    29    28    1
    57    29    61    1
    58    29    62    1
    59    29    63    1
    60    30    28    1
    61    30    64    1
    62    30    65    1
    63    30    66    1
    64    31    18    1
    65    32    31    1
    66    32    67    1
    67    32    68    1
    68    32    69    1
    69    33    31    1
    70    33    70    1
    71    33    71    1
    72    33    72    1
    73    34    12   ar
    74    34    73    1
    75    35    34   ar
    76    35     9   ar
    77    35    74    1
