@<TRIPOS>MOLECULE
mol_671_akc_00034983199611813083
>652.sdf
 90 89 0 0 0
SMALL
GASTEIGER

@<TRIPOS>ATOM
      1 C          16.2597  -14.0128  -15.7247 C.3     1  UNL1       -0.0653
      2 C          16.2220  -12.7721  -14.8422 C.3     1  UNL1       -0.0559
      3 C          14.9825  -12.7848  -13.9522 C.3     1  UNL1       -0.0533
      4 C          14.8910  -11.5545  -13.0415 C.3     1  UNL1       -0.0531
      5 C          13.6226  -11.6466  -12.1866 C.3     1  UNL1       -0.0531
      6 C          13.4228  -10.4601  -11.2360 C.3     1  UNL1       -0.0531
      7 C          12.1196  -10.6402  -10.4441 C.3     1  UNL1       -0.0531
      8 C          11.8479   -9.5794   -9.3649 C.3     1  UNL1       -0.0531
      9 C          11.7428   -8.1511   -9.9028 C.3     1  UNL1       -0.0530
     10 C          11.2251   -7.1141   -8.8902 C.3     1  UNL1       -0.0510
     11 C          11.9573   -6.9294   -7.5481 C.3     1  UNL1       -0.0293
     12 C          13.3436   -6.2869   -7.5860 C.3     1  UNL1        0.0522
     13 O          13.8122   -6.0156   -6.2511 O.3     1  UNL1       -0.3357
     14 C          14.6713   -7.0269   -5.6978 C.3     1  UNL1        0.2408
     15 N          15.0854   -6.5611   -4.3978 N.am    1  UNL1       -0.2671
     16 C          14.4949   -7.0420   -3.2472 C.2     1  UNL1        0.2166
     17 O          13.4194   -7.6206   -3.2108 O.2     1  UNL1       -0.2757
     18 C          15.3239   -6.8243   -1.9693 C.3     1  UNL1        0.0241
     19 C          15.4446   -5.3692   -1.5250 C.3     1  UNL1       -0.0448
     20 C          14.1025   -4.7499   -1.1241 C.3     1  UNL1       -0.0526
     21 C          14.2599   -3.2648   -0.7855 C.3     1  UNL1       -0.0531
     22 C          12.9149   -2.6028   -0.4752 C.3     1  UNL1       -0.0533
     23 C          13.0920   -1.1094   -0.1948 C.3     1  UNL1       -0.0559
     24 C          11.7678   -0.4264    0.1070 C.3     1  UNL1       -0.0653
     25 O          15.8255   -7.1088   -6.5076 O.3     1  UNL1       -0.2801
     26 P          17.0052   -8.1253   -6.1053 P.3     1  UNL1        0.2161
     27 O          17.2131   -8.1360   -4.6191 O.co2   1  UNL1       -0.4372
     28 O          16.9428   -9.3963   -6.9239 O.2     1  UNL1       -0.5171
     29 O          18.2488   -7.2545   -6.6701 O.3     1  UNL1       -0.3220
     30 C          18.6194   -7.3624   -8.0300 C.3     1  UNL1        0.0947
     31 C          20.1462   -7.3062   -8.1011 C.3     1  UNL1       -0.0064
     32 N          20.9001   -8.5816   -7.6318 N.4     1  UNL1        0.2385
     33 C          20.6575   -8.8468   -6.1431 C.3     1  UNL1       -0.0417
     34 C          20.4514   -9.8041   -8.4173 C.3     1  UNL1       -0.0417
     35 C          22.3879   -8.3593   -7.8490 C.3     1  UNL1       -0.0417
     36 H          17.1477  -14.0034  -16.3647 H       1  UNL1        0.0230
     37 H          16.2891  -14.9236  -15.1173 H       1  UNL1        0.0230
     38 H          15.3764  -14.0641  -16.3697 H       1  UNL1        0.0230
     39 H          17.1251  -12.7392  -14.2228 H       1  UNL1        0.0263
     40 H          16.2244  -11.8757  -15.4727 H       1  UNL1        0.0263
     41 H          14.0854  -12.8370  -14.5812 H       1  UNL1        0.0265
     42 H          14.9924  -13.6931  -13.3365 H       1  UNL1        0.0265
     43 H          15.7764  -11.4982  -12.3975 H       1  UNL1        0.0265
     44 H          14.8686  -10.6421  -13.6493 H       1  UNL1        0.0265
     45 H          12.7531  -11.7237  -12.8520 H       1  UNL1        0.0265
     46 H          13.6581  -12.5746  -11.6014 H       1  UNL1        0.0265
     47 H          14.2721  -10.3888  -10.5475 H       1  UNL1        0.0265
     48 H          13.3870   -9.5325  -11.8178 H       1  UNL1        0.0265
     49 H          11.2756  -10.6709  -11.1452 H       1  UNL1        0.0265
     50 H          12.1420  -11.6205   -9.9501 H       1  UNL1        0.0265
     51 H          10.9026   -9.8469   -8.8756 H       1  UNL1        0.0265
     52 H          12.6296   -9.6315   -8.6007 H       1  UNL1        0.0265
     53 H          12.7046   -7.8230  -10.3081 H       1  UNL1        0.0265
     54 H          11.0354   -8.1579  -10.7450 H       1  UNL1        0.0265
     55 H          11.1626   -6.1441   -9.4021 H       1  UNL1        0.0266
     56 H          10.1878   -7.3867   -8.6498 H       1  UNL1        0.0266
     57 H          11.3247   -6.2752   -6.9318 H       1  UNL1        0.0287
     58 H          12.0049   -7.8776   -7.0037 H       1  UNL1        0.0287
     59 H          14.0606   -6.8806   -8.1616 H       1  UNL1        0.0561
     60 H          13.2679   -5.3091   -8.0826 H       1  UNL1        0.0561
     61 H          14.1368   -7.9801   -5.6377 H       1  UNL1        0.1148
     62 H          16.0936   -6.5658   -4.3178 H       1  UNL1        0.1534
     63 H          14.8858   -7.4254   -1.1632 H       1  UNL1        0.0358
     64 H          16.3288   -7.2296   -2.1367 H       1  UNL1        0.0358
     65 H          16.1215   -5.3225   -0.6574 H       1  UNL1        0.0270
     66 H          15.9119   -4.7716   -2.3159 H       1  UNL1        0.0270
     67 H          13.3857   -4.8589   -1.9459 H       1  UNL1        0.0265
     68 H          13.6907   -5.2849   -0.2604 H       1  UNL1        0.0265
     69 H          14.9320   -3.1512    0.0742 H       1  UNL1        0.0265
     70 H          14.7288   -2.7482   -1.6314 H       1  UNL1        0.0265
     71 H          12.2342   -2.7373   -1.3248 H       1  UNL1        0.0265
     72 H          12.4526   -3.0913    0.3910 H       1  UNL1        0.0265
     73 H          13.7699   -0.9686    0.6551 H       1  UNL1        0.0263
     74 H          13.5544   -0.6221   -1.0614 H       1  UNL1        0.0263
     75 H          11.0754   -0.5198   -0.7357 H       1  UNL1        0.0230
     76 H          11.2941   -0.8605    0.9930 H       1  UNL1        0.0230
     77 H          11.9281    0.6400    0.2964 H       1  UNL1        0.0230
     78 H          18.2174   -8.2473   -8.5173 H       1  UNL1        0.0618
     79 H          18.2022   -6.4916   -8.5460 H       1  UNL1        0.0618
     80 H          20.4533   -7.1365   -9.1391 H       1  UNL1        0.0838
     81 H          20.5280   -6.4863   -7.4799 H       1  UNL1        0.0838
     82 H          19.6231   -9.1475   -5.9879 H       1  UNL1        0.0778
     83 H          21.3154   -9.6690   -5.8385 H       1  UNL1        0.0778
     84 H          20.9101   -7.9415   -5.5828 H       1  UNL1        0.0778
     85 H          20.5563   -9.5817   -9.4826 H       1  UNL1        0.0778
     86 H          21.0991  -10.6429   -8.1438 H       1  UNL1        0.0778
     87 H          19.4166  -10.0409   -8.1656 H       1  UNL1        0.0778
     88 H          22.5607   -8.1714   -8.9134 H       1  UNL1        0.0778
     89 H          22.7051   -7.4969   -7.2544 H       1  UNL1        0.0778
     90 H          22.9305   -9.2561   -7.5341 H       1  UNL1        0.0778
@<TRIPOS>UNITY_ATOM_ATTR
27 1
charge -1
32 1
charge 1
@<TRIPOS>BOND
     1     1    36    1
     2     1    37    1
     3     1    38    1
     4     2     1    1
     5     2    39    1
     6     2    40    1
     7     3     2    1
     8     3    41    1
     9     3    42    1
    10     4     3    1
    11     4    43    1
    12     4    44    1
    13     5     4    1
    14     5    45    1
    15     5    46    1
    16     6     5    1
    17     6    47    1
    18     6    48    1
    19     7     6    1
    20     7    49    1
    21     7    50    1
    22     8     7    1
    23     8    51    1
    24     8    52    1
    25     9     8    1
    26     9    53    1
    27     9    54    1
    28    10     9    1
    29    10    55    1
    30    10    56    1
    31    11    10    1
    32    11    57    1
    33    11    58    1
    34    12    11    1
    35    12    59    1
    36    12    60    1
    37    13    12    1
    38    15    14    1
    39    15    62    1
    40    16    15   am
    41    17    16    2
    42    18    16    1
    43    18    63    1
    44    18    64    1
    45    19    18    1
    46    19    65    1
    47    19    66    1
    48    20    19    1
    49    20    67    1
    50    20    68    1
    51    21    20    1
    52    21    69    1
    53    21    70    1
    54    22    21    1
    55    22    71    1
    56    22    72    1
    57    23    22    1
    58    23    73    1
    59    23    74    1
    60    24    23    1
    61    24    75    1
    62    24    76    1
    63    24    77    1
    64    25    14    1
    65    26    25    1
    66    27    26    1
    67    28    26    2
    68    29    26    1
    69    30    29    1
    70    30    78    1
    71    30    79    1
    72    31    30    1
    73    31    80    1
    74    31    81    1
    75    32    31    1
    76    33    32    1
    77    33    82    1
    78    33    83    1
    79    33    84    1
    80    34    32    1
    81    34    85    1
    82    34    86    1
    83    34    87    1
    84    35    32    1
    85    35    88    1
    86    35    89    1
    87    35    90    1
    88    14    61    1
    89    14    13    1
