@<TRIPOS>MOLECULE
mol_674_akc_aac375991
>655.sdf
 41 44 0 0 0
SMALL
GASTEIGER

@<TRIPOS>ATOM
      1 N          -1.3512   -3.6338   -2.8921 N.pl3   1  UNL1       -0.3580
      2 C          -2.0972   -2.8205   -2.0310 C.ar    1  UNL1        0.0247
      3 C          -3.1846   -3.3427   -1.3301 C.ar    1  UNL1       -0.0393
      4 C          -3.8698   -2.5683   -0.3844 C.ar    1  UNL1       -0.0388
      5 C          -3.4531   -1.2673   -0.0881 C.ar    1  UNL1        0.0315
      6 N          -4.0890   -0.4743    0.9053 N.pl3   1  UNL1       -0.3135
      7 C          -5.5075   -0.4651    1.1258 C.ar    1  UNL1        0.0499
      8 C          -6.0635   -1.2525    2.1664 C.ar    1  UNL1        0.0222
      9 C          -5.3016   -2.0357    3.0626 C.ar    1  UNL1       -0.0490
     10 C          -5.9152   -2.7515    4.0927 C.ar    1  UNL1       -0.0403
     11 C          -7.2999   -2.7438    4.2236 C.ar    1  UNL1        0.0266
     12 N          -7.9093   -3.3299    5.3388 N.pl3   1  UNL1       -0.3579
     13 C          -8.0413   -1.9361    3.3596 C.ar    1  UNL1       -0.0150
     14 C          -7.4583   -1.2069    2.3306 C.ar    1  UNL1        0.0752
     15 N          -8.2595   -0.4681    1.5527 N.ar    1  UNL1       -0.2465
     16 C          -7.7320    0.2916    0.5836 C.ar    1  UNL1        0.0752
     17 C          -8.5997    1.0763   -0.1666 C.ar    1  UNL1       -0.0150
     18 C          -8.1514    1.9699   -1.1413 C.ar    1  UNL1        0.0266
     19 N          -9.0664    2.6743   -1.9319 N.pl3   1  UNL1       -0.3579
     20 C          -6.7990    1.9725   -1.4591 C.ar    1  UNL1       -0.0403
     21 C          -5.9068    1.1770   -0.7376 C.ar    1  UNL1       -0.0490
     22 C          -6.3545    0.3381    0.3118 C.ar    1  UNL1        0.0222
     23 C          -2.2966   -0.7877   -0.7160 C.ar    1  UNL1       -0.0388
     24 C          -1.6270   -1.5566   -1.6754 C.ar    1  UNL1       -0.0393
     25 H          -0.8105   -3.1154   -3.5772 H       1  UNL1        0.1423
     26 H          -1.8928   -4.3796   -3.3178 H       1  UNL1        0.1423
     27 H          -3.5128   -4.3632   -1.5101 H       1  UNL1        0.0636
     28 H          -4.7175   -3.0093    0.1327 H       1  UNL1        0.0637
     29 H          -3.7730    0.4901    0.8225 H       1  UNL1        0.1522
     30 H          -4.2177   -2.0667    2.9743 H       1  UNL1        0.0625
     31 H          -5.2975   -3.3056    4.7946 H       1  UNL1        0.0636
     32 H          -8.8980   -3.5262    5.2134 H       1  UNL1        0.1423
     33 H          -7.4033   -4.1221    5.7200 H       1  UNL1        0.1423
     34 H          -9.1191   -1.8539    3.4919 H       1  UNL1        0.0657
     35 H          -9.6644    0.9969    0.0402 H       1  UNL1        0.0657
     36 H          -8.6855    3.5168   -2.3510 H       1  UNL1        0.1423
     37 H          -9.9566    2.8450   -1.4726 H       1  UNL1        0.1423
     38 H          -6.4245    2.5927   -2.2688 H       1  UNL1        0.0636
     39 H          -4.8564    1.2142   -1.0116 H       1  UNL1        0.0625
     40 H          -1.9006    0.1939   -0.4704 H       1  UNL1        0.0637
     41 H          -0.7291   -1.1579   -2.1395 H       1  UNL1        0.0636
@<TRIPOS>BOND
     1     1    25    1
     2     1    26    1
     3     2     1    1
     4     3     2   ar
     5     3    27    1
     6     4     3   ar
     7     4    28    1
     8     5     4   ar
     9     6     5    1
    10     6    29    1
    11     7     6    1
    12     8     7   ar
    13     9     8   ar
    14     9    30    1
    15    10     9   ar
    16    10    31    1
    17    11    10   ar
    18    12    11    1
    19    12    32    1
    20    12    33    1
    21    13    11   ar
    22    13    34    1
    23    14    13   ar
    24    14     8   ar
    25    15    14   ar
    26    16    15   ar
    27    17    16   ar
    28    17    35    1
    29    18    17   ar
    30    19    18    1
    31    19    36    1
    32    19    37    1
    33    20    18   ar
    34    20    38    1
    35    21    20   ar
    36    21    39    1
    37    22    21   ar
    38    22     7   ar
    39    22    16   ar
    40    23     5   ar
    41    23    40    1
    42    24    23   ar
    43    24     2   ar
    44    24    41    1
