@<TRIPOS>MOLECULE
mol_675_akc_aac375991
>656.sdf
 55 58 0 0 0
SMALL
GASTEIGER

@<TRIPOS>ATOM
      1 C           1.2485    1.2538   -5.2009 C.3     1  UNL1       -0.0653
      2 C           2.7687    1.2827   -5.2563 C.3     1  UNL1       -0.0559
      3 C           3.3833    1.5309   -3.8774 C.3     1  UNL1       -0.0533
      4 C           4.9157    1.5491   -3.9391 C.3     1  UNL1       -0.0517
      5 C           5.5280    1.8130   -2.5586 C.3     1  UNL1       -0.0375
      6 C           7.0623    1.7336   -2.5438 C.3     1  UNL1        0.0091
      7 N           7.6456    2.8406   -3.2947 N.pl3   1  UNL1       -0.3438
      8 C           9.0248    3.0724   -3.2420 C.ar    1  UNL1        0.0272
      9 C           9.9802    2.1122   -2.8947 C.ar    1  UNL1       -0.0391
     10 C          11.3631    2.3963   -2.9267 C.ar    1  UNL1       -0.0388
     11 C          11.8340    3.6339   -3.3601 C.ar    1  UNL1        0.0315
     12 N          13.1930    3.9784   -3.5085 N.pl3   1  UNL1       -0.3135
     13 C          14.4190    3.3345   -3.1681 C.ar    1  UNL1        0.0499
     14 C          14.8034    2.0796   -3.7207 C.ar    1  UNL1        0.0221
     15 C          14.0357    1.3148   -4.6368 C.ar    1  UNL1       -0.0508
     16 C          14.4863    0.0870   -5.1255 C.ar    1  UNL1       -0.0610
     17 C          15.7339   -0.3834   -4.7473 C.ar    1  UNL1       -0.0597
     18 C          16.5176    0.3791   -3.8850 C.ar    1  UNL1       -0.0357
     19 C          16.0777    1.5894   -3.3677 C.ar    1  UNL1        0.0735
     20 N          16.9256    2.2407   -2.5646 N.ar    1  UNL1       -0.2466
     21 C          16.5633    3.4137   -2.0375 C.ar    1  UNL1        0.0735
     22 C          17.4864    4.0540   -1.2194 C.ar    1  UNL1       -0.0357
     23 C          17.2070    5.2735   -0.6039 C.ar    1  UNL1       -0.0597
     24 C          15.9711    5.8668   -0.8026 C.ar    1  UNL1       -0.0610
     25 C          15.0329    5.2433   -1.6281 C.ar    1  UNL1       -0.0508
     26 C          15.3141    4.0112   -2.2791 C.ar    1  UNL1        0.0221
     27 C          10.8765    4.5779   -3.7593 C.ar    1  UNL1       -0.0388
     28 C           9.5034    4.3036   -3.7019 C.ar    1  UNL1       -0.0391
     29 H           0.8364    1.0815   -6.2005 H       1  UNL1        0.0230
     30 H           0.8934    0.4515   -4.5461 H       1  UNL1        0.0230
     31 H           0.8494    2.2030   -4.8295 H       1  UNL1        0.0230
     32 H           3.1296    0.3290   -5.6584 H       1  UNL1        0.0263
     33 H           3.0860    2.0690   -5.9510 H       1  UNL1        0.0263
     34 H           3.0185    2.4861   -3.4803 H       1  UNL1        0.0265
     35 H           3.0532    0.7470   -3.1845 H       1  UNL1        0.0265
     36 H           5.2744    0.5860   -4.3217 H       1  UNL1        0.0266
     37 H           5.2424    2.3215   -4.6451 H       1  UNL1        0.0266
     38 H           5.2015    2.7961   -2.1963 H       1  UNL1        0.0280
     39 H           5.1407    1.0691   -1.8512 H       1  UNL1        0.0280
     40 H           7.3935    1.7806   -1.5000 H       1  UNL1        0.0461
     41 H           7.3810    0.7740   -2.9654 H       1  UNL1        0.0461
     42 H           7.1205    3.7068   -3.1992 H       1  UNL1        0.1461
     43 H           9.6764    1.1144   -2.5934 H       1  UNL1        0.0637
     44 H          12.0554    1.6168   -2.6212 H       1  UNL1        0.0637
     45 H          13.3216    4.9808   -3.5999 H       1  UNL1        0.1522
     46 H          13.0709    1.6780   -4.9795 H       1  UNL1        0.0625
     47 H          13.8662   -0.4916   -5.8049 H       1  UNL1        0.0618
     48 H          16.1072   -1.3304   -5.1273 H       1  UNL1        0.0618
     49 H          17.5091    0.0229   -3.6110 H       1  UNL1        0.0639
     50 H          18.4561    3.5871   -1.0568 H       1  UNL1        0.0639
     51 H          17.9519    5.7463    0.0311 H       1  UNL1        0.0618
     52 H          15.7323    6.8095   -0.3165 H       1  UNL1        0.0618
     53 H          14.0658    5.7242   -1.7448 H       1  UNL1        0.0625
     54 H          11.1871    5.5506   -4.1318 H       1  UNL1        0.0637
     55 H           8.8071    5.0689   -4.0338 H       1  UNL1        0.0637
@<TRIPOS>BOND
     1     1    29    1
     2     1    30    1
     3     1    31    1
     4     2     1    1
     5     2    32    1
     6     2    33    1
     7     3     2    1
     8     3    34    1
     9     3    35    1
    10     4     3    1
    11     4    36    1
    12     4    37    1
    13     5     4    1
    14     5    38    1
    15     5    39    1
    16     6     5    1
    17     6    40    1
    18     6    41    1
    19     7     6    1
    20     7    42    1
    21     8     7    1
    22     9     8   ar
    23     9    43    1
    24    10     9   ar
    25    10    44    1
    26    11    10   ar
    27    12    11    1
    28    12    45    1
    29    13    12    1
    30    14    13   ar
    31    15    14   ar
    32    15    46    1
    33    16    15   ar
    34    16    47    1
    35    17    16   ar
    36    17    48    1
    37    18    17   ar
    38    18    49    1
    39    19    18   ar
    40    19    14   ar
    41    20    19   ar
    42    21    20   ar
    43    22    21   ar
    44    22    50    1
    45    23    22   ar
    46    23    51    1
    47    24    23   ar
    48    24    52    1
    49    25    24   ar
    50    25    53    1
    51    26    25   ar
    52    26    13   ar
    53    26    21   ar
    54    27    11   ar
    55    27    54    1
    56    28    27   ar
    57    28     8   ar
    58    28    55    1
