@<TRIPOS>MOLECULE
mol_677_akc_jac306827
>658.sdf
 50 52 0 0 0
SMALL
GASTEIGER

@<TRIPOS>ATOM
      1 C           2.0616    0.3351    1.6186 C.3     1  UNL1       -0.0598
      2 C           2.4004    0.1601    0.1254 C.3     1  UNL1       -0.0349
      3 C           1.1104    0.4061   -0.6910 C.3     1  UNL1       -0.0598
      4 C           3.4020    1.2687   -0.2654 C.3     1  UNL1       -0.0598
      5 C           2.9823   -1.2691   -0.2019 C.3     1  UNL1       -0.0361
      6 C           1.9872   -2.4043    0.1131 C.3     1  UNL1       -0.0495
      7 C           2.5309   -3.7860   -0.2329 C.3     1  UNL1       -0.0496
      8 C           3.8709   -4.0823    0.4518 C.3     1  UNL1       -0.0368
      9 C           4.8734   -2.9610    0.1443 C.3     1  UNL1       -0.0496
     10 C           4.3305   -1.5715    0.4871 C.3     1  UNL1       -0.0495
     11 C           4.4601   -5.4484    0.0220 C.3     1  UNL1       -0.0176
     12 C           3.5591   -6.6185    0.3474 C.2     1  UNL1        0.0453
     13 C           3.5626   -7.3402    1.4835 C.2     1  UNL1        0.1316
     14 C           2.6054   -8.4410    1.7351 C.ar    1  UNL1        0.0277
     15 C           2.7155   -9.2639    2.8665 C.ar    1  UNL1       -0.0504
     16 C           1.7766  -10.2688    3.1239 C.ar    1  UNL1       -0.0611
     17 C           0.7009  -10.4623    2.2597 C.ar    1  UNL1       -0.0610
     18 C           0.5710   -9.6590    1.1311 C.ar    1  UNL1       -0.0501
     19 C           1.5259   -8.6662    0.8725 C.ar    1  UNL1        0.0362
     20 C           1.3947   -7.8351   -0.3332 C.2     1  UNL1        0.2334
     21 O           0.3669   -7.8026   -0.9884 O.2     1  UNL1       -0.2832
     22 C           2.6035   -7.0113   -0.7321 C.2     1  UNL1        0.2325
     23 O           2.7617   -6.6798   -1.8967 O.2     1  UNL1       -0.2834
     24 O           4.4341   -7.1046    2.5285 O.2     1  UNL1       -0.5058
     25 H           1.6336    1.3270    1.8070 H       1  UNL1        0.0235
     26 H           1.3228   -0.3957    1.9604 H       1  UNL1        0.0235
     27 H           2.9506    0.2436    2.2499 H       1  UNL1        0.0235
     28 H           0.7376    1.4264   -0.5456 H       1  UNL1        0.0235
     29 H           1.2906    0.2685   -1.7629 H       1  UNL1        0.0235
     30 H           0.3011   -0.2675   -0.3938 H       1  UNL1        0.0235
     31 H           4.3505    1.1775    0.2715 H       1  UNL1        0.0235
     32 H           3.6139    1.2520   -1.3400 H       1  UNL1        0.0235
     33 H           3.0018    2.2609   -0.0231 H       1  UNL1        0.0235
     34 H           3.1686   -1.2971   -1.2862 H       1  UNL1        0.0306
     35 H           1.7219   -2.3957    1.1758 H       1  UNL1        0.0268
     36 H           1.0588   -2.2705   -0.4510 H       1  UNL1        0.0268
     37 H           1.7778   -4.5211    0.0726 H       1  UNL1        0.0268
     38 H           2.6396   -3.8677   -1.3211 H       1  UNL1        0.0268
     39 H           3.7054   -4.1009    1.5382 H       1  UNL1        0.0304
     40 H           5.7982   -3.1285    0.7103 H       1  UNL1        0.0268
     41 H           5.1459   -2.9862   -0.9184 H       1  UNL1        0.0268
     42 H           5.0874   -0.8410    0.1828 H       1  UNL1        0.0268
     43 H           4.2276   -1.4943    1.5750 H       1  UNL1        0.0268
     44 H           4.6867   -5.4292   -1.0512 H       1  UNL1        0.0318
     45 H           5.4376   -5.5841    0.5012 H       1  UNL1        0.0318
     46 H           3.5359   -9.1283    3.5691 H       1  UNL1        0.0625
     47 H           1.8822  -10.8937    4.0074 H       1  UNL1        0.0618
     48 H          -0.0329  -11.2380    2.4651 H       1  UNL1        0.0618
     49 H          -0.2687   -9.8073    0.4531 H       1  UNL1        0.0625
     50 H           5.0828   -6.4255    2.2847 H       1  UNL1        0.2922
@<TRIPOS>BOND
     1     1    25    1
     2     1    26    1
     3     1    27    1
     4     2     1    1
     5     3     2    1
     6     3    28    1
     7     3    29    1
     8     3    30    1
     9     4     2    1
    10     4    31    1
    11     4    32    1
    12     4    33    1
    13     5     2    1
    14     5    34    1
    15     6     5    1
    16     6    35    1
    17     6    36    1
    18     7     6    1
    19     7    37    1
    20     7    38    1
    21     8     7    1
    22     8    39    1
    23     9     8    1
    24     9    40    1
    25     9    41    1
    26    10     9    1
    27    10     5    1
    28    10    42    1
    29    10    43    1
    30    11     8    1
    31    11    44    1
    32    11    45    1
    33    12    11    1
    34    13    12    2
    35    14    13    1
    36    15    14   ar
    37    15    46    1
    38    16    15   ar
    39    16    47    1
    40    17    16   ar
    41    17    48    1
    42    18    17   ar
    43    18    49    1
    44    19    18   ar
    45    19    14   ar
    46    20    19    1
    47    21    20    2
    48    22    20    1
    49    22    12    1
    50    23    22    2
    51    24    13    1
    52    24    50    1
