@<TRIPOS>MOLECULE
mol_678_akc_1306154
>659.sdf
 46 49 0 0 0
SMALL
GASTEIGER

@<TRIPOS>ATOM
      1 C           0.6623    0.0661   -1.5126 C.ar    1  UNL1       -0.0514
      2 C          -0.2689   -0.9544   -1.2869 C.ar    1  UNL1        0.0159
      3 C          -0.8702   -1.0731   -0.0294 C.ar    1  UNL1        0.2732
      4 C          -0.5475   -0.1827    1.0033 C.ar    1  UNL1        0.0159
      5 C           0.3816    0.8354    0.7649 C.ar    1  UNL1       -0.0514
      6 C           0.9864    0.9781   -0.4932 C.ar    1  UNL1       -0.0368
      7 C           2.0040    2.0751   -0.7347 C.3     1  UNL1        0.0249
      8 S           3.6755    1.5239   -0.2817 S.3     1  UNL1       -0.0990
      9 C           4.6195    2.9566   -0.7122 C.ar    1  UNL1        0.1279
     10 N           4.0825    4.1998   -0.6308 N.ar    1  UNL1       -0.2269
     11 C           4.8874    5.2469   -0.9153 C.ar    1  UNL1        0.1196
     12 N           6.1821    5.2323   -1.2905 N.ar    1  UNL1       -0.2160
     13 C           6.6585    3.9775   -1.3525 C.ar    1  UNL1        0.1666
     14 C           5.9597    2.8052   -1.0902 C.ar    1  UNL1        0.1397
     15 N           6.7748    1.7072   -1.2696 N.ar    1  UNL1       -0.2313
     16 C           7.9389    2.2027   -1.6283 C.ar    1  UNL1        0.1004
     17 N           7.9282    3.5723   -1.6729 N.ar    1  UNL1       -0.2855
     18 C1*         9.0569    4.4306   -1.9892 C.3     1  UNL1        0.1667
     19 C2*         9.9770    4.6978   -0.7921 C.3     1  UNL1        0.1285
     20 C3*        11.3305    4.8644   -1.4674 C.3     1  UNL1        0.1135
     21 C4*        11.2565    3.8982   -2.6473 C.3     1  UNL1        0.1126
     22 O4*         9.8607    3.7808   -3.0091 O.3     1  UNL1       -0.3457
     23 C5*        11.8232    2.5092   -2.3200 C.3     1  UNL1        0.0730
     24 O5*        11.2856    2.0085   -1.1014 O.3     1  UNL1       -0.3924
     25 O3*        11.4365    6.2276   -1.9316 O.3     1  UNL1       -0.3864
     26 O2*         9.6305    5.8518   -0.0249 O.3     1  UNL1       -0.3847
     27 N          -1.8514   -2.1421    0.2163 N.pl3   1  UNL1        0.0796
     28 O          -2.1317   -2.8881   -0.7326 O.2     1  UNL1        0.0414
     29 O          -2.3452   -2.2249    1.3495 O.co2   1  UNL1       -0.5760
     30 H           1.1373    0.1445   -2.4888 H       1  UNL1        0.0623
     31 H          -0.5001   -1.6476   -2.0926 H       1  UNL1        0.0685
     32 H          -0.9992   -0.2673    1.9872 H       1  UNL1        0.0685
     33 H           0.6379    1.5183    1.5753 H       1  UNL1        0.0623
     34 H           1.9849    2.3672   -1.7907 H       1  UNL1        0.0429
     35 H           1.7242    2.9583   -0.1497 H       1  UNL1        0.0429
     36 H           4.4334    6.2309   -0.8282 H       1  UNL1        0.1048
     37 H           8.8187    1.6193   -1.8637 H       1  UNL1        0.1030
     38 H1*         8.6621    5.3568   -2.4225 H       1  UNL1        0.0866
     39 H2*         9.9868    3.8458   -0.1079 H       1  UNL1        0.0665
     40 H3*        12.1719    4.6931   -0.7915 H       1  UNL1        0.0647
     41 H4*        11.7764    4.2903   -3.5285 H       1  UNL1        0.0647
     42 H5*1       11.5780    1.7988   -3.1153 H       1  UNL1        0.0584
     43 H5*2       12.9105    2.5650   -2.2063 H       1  UNL1        0.0584
     44 H5*        11.5976    1.0905   -0.9992 H       1  UNL1        0.2095
     45 H3*        12.2626    6.3077   -2.4364 H       1  UNL1        0.2100
     46 H2*        10.2366    6.5634   -0.3165 H       1  UNL1        0.2101
@<TRIPOS>UNITY_ATOM_ATTR
27 1
charge 1
29 1
charge -1
@<TRIPOS>BOND
     1     1    30    1
     2     2     1   ar
     3     2    31    1
     4     3     2   ar
     5     4     3   ar
     6     4    32    1
     7     5     4   ar
     8     5    33    1
     9     6     5   ar
    10     6     1   ar
    11     7     6    1
    12     7    34    1
    13     7    35    1
    14     8     7    1
    15     9     8    1
    16    10     9   ar
    17    11    10   ar
    18    11    36    1
    19    12    11   ar
    20    13    12   ar
    21    14    13   ar
    22    14     9   ar
    23    15    14   ar
    24    16    15   ar
    25    16    37    1
    26    17    16   ar
    27    17    13   ar
    28    18    17    1
    29    18    38    1
    30    19    18    1
    31    19    39    1
    32    20    19    1
    33    20    40    1
    34    21    20    1
    35    21    41    1
    36    22    21    1
    37    22    18    1
    38    23    21    1
    39    23    42    1
    40    23    43    1
    41    24    23    1
    42    24    44    1
    43    25    20    1
    44    25    45    1
    45    26    19    1
    46    26    46    1
    47    27     3    1
    48    28    27    2
    49    29    27    1
