@<TRIPOS>MOLECULE
mol_679_akc_3283487
>660.sdf
 69 73 0 0 0
SMALL
GASTEIGER

@<TRIPOS>ATOM
      1 C           1.2138    2.0678   -0.4569 C.3     1  UNL1        0.0788
      2 O           0.4603    0.8594   -0.4911 O.3     1  UNL1       -0.4944
      3 C           1.1102   -0.2748   -0.0758 C.ar    1  UNL1        0.1316
      4 C           2.0870   -0.2469    0.9330 C.ar    1  UNL1       -0.0192
      5 C           2.6734   -1.4246    1.3978 C.ar    1  UNL1       -0.0576
      6 C           2.2584   -2.6451    0.8834 C.ar    1  UNL1       -0.0500
      7 C           1.2625   -2.6840   -0.1028 C.ar    1  UNL1        0.0367
      8 C           0.7019   -1.5120   -0.6133 C.ar    1  UNL1        0.0748
      9 C          -0.2517   -1.6289   -1.7584 C.2     1  UNL1        0.2016
     10 O          -0.3981   -0.6964   -2.5440 O.2     1  UNL1       -0.2864
     11 C          -0.9349   -2.9338   -2.0144 C.ar    1  UNL1        0.0784
     12 C          -2.0443   -3.0643   -2.8888 C.ar    1  UNL1        0.1345
     13 O          -2.5963   -1.9427   -3.4460 O.3     1  UNL1       -0.5057
     14 C          -2.6403   -4.3209   -3.1690 C.ar    1  UNL1        0.0302
     15 C          -2.1363   -5.4510   -2.4818 C.ar    1  UNL1        0.0070
     16 C          -2.8008   -6.8112   -2.6002 C.3     1  UNL1        0.0123
     17 C          -3.4682   -6.9861   -3.9638 C.3     1  UNL1        0.1325
     18 O          -2.4975   -6.9618   -5.0227 O.3     1  UNL1       -0.3806
     19 C          -4.4675   -5.8366   -4.1266 C.3     1  UNL1        0.0141
     20 C          -3.7707   -4.4743   -4.2098 C.3     1  UNL1        0.0934
     21 O          -3.2068   -4.2395   -5.5190 O.3     1  UNL1       -0.3431
     22 C          -4.1351   -3.9374   -6.5706 C.3     1  UNL1        0.1655
     23 C          -3.3091   -3.4466   -7.7537 C.3     1  UNL1        0.0439
     24 C          -4.1906   -3.0461   -8.9170 C.3     1  UNL1        0.0093
     25 N          -4.9552   -1.7820   -8.6385 N.4     1  UNL1        0.2228
     26 C          -5.1983   -4.1303   -9.3090 C.3     1  UNL1        0.1234
     27 O          -6.1416   -3.5076  -10.1963 O.3     1  UNL1       -0.3836
     28 C          -5.8588   -4.7888   -8.0737 C.3     1  UNL1        0.0900
     29 C          -7.0997   -4.0834   -7.5189 C.3     1  UNL1       -0.0359
     30 O          -4.9027   -5.0454   -7.0293 O.3     1  UNL1       -0.3454
     31 C          -4.1714   -8.3494   -4.0645 C.2     1  UNL1        0.1900
     32 O          -5.3852   -8.4462   -4.2777 O.2     1  UNL1       -0.2919
     33 C          -3.3039   -9.5932   -3.9039 C.3     1  UNL1        0.1051
     34 O          -3.2056   -9.9749   -2.5452 O.3     1  UNL1       -0.3874
     35 C          -1.0181   -5.3185   -1.6385 C.ar    1  UNL1        0.1322
     36 O          -0.5389   -6.4673   -1.0601 O.3     1  UNL1       -0.5057
     37 C          -0.4104   -4.0691   -1.4215 C.ar    1  UNL1        0.0782
     38 C           0.7926   -3.9932   -0.5732 C.2     1  UNL1        0.1982
     39 O           1.3703   -5.0222   -0.2426 O.2     1  UNL1       -0.2865
     40 H           1.4221    2.3884    0.5685 H       1  UNL1        0.0660
     41 H           2.1394    1.9695   -1.0340 H       1  UNL1        0.0660
     42 H           0.6065    2.8515   -0.9196 H       1  UNL1        0.0660
     43 H           2.4005    0.6834    1.3988 H       1  UNL1        0.0654
     44 H           3.4327   -1.3867    2.1766 H       1  UNL1        0.0619
     45 H           2.7034   -3.5637    1.2630 H       1  UNL1        0.0625
     46 H          -2.9067   -2.1612   -4.3325 H       1  UNL1        0.2922
     47 H          -3.5414   -6.8992   -1.7912 H       1  UNL1        0.0347
     48 H          -2.0608   -7.6032   -2.4516 H       1  UNL1        0.0347
     49 H          -1.6348   -6.7072   -4.6483 H       1  UNL1        0.2108
     50 H          -5.0951   -6.0124   -4.9999 H       1  UNL1        0.0326
     51 H          -5.1527   -5.8306   -3.2670 H       1  UNL1        0.0326
     52 H          -4.5176   -3.6951   -4.0111 H       1  UNL1        0.0649
     53 H          -4.7900   -3.1382   -6.2116 H       1  UNL1        0.0912
     54 H          -2.6327   -2.6371   -7.4638 H       1  UNL1        0.0370
     55 H          -2.6655   -4.2735   -8.0937 H       1  UNL1        0.0370
     56 H          -3.5786   -2.7946   -9.7908 H       1  UNL1        0.0878
     57 H          -5.5573   -1.6136   -9.4648 H       1  UNL1        0.1998
     58 H          -5.6159   -1.8455   -7.8562 H       1  UNL1        0.1998
     59 H          -4.3552   -0.9572   -8.5101 H       1  UNL1        0.1998
     60 H          -4.6658   -4.9131   -9.8658 H       1  UNL1        0.0676
     61 H          -5.9878   -3.8544  -11.1002 H       1  UNL1        0.2102
     62 H          -6.2115   -5.7727   -8.4107 H       1  UNL1        0.0622
     63 H          -7.7723   -4.8301   -7.0793 H       1  UNL1        0.0255
     64 H          -6.8674   -3.3828   -6.7141 H       1  UNL1        0.0255
     65 H          -7.6706   -3.5586   -8.2896 H       1  UNL1        0.0255
     66 H          -3.7503  -10.4061   -4.4854 H       1  UNL1        0.0637
     67 H          -2.2999   -9.4093   -4.2969 H       1  UNL1        0.0637
     68 H          -2.7860  -10.8533   -2.5230 H       1  UNL1        0.2100
     69 H           0.3127   -6.2692   -0.6042 H       1  UNL1        0.2922
@<TRIPOS>UNITY_ATOM_ATTR
25 1
charge 1
@<TRIPOS>BOND
     1     1    40    1
     2     1    41    1
     3     1    42    1
     4     2     1    1
     5     3     2    1
     6     4     3   ar
     7     4    43    1
     8     5     4   ar
     9     5    44    1
    10     6     5   ar
    11     6    45    1
    12     7     6   ar
    13     8     7   ar
    14     8     3   ar
    15     9     8    1
    16    10     9    2
    17    11     9    1
    18    12    11   ar
    19    13    12    1
    20    13    46    1
    21    14    12   ar
    22    15    14   ar
    23    16    15    1
    24    16    47    1
    25    16    48    1
    26    17    16    1
    27    18    49    1
    28    19    17    1
    29    19    50    1
    30    19    51    1
    31    20    19    1
    32    20    14    1
    33    23    22    1
    34    23    54    1
    35    23    55    1
    36    24    23    1
    37    25    57    1
    38    25    58    1
    39    25    59    1
    40    26    24    1
    41    27    61    1
    42    28    26    1
    43    29    63    1
    44    29    64    1
    45    29    65    1
    46    30    28    1
    47    30    22    1
    48    32    31    2
    49    33    31    1
    50    33    66    1
    51    33    67    1
    52    34    33    1
    53    34    68    1
    54    35    15   ar
    55    36    35    1
    56    36    69    1
    57    37    35   ar
    58    37    11   ar
    59    38    37    1
    60    38     7    1
    61    39    38    2
    62    17    31    1
    63    17    18    1
    64    20    21    1
    65    20    52    1
    66    22    53    1
    67    22    21    1
    68    24    25    1
    69    24    56    1
    70    26    27    1
    71    26    60    1
    72    28    29    1
    73    28    62    1
