@<TRIPOS>MOLECULE
mol_67_akc_ardp201900241
>66.sdf
 39 41 0 0 0
SMALL
GASTEIGER

@<TRIPOS>ATOM
      1 C           1.1181    0.3558   -0.5183 C.3     1  UNL1        0.0790
      2 O           2.4086    0.0440   -0.0061 O.3     1  UNL1       -0.4913
      3 C           3.1237   -0.9385   -0.6416 C.ar    1  UNL1        0.1658
      4 C           2.8549   -1.3283   -1.9630 C.ar    1  UNL1       -0.0053
      5 C           3.6514   -2.2738   -2.6234 C.ar    1  UNL1        0.0271
      6 C           4.7212   -2.8527   -1.9330 C.ar    1  UNL1       -0.0053
      7 C           5.0262   -2.4577   -0.6278 C.ar    1  UNL1        0.1658
      8 O           6.0769   -2.9922    0.0811 O.3     1  UNL1       -0.4913
      9 C           7.2129   -3.3703   -0.6894 C.3     1  UNL1        0.0790
     10 C           4.2204   -1.5085    0.0335 C.ar    1  UNL1        0.2035
     11 O           4.6544   -1.1681    1.2937 O.3     1  UNL1       -0.4885
     12 C           3.6699   -0.7830    2.2418 C.3     1  UNL1        0.0791
     13 C           3.4295   -2.6020   -4.0246 C.ar    1  UNL1        0.1681
     14 C           4.2150   -3.1422   -5.0145 C.ar    1  UNL1        0.0161
     15 C           3.3969   -3.1310   -6.1605 C.ar    1  UNL1        0.1489
     16 N           2.1825   -2.6361   -5.8983 N.ar    1  UNL1       -0.0745
     17 O           2.2045   -2.3068   -4.5499 O.2     1  UNL1       -0.3540
     18 C           3.8217   -3.6052   -7.5037 C.ar    1  UNL1        0.1592
     19 C           3.0739   -3.5752   -8.6688 C.ar    1  UNL1       -0.0118
     20 C           3.8756   -4.1486   -9.6913 C.ar    1  UNL1        0.0086
     21 C           5.0581   -4.4846   -9.0770 C.ar    1  UNL1        0.2803
     22 O           5.0501   -4.1554   -7.7612 O.2     1  UNL1       -0.4323
     23 N           6.2456   -5.1103   -9.5650 N.pl3   1  UNL1        0.0926
     24 O           6.2224   -5.4813  -10.7468 O.2     1  UNL1       -0.1231
     25 O           7.1958   -5.2365   -8.7833 O.2     1  UNL1       -0.1231
     26 H           1.1894    0.8736   -1.4799 H       1  UNL1        0.0660
     27 H           0.4939   -0.5409   -0.5943 H       1  UNL1        0.0660
     28 H           0.6365    1.0399    0.1868 H       1  UNL1        0.0660
     29 H           2.0455   -0.8642   -2.5188 H       1  UNL1        0.0662
     30 H           5.3169   -3.6172   -2.4212 H       1  UNL1        0.0662
     31 H           7.0493   -4.3410   -1.1682 H       1  UNL1        0.0660
     32 H           7.4742   -2.6073   -1.4316 H       1  UNL1        0.0660
     33 H           8.0617   -3.4755   -0.0068 H       1  UNL1        0.0660
     34 H           3.4469    0.2842    2.1535 H       1  UNL1        0.0660
     35 H           2.7630   -1.3930    2.1709 H       1  UNL1        0.0660
     36 H           4.0937   -0.9393    3.2386 H       1  UNL1        0.0660
     37 H           5.2415   -3.4656   -4.9372 H       1  UNL1        0.0679
     38 H           2.0670   -3.1882   -8.7617 H       1  UNL1        0.0657
     39 H           3.6209   -4.3008  -10.7309 H       1  UNL1        0.0673
@<TRIPOS>BOND
     1     1    26    1
     2     1    27    1
     3     1    28    1
     4     2     1    1
     5     3     2    1
     6     4     3   ar
     7     4    29    1
     8     5     4   ar
     9     6     5   ar
    10     6    30    1
    11     7     6   ar
    12     8     7    1
    13     9     8    1
    14     9    31    1
    15     9    32    1
    16     9    33    1
    17    10     7   ar
    18    10     3   ar
    19    11    10    1
    20    12    11    1
    21    12    34    1
    22    12    35    1
    23    12    36    1
    24    13     5    1
    25    14    13   ar
    26    14    37    1
    27    15    14   ar
    28    16    15   ar
    29    17    16   ar
    30    17    13   ar
    31    18    15    1
    32    19    18   ar
    33    19    38    1
    34    20    19   ar
    35    20    39    1
    36    21    20   ar
    37    22    21   ar
    38    22    18   ar
    39    23    21    1
    40    24    23    2
    41    25    23    2
