@<TRIPOS>MOLECULE
mol_681_akc_0006_291x9092109_d
>662.sdf
 18 18 0 0 0
SMALL
GASTEIGER

@<TRIPOS>ATOM
      1 C          -2.2467   -0.0418    0.9102 C.3     1  UNL1        0.0491
      2 C          -1.2264   -0.0364   -0.2185 C.3     1  UNL1        0.1818
      3 O          -0.5366    1.2271   -0.0586 O.2     1  UNL1       -0.3830
      4 N          -1.4503    2.1373    0.5322 N.2     1  UNL1       -0.0767
      5 C          -2.3584    1.4158    1.1018 C.2     1  UNL1        0.1490
      6 CL         -3.6466    2.0916    1.9593 Cl      1  UNL1       -0.0633
      7 CA         -1.7395   -0.0758   -1.6648 C.3     1  UNL1        0.0566
      8 C          -2.5812   -1.3540   -1.7961 C.2     1  UNL1        0.0931
      9 O          -3.8158   -1.0503   -1.8770 O.co2   1  UNL1       -0.5441
     10 OXT        -1.9710   -2.4417   -1.7816 O.co2   1  UNL1       -0.5441
     11 N          -2.5784    1.1538   -1.9886 N.4     1  UNL1        0.2277
     12 H          -3.2014   -0.5159    0.6797 H       1  UNL1        0.0377
     13 H          -1.8324   -0.4759    1.8253 H       1  UNL1        0.0377
     14 H          -0.5007   -0.8436   -0.0644 H       1  UNL1        0.0826
     15 HA         -0.9094   -0.0530   -2.3779 H       1  UNL1        0.0953
     16 H1         -3.5451    0.8573   -1.7350 H       1  UNL1        0.2002
     17 H2         -2.2661    1.9964   -1.4904 H       1  UNL1        0.2002
     18 H3         -2.6182    1.2948   -3.0013 H       1  UNL1        0.2002
@<TRIPOS>UNITY_ATOM_ATTR
10 1
charge -1
11 1
charge 1
@<TRIPOS>BOND
     1     1    12    1
     2     1    13    1
     3     2     1    1
     4     2    14    1
     5     3     2    1
     6     4     3    1
     7     5     4    2
     8     5     1    1
     9     6     5    1
    10     7     2    1
    11     7    15    1
    12     8     7    1
    13     9     8   ar
    14    10     8   ar
    15    11     7    1
    16    11    16    1
    17    11    17    1
    18    11    18    1
