@<TRIPOS>MOLECULE
mol_682_akc_s0031182000061205
>663.sdf
 39 38 0 0 0
SMALL
GASTEIGER

@<TRIPOS>ATOM
      1 C           1.0260   -1.5424    1.0765 C.3     1  UNL1        0.0817
      2 O           2.4407   -1.5433    0.8719 O.3     1  UNL1       -0.4666
      3 C           3.0915   -0.4573    1.3631 C.2     1  UNL1        0.3276
      4 O           2.5787    0.4713    1.9829 O.2     1  UNL1       -0.2487
      5 C           4.5872   -0.5216    1.0332 C.3     1  UNL1        0.1228
      6 N           5.1280    0.8528    1.0402 N.am    1  UNL1       -0.2975
      7 C           5.1285    1.5980   -0.1083 C.2     1  UNL1        0.2621
      8 O           4.7554    1.1750   -1.2046 O.2     1  UNL1       -0.2696
      9 C           5.7623    3.0001   -0.0370 C.3     1  UNL1        0.0555
     10 N           6.1882    3.3738   -1.4325 N.4     1  UNL1        0.2275
     11 C           4.8472    4.0771    0.5737 C.3     1  UNL1        0.0050
     12 C           5.5878    5.4092    0.7379 C.3     1  UNL1       -0.0571
     13 C           3.5544    4.3062   -0.2173 C.3     1  UNL1       -0.0571
     14 C           5.3601   -1.4613    1.9829 C.3     1  UNL1       -0.0179
     15 C           6.8321   -1.5652    1.5632 C.3     1  UNL1       -0.0605
     16 C           5.2715   -1.0593    3.4576 C.3     1  UNL1       -0.0605
     17 H           0.8045   -1.8551    2.1009 H       1  UNL1        0.0661
     18 H           0.5882   -0.5606    0.8687 H       1  UNL1        0.0661
     19 H           0.5836   -2.2646    0.3847 H       1  UNL1        0.0661
     20 H           4.6717   -0.9051    0.0081 H       1  UNL1        0.0617
     21 H           5.0622    1.3320    1.9339 H       1  UNL1        0.1497
     22 H           6.6947    2.9188    0.5362 H       1  UNL1        0.0951
     23 H           5.3684    3.3526   -2.0554 H       1  UNL1        0.2002
     24 H           6.6643    4.2776   -1.5104 H       1  UNL1        0.2002
     25 H           6.8047    2.6390   -1.8069 H       1  UNL1        0.2002
     26 H           4.5550    3.7411    1.5773 H       1  UNL1        0.0355
     27 H           5.8539    5.8518   -0.2284 H       1  UNL1        0.0234
     28 H           4.9638    6.1376    1.2680 H       1  UNL1        0.0234
     29 H           6.5080    5.2766    1.3164 H       1  UNL1        0.0234
     30 H           3.7532    4.6548   -1.2355 H       1  UNL1        0.0234
     31 H           2.9596    3.3897   -0.2769 H       1  UNL1        0.0234
     32 H           2.9360    5.0669    0.2727 H       1  UNL1        0.0234
     33 H           4.9211   -2.4641    1.8956 H       1  UNL1        0.0319
     34 H           7.3507   -0.6063    1.6666 H       1  UNL1        0.0233
     35 H           7.3617   -2.2959    2.1831 H       1  UNL1        0.0233
     36 H           6.9178   -1.8883    0.5206 H       1  UNL1        0.0233
     37 H           5.6965   -0.0668    3.6362 H       1  UNL1        0.0233
     38 H           4.2339   -1.0569    3.8067 H       1  UNL1        0.0233
     39 H           5.8224   -1.7721    4.0820 H       1  UNL1        0.0233
@<TRIPOS>UNITY_ATOM_ATTR
10 1
charge 1
@<TRIPOS>BOND
     1     1    17    1
     2     1    18    1
     3     1    19    1
     4     2     1    1
     5     3     2    1
     6     4     3    2
     7     5     3    1
     8     5    20    1
     9     6     5    1
    10     6    21    1
    11     7     6   am
    12     8     7    2
    13     9     7    1
    14     9    22    1
    15    10     9    1
    16    10    23    1
    17    10    24    1
    18    10    25    1
    19    11     9    1
    20    11    26    1
    21    12    11    1
    22    12    27    1
    23    12    28    1
    24    12    29    1
    25    13    11    1
    26    13    30    1
    27    13    31    1
    28    13    32    1
    29    14     5    1
    30    14    33    1
    31    15    14    1
    32    15    34    1
    33    15    35    1
    34    15    36    1
    35    16    14    1
    36    16    37    1
    37    16    38    1
    38    16    39    1
