@<TRIPOS>MOLECULE
mol_683_akc_0166_68518890147_8
>664.sdf
 52 53 0 0 0
SMALL
GASTEIGER

@<TRIPOS>ATOM
      1 C           0.5050   -1.1763   -2.5353 C.3     1  UNL1       -0.0653
      2 C           2.0066   -1.3016   -2.7349 C.3     1  UNL1       -0.0559
      3 C           2.6446    0.0596   -3.0060 C.3     1  UNL1       -0.0533
      4 C           4.1559   -0.0615   -3.2059 C.3     1  UNL1       -0.0531
      5 C           4.7837    1.3058   -3.4786 C.3     1  UNL1       -0.0530
      6 C           6.2908    1.1831   -3.6729 C.3     1  UNL1       -0.0500
      7 C           6.9417    2.5376   -3.9478 C.3     1  UNL1       -0.0186
      8 C           8.4466    2.3748   -4.1280 C.3     1  UNL1        0.0896
      9 O           9.0316    3.6493   -4.3953 O.3     1  UNL1       -0.4920
     10 C          10.3777    3.6385   -4.6615 C.ar    1  UNL1        0.1208
     11 C          11.2195    2.5371   -4.5183 C.ar    1  UNL1       -0.0199
     12 C          12.5759    2.6413   -4.8277 C.ar    1  UNL1       -0.0580
     13 C          13.0912    3.8453   -5.3064 C.ar    1  UNL1       -0.0580
     14 C          12.2631    4.9618   -5.4746 C.ar    1  UNL1       -0.0395
     15 C          12.8105    6.2534   -6.0505 C.3     1  UNL1        0.0024
     16 C          13.4161    7.1717   -5.0318 C.ar    1  UNL1        0.0146
     17 C          14.7634    7.2229   -4.7232 C.ar    1  UNL1        0.1247
     18 N          15.7182    6.5057   -5.4435 N.pl3   1  UNL1       -0.3428
     19 N          15.2626    8.0125   -3.7593 N.ar    1  UNL1       -0.1999
     20 C          14.3973    8.7656   -3.0791 C.ar    1  UNL1        0.2142
     21 N          14.8907    9.5304   -2.0429 N.pl3   1  UNL1       -0.3274
     22 N          13.0925    8.8535   -3.3388 N.ar    1  UNL1       -0.2227
     23 C          12.6300    8.0428   -4.3075 C.ar    1  UNL1        0.0379
     24 C          10.9066    4.8517   -5.1195 C.ar    1  UNL1       -0.0164
     25 H           0.0647   -2.1587   -2.3412 H       1  UNL1        0.0230
     26 H           0.2760   -0.5260   -1.6851 H       1  UNL1        0.0230
     27 H           0.0258   -0.7581   -3.4264 H       1  UNL1        0.0230
     28 H           2.4535   -1.7517   -1.8405 H       1  UNL1        0.0263
     29 H           2.2045   -1.9799   -3.5730 H       1  UNL1        0.0263
     30 H           2.1911    0.5064   -3.8995 H       1  UNL1        0.0265
     31 H           2.4384    0.7358   -2.1669 H       1  UNL1        0.0265
     32 H           4.6100   -0.5045   -2.3116 H       1  UNL1        0.0265
     33 H           4.3631   -0.7367   -4.0435 H       1  UNL1        0.0265
     34 H           4.3309    1.7486   -4.3742 H       1  UNL1        0.0265
     35 H           4.5738    1.9831   -2.6407 H       1  UNL1        0.0265
     36 H           6.7404    0.7367   -2.7767 H       1  UNL1        0.0266
     37 H           6.4979    0.5013   -4.5082 H       1  UNL1        0.0266
     38 H           6.5107    2.9970   -4.8469 H       1  UNL1        0.0298
     39 H           6.7449    3.2338   -3.1240 H       1  UNL1        0.0298
     40 H           8.8683    1.9569   -3.2058 H       1  UNL1        0.0696
     41 H           8.6332    1.6940   -4.9690 H       1  UNL1        0.0696
     42 H          10.8581    1.5746   -4.1676 H       1  UNL1        0.0654
     43 H          13.2244    1.7802   -4.7078 H       1  UNL1        0.0619
     44 H          14.1448    3.8867   -5.5601 H       1  UNL1        0.0620
     45 H          13.5346    6.0130   -6.8390 H       1  UNL1        0.0363
     46 H          12.0058    6.7801   -6.5812 H       1  UNL1        0.0363
     47 H          16.6150    6.6769   -4.9973 H       1  UNL1        0.1437
     48 H          15.5089    5.5174   -5.4824 H       1  UNL1        0.1437
     49 H          15.8785    9.6963   -2.1753 H       1  UNL1        0.1452
     50 H          14.2934   10.3286   -1.8909 H       1  UNL1        0.1452
     51 H          11.5602    8.1236   -4.4882 H       1  UNL1        0.0834
     52 H          10.2412    5.7050   -5.2217 H       1  UNL1        0.0657
@<TRIPOS>BOND
     1     1    25    1
     2     1    26    1
     3     1    27    1
     4     2     1    1
     5     2    28    1
     6     2    29    1
     7     3     2    1
     8     3    30    1
     9     3    31    1
    10     4     3    1
    11     4    32    1
    12     4    33    1
    13     5     4    1
    14     5    34    1
    15     5    35    1
    16     6     5    1
    17     6    36    1
    18     6    37    1
    19     7     6    1
    20     7    38    1
    21     7    39    1
    22     8     7    1
    23     8    40    1
    24     8    41    1
    25     9     8    1
    26    10     9    1
    27    11    10   ar
    28    11    42    1
    29    12    11   ar
    30    12    43    1
    31    13    12   ar
    32    13    44    1
    33    14    13   ar
    34    15    14    1
    35    15    45    1
    36    15    46    1
    37    16    15    1
    38    17    16   ar
    39    18    17    1
    40    18    47    1
    41    18    48    1
    42    19    17   ar
    43    20    19   ar
    44    21    20    1
    45    21    49    1
    46    21    50    1
    47    22    20   ar
    48    23    22   ar
    49    23    16   ar
    50    23    51    1
    51    24    14   ar
    52    24    10   ar
    53    24    52    1
