@<TRIPOS>MOLECULE
mol_685_akc_0035_92038590255_x
>666.sdf
 31 33 0 0 0
SMALL
GASTEIGER

@<TRIPOS>ATOM
      1 O5*         1.6688   -1.1958    0.5829 O.3     1  UNL1       -0.3924
      2 C5*         2.2738   -0.0524   -0.0074 C.3     1  UNL1        0.0730
      3 C4*         2.7734   -0.3495   -1.4232 C.3     1  UNL1        0.1126
      4 O4*         3.7893   -1.3755   -1.3507 O.3     1  UNL1       -0.3443
      5 C1*         3.2853   -2.5737   -2.0172 C.3     1  UNL1        0.1820
      6 C2*         1.7844   -2.3725   -2.2427 C.3     1  UNL1        0.1299
      7 O2*         1.2828   -3.0464   -3.3960 O.3     1  UNL1       -0.3846
      8 C3*         1.6796   -0.8571   -2.3598 C.3     1  UNL1        0.1136
      9 O3*         1.9675   -0.4568   -3.7073 O.3     1  UNL1       -0.3864
     10 N           3.5866   -3.7488   -1.1964 N.ar    1  UNL1       -0.2166
     11 N           3.2418   -4.9928   -1.6303 N.ar    1  UNL1       -0.1746
     12 C           3.6476   -5.8155   -0.6510 C.ar    1  UNL1        0.0640
     13 C           4.2598   -5.1257    0.4001 C.ar    1  UNL1        0.1029
     14 C           4.2063   -3.8143    0.0180 C.ar    1  UNL1        0.1457
     15 N           4.7277   -2.8397    0.7821 N.ar    1  UNL1       -0.3304
     16 C           5.3393   -3.2499    1.9432 C.ar    1  UNL1        0.0988
     17 N           5.4267   -4.4636    2.3950 N.ar    1  UNL1       -0.1989
     18 C           4.8831   -5.5112    1.6505 C.ar    1  UNL1        0.2837
     19 O           4.9306   -6.6826    2.0082 O.2     1  UNL1       -0.2650
     20 H5*         2.3813   -1.7927    0.8800 H       1  UNL1        0.2095
     21 H5*1        1.5299    0.7499   -0.0276 H       1  UNL1        0.0584
     22 H5*2        3.1011    0.2615    0.6389 H       1  UNL1        0.0584
     23 H4*         3.2542    0.5508   -1.8234 H       1  UNL1        0.0647
     24 H1*         3.8400   -2.7002   -2.9542 H       1  UNL1        0.0881
     25 H2*         1.2093   -2.7238   -1.3798 H       1  UNL1        0.0666
     26 H2*         0.5138   -2.5502   -3.7235 H       1  UNL1        0.2101
     27 H3*         0.6784   -0.4849   -2.1232 H       1  UNL1        0.0647
     28 H3*         1.8413    0.5064   -3.7743 H       1  UNL1        0.2100
     29 H           3.4860   -6.8813   -0.7558 H       1  UNL1        0.0856
     30 H           4.8550   -1.8906    0.4324 H       1  UNL1        0.1682
     31 H           5.7786   -2.4146    2.5136 H       1  UNL1        0.1028
@<TRIPOS>BOND
     1     1    20    1
     2     2     1    1
     3     2    21    1
     4     2    22    1
     5     3     2    1
     6     3    23    1
     7     4     3    1
     8     5     4    1
     9     5    24    1
    10     6     5    1
    11     6    25    1
    12     7     6    1
    13     7    26    1
    14     8     6    1
    15     8     3    1
    16     8    27    1
    17     9     8    1
    18     9    28    1
    19    10     5    1
    20    11    10   ar
    21    12    11   ar
    22    12    29    1
    23    13    12   ar
    24    14    13   ar
    25    14    10   ar
    26    15    14   ar
    27    15    30    1
    28    16    15   ar
    29    16    31    1
    30    17    16   ar
    31    18    17   ar
    32    18    13   ar
    33    19    18    2
