@<TRIPOS>MOLECULE
mol_687_akc_0006_29528290203_9
>668.sdf
 24 26 0 0 0
SMALL
GASTEIGER

@<TRIPOS>ATOM
      1 N          -3.2060   -1.0270   -1.5505 N.ar    1  UNL1       -0.3646
      2 C          -3.6476   -0.1294   -0.6010 C.ar    1  UNL1        0.0281
      3 C          -2.5356    0.4777   -0.0835 C.ar    1  UNL1        0.0925
      4 N          -2.4813    1.4237    0.8746 N.ar    1  UNL1       -0.2339
      5 C          -1.1759    1.7680    1.1056 C.ar    1  UNL1        0.1179
      6 N          -0.0131    1.3125    0.5299 N.ar    1  UNL1       -0.2287
      7 C          -0.0981    0.3508   -0.4325 C.ar    1  UNL1        0.1077
      8 C          -1.3951   -0.0559   -0.7271 C.ar    1  UNL1        0.0494
      9 C          -1.8274   -0.9935   -1.6343 C.ar    1  UNL1        0.0135
     10 S           1.3832   -0.2698   -1.1719 S.3     1  UNL1       -0.1112
     11 C           1.6865   -1.4709    0.1246 C.2     1  UNL1       -0.0283
     12 C           2.7147   -1.3817    1.0563 C.2     1  UNL1       -0.0556
     13 C           3.5695   -0.2843    1.1727 C.2     1  UNL1       -0.0608
     14 C           3.4464    0.8616    0.3852 C.2     1  UNL1       -0.0556
     15 C           2.4952    1.0179   -0.6167 C.2     1  UNL1       -0.0283
     16 H          -3.8067   -1.6233   -2.1057 H       1  UNL1        0.1648
     17 H          -4.6992   -0.0079   -0.3865 H       1  UNL1        0.0829
     18 H          -1.0340    2.5271    1.8716 H       1  UNL1        0.1047
     19 H          -1.2992   -1.6337   -2.3288 H       1  UNL1        0.0814
     20 H           1.0459   -2.3494    0.1350 H       1  UNL1        0.0689
     21 H           2.8438   -2.2073    1.7565 H       1  UNL1        0.0623
     22 H           4.3375   -0.3032    1.9450 H       1  UNL1        0.0618
     23 H           4.1134    1.6989    0.5902 H       1  UNL1        0.0623
     24 H           2.4363    1.9678   -1.1417 H       1  UNL1        0.0689
@<TRIPOS>BOND
     1     1    16    1
     2     2     1   ar
     3     2    17    1
     4     3     2   ar
     5     4     3   ar
     6     5     4   ar
     7     5    18    1
     8     6     5   ar
     9     7     6   ar
    10     8     7   ar
    11     8     3   ar
    12     9     8   ar
    13     9     1   ar
    14     9    19    1
    15    10     7    1
    16    11    10    2
    17    11    20    1
    18    12    11    1
    19    12    21    1
    20    13    12    2
    21    13    22    1
    22    14    13    1
    23    14    23    1
    24    15    14    2
    25    15    10    1
    26    15    24    1
