@<TRIPOS>MOLECULE
mol_688_akc_0024_32058190062_x
>669.sdf
 32 34 0 0 0
SMALL
GASTEIGER

@<TRIPOS>ATOM
      1 C           0.4759   -1.9298   -0.3133 C.3     1  UNL1       -0.0201
      2 C           1.7431   -2.6593   -0.6224 C.ar    1  UNL1        0.0688
      3 C           3.0069   -2.2169   -0.2118 C.ar    1  UNL1        0.1289
      4 C           4.0929   -3.0094   -0.5557 C.ar    1  UNL1        0.1657
      5 N           4.0742   -4.1575   -1.2552 N.ar    1  UNL1       -0.2160
      6 C           2.8143   -4.4886   -1.6027 C.ar    1  UNL1        0.1187
      7 N           1.6681   -3.8238   -1.3333 N.ar    1  UNL1       -0.2383
      8 N           5.1769   -2.3695   -0.0186 N.ar    1  UNL1       -0.2879
      9 C           4.7182   -1.2342    0.5948 C.ar    1  UNL1        0.1003
     10 N           3.4102   -1.1101    0.4979 N.ar    1  UNL1       -0.2322
     11 C1*         6.5511   -2.8263   -0.0841 C.3     1  UNL1        0.1408
     12 C2*         7.3075   -2.3246   -1.3039 C.3     1  UNL1        0.0213
     13 C3*         8.7248   -2.2521   -0.7905 C.3     1  UNL1        0.0876
     14 C4*         8.5583   -1.8847    0.6831 C.3     1  UNL1        0.1100
     15 O4*         7.2617   -2.3728    1.0914 O.3     1  UNL1       -0.3484
     16 C5*         8.6351   -0.3759    0.9520 C.3     1  UNL1        0.0729
     17 O5*         7.7100    0.3488    0.1481 O.3     1  UNL1       -0.3924
     18 O3*         9.3032   -3.5566   -0.9140 O.3     1  UNL1       -0.3890
     19 H           0.3407   -1.8556    0.7702 H       1  UNL1        0.0293
     20 H           0.5090   -0.9208   -0.7354 H       1  UNL1        0.0293
     21 H          -0.3897   -2.4513   -0.7330 H       1  UNL1        0.0293
     22 H           2.7024   -5.4079   -2.1705 H       1  UNL1        0.1047
     23 H           5.3783   -0.5412    1.0997 H       1  UNL1        0.1030
     24 H1*         6.5441   -3.9218   -0.0454 H       1  UNL1        0.0840
     25 H2*1        6.9587   -1.3316   -1.6078 H       1  UNL1        0.0335
     26 H2*2        7.1823   -2.9984   -2.1579 H       1  UNL1        0.0335
     27 H3*         9.3544   -1.5568   -1.3535 H       1  UNL1        0.0621
     28 H4*         9.3017   -2.3917    1.3083 H       1  UNL1        0.0646
     29 H5*1        8.4021   -0.1697    2.0018 H       1  UNL1        0.0584
     30 H5*2        9.6389   -0.0024    0.7269 H       1  UNL1        0.0584
     31 H5*         7.7182    1.2719    0.4594 H       1  UNL1        0.2095
     32 H3*        10.2237   -3.5074   -0.6042 H       1  UNL1        0.2099
@<TRIPOS>BOND
     1     1    19    1
     2     1    20    1
     3     1    21    1
     4     2     1    1
     5     3     2   ar
     6     4     3   ar
     7     5     4   ar
     8     6     5   ar
     9     6    22    1
    10     7     6   ar
    11     7     2   ar
    12     8     4   ar
    13     9     8   ar
    14     9    23    1
    15    10     9   ar
    16    10     3   ar
    17    11     8    1
    18    11    24    1
    19    12    11    1
    20    12    25    1
    21    12    26    1
    22    13    12    1
    23    13    27    1
    24    14    13    1
    25    14    28    1
    26    15    14    1
    27    15    11    1
    28    16    14    1
    29    16    29    1
    30    16    30    1
    31    17    16    1
    32    17    31    1
    33    18    13    1
    34    18    32    1
