@<TRIPOS>MOLECULE
mol_689_akc_0014_57938080364_4
>670.sdf
 49 51 0 0 0
SMALL
GASTEIGER

@<TRIPOS>ATOM
      1 C           4.1133   -3.9503    1.9734 C.3     1  UNL1       -0.0626
      2 C           4.5737   -2.6517    1.3023 C.3     1  UNL1       -0.0460
      3 C           3.4146   -2.0474    0.5088 C.3     1  UNL1       -0.0626
      4 C           5.1267   -1.6778    2.3621 C.3     1  UNL1       -0.0417
      5 C           5.6419   -0.3592    1.7731 C.3     1  UNL1       -0.0060
      6 S           6.2257    0.7193    3.1241 S.3     1  UNL1       -0.1581
      7 C           6.7981    2.1824    2.1714 C.3     1  UNL1        0.0227
      8 C           7.3314    3.2488    3.1506 C.3     1  UNL1        0.1005
      9 O           8.1577    2.6575    4.1503 O.3     1  UNL1       -0.3318
     10 C           9.5216    3.1191    4.1325 C.3     1  UNL1        0.2010
     11 C           9.6516    3.7373    2.7300 C.3     1  UNL1        0.1462
     12 O          10.6216    4.7803    2.6591 O.3     1  UNL1       -0.3825
     13 C           8.2225    4.3229    2.5578 C.3     1  UNL1        0.1143
     14 O           8.1484    5.4899    3.4049 O.3     1  UNL1       -0.3864
     15 N          10.2276    1.9321    4.6099 N.2     1  UNL1       -0.3237
     16 C           9.4896    1.5336    5.8502 C.2     1  UNL1        0.1510
     17 N           9.7974    0.3693    6.2709 N.2     1  UNL1       -0.2035
     18 C          10.9092    0.0815    5.5645 C.2     1  UNL1        0.2410
     19 C          11.5711   -1.0576    5.3793 C.2     1  UNL1        0.3466
     20 N          10.9712   -2.2327    5.8074 N.pl3   1  UNL1       -0.2445
     21 N          12.8097   -1.0690    4.7570 N.2     1  UNL1       -0.0066
     22 C          13.2169    0.0396    4.2182 C.2     1  UNL1        0.2865
     23 N          12.4737    1.2213    4.0963 N.pl3   1  UNL1       -0.1736
     24 C          11.2616    1.2296    4.7066 C.2     1  UNL1        0.2780
     25 H           3.7393   -4.6621    1.2294 H       1  UNL1        0.0232
     26 H           4.9402   -4.4305    2.5065 H       1  UNL1        0.0232
     27 H           3.3093   -3.7622    2.6931 H       1  UNL1        0.0232
     28 H           5.3788   -2.9022    0.6001 H       1  UNL1        0.0296
     29 H           2.6209   -1.6933    1.1758 H       1  UNL1        0.0232
     30 H           3.7488   -1.2045   -0.1029 H       1  UNL1        0.0232
     31 H           2.9804   -2.7857   -0.1740 H       1  UNL1        0.0232
     32 H           4.3427   -1.4762    3.1047 H       1  UNL1        0.0276
     33 H           5.9455   -2.1785    2.8974 H       1  UNL1        0.0276
     34 H           6.4711   -0.5533    1.0855 H       1  UNL1        0.0376
     35 H           4.8495    0.1708    1.2387 H       1  UNL1        0.0376
     36 H           7.5755    1.8479    1.4797 H       1  UNL1        0.0402
     37 H           5.9631    2.5983    1.5953 H       1  UNL1        0.0402
     38 H           6.4829    3.6703    3.7035 H       1  UNL1        0.0632
     39 H           9.6459    3.8984    4.8973 H       1  UNL1        0.1107
     40 H           9.8540    2.9885    1.9535 H       1  UNL1        0.0688
     41 H          10.1561    5.6308    2.7226 H       1  UNL1        0.2102
     42 H           7.9614    4.6367    1.5448 H       1  UNL1        0.0648
     43 H           7.2073    5.7409    3.5156 H       1  UNL1        0.2100
     44 H           8.6984    2.1506    6.3196 H       1  UNL1        0.1276
     45 H          11.6342   -2.9346    6.1261 H       1  UNL1        0.2885
     46 H          10.1867   -2.0830    6.4416 H       1  UNL1        0.2885
     47 H          14.2471    0.1113    3.8032 H       1  UNL1        0.1603
     48 H          12.9418    2.0358    3.7392 H       1  UNL1        0.3013
     49 H           9.7079    1.2912    4.0045 H       1  UNL1        0.2681
@<TRIPOS>BOND
     1     1    25    1
     2     1    26    1
     3     1    27    1
     4     2     1    1
     5     2    28    1
     6     3     2    1
     7     3    29    1
     8     3    30    1
     9     3    31    1
    10     4     2    1
    11     4    32    1
    12     4    33    1
    13     5     4    1
    14     5    34    1
    15     5    35    1
    16     6     5    1
    17     7     6    1
    18     7    36    1
    19     7    37    1
    20     8     7    1
    21     8    38    1
    22     9     8    1
    23    10     9    1
    24    10    39    1
    25    11    10    1
    26    11    40    1
    27    12    11    1
    28    12    41    1
    29    13    11    1
    30    13     8    1
    31    13    42    1
    32    14    13    1
    33    14    43    1
    34    15    10    1
    35    16    15    1
    36    16    44    1
    37    17    16    2
    38    18    17    1
    39    19    18    2
    40    20    19    1
    41    20    45    1
    42    20    46    1
    43    21    19    1
    44    22    21    2
    45    22    47    1
    46    23    22    1
    47    23    48    1
    48    24    23    1
    49    24    15    2
    50    24    18    1
    51    15    49    1
