@<TRIPOS>MOLECULE
mol_690_akc_jprmcm2022100176
>671.sdf
 45 47 0 0 0
SMALL
GASTEIGER

@<TRIPOS>ATOM
      1 C           3.9378   -4.0327    0.0317 C.ar    1  UNL1        0.1623
      2 C           4.2663   -3.0920    0.9976 C.ar    1  UNL1        0.2006
      3 C           3.2607   -2.3854    1.6409 C.ar    1  UNL1        0.1623
      4 C           1.9242   -2.6341    1.3477 C.ar    1  UNL1       -0.0106
      5 C           1.5778   -3.6139    0.3960 C.ar    1  UNL1       -0.0115
      6 C           2.6076   -4.3071   -0.2684 C.ar    1  UNL1       -0.0106
      7 C          -3.8078   -5.3806   -3.1315 C.ar    1  UNL1        0.1623
      8 C          -2.6880   -5.0636   -2.3661 C.ar    1  UNL1       -0.0106
      9 C          -1.7438   -6.0604   -2.0554 C.ar    1  UNL1       -0.0115
     10 C          -1.9366   -7.3589   -2.5668 C.ar    1  UNL1       -0.0106
     11 C          -3.0572   -7.6542   -3.3339 C.ar    1  UNL1        0.1623
     12 C          -4.0072   -6.6764   -3.5919 C.ar    1  UNL1        0.2006
     13 O          -0.1524   -4.4465   -1.1232 O.3     1  UNL1       -0.3636
     14 C           0.1152   -3.9907    0.2129 C.3     1  UNL1        0.0875
     15 C          -0.2585   -5.1124    1.1885 C.3     1  UNL1       -0.0081
     16 C          -1.0248   -6.1186    0.3447 C.3     1  UNL1       -0.0081
     17 C          -0.5970   -5.8096   -1.0913 C.3     1  UNL1        0.0875
     18 C          -1.0834   -4.6015    2.3687 C.3     1  UNL1       -0.0594
     19 C          -0.7167   -7.5598    0.7472 C.3     1  UNL1       -0.0594
     20 O          -4.7392   -4.4156   -3.3901 O.3     1  UNL1       -0.5032
     21 O          -5.1711   -6.9773   -4.2453 O.3     1  UNL1       -0.5009
     22 O          -3.2067   -8.9196   -3.8214 O.3     1  UNL1       -0.5032
     23 O           4.9291   -4.7024   -0.6253 O.3     1  UNL1       -0.5032
     24 O           5.5674   -2.8761    1.3617 O.3     1  UNL1       -0.5009
     25 O           3.5746   -1.4661    2.6000 O.3     1  UNL1       -0.5032
     26 H           1.1557   -2.0884    1.8898 H       1  UNL1        0.0659
     27 H           2.3737   -5.0703   -1.0053 H       1  UNL1        0.0659
     28 H          -2.5693   -4.0513   -1.9884 H       1  UNL1        0.0659
     29 H          -1.2200   -8.1496   -2.3517 H       1  UNL1        0.0659
     30 H          -0.5038   -3.0967    0.3561 H       1  UNL1        0.0649
     31 H           0.6430   -5.5855    1.6013 H       1  UNL1        0.0330
     32 H          -2.1037   -5.9534    0.4675 H       1  UNL1        0.0330
     33 H           0.2659   -6.4140   -1.3962 H       1  UNL1        0.0649
     34 H          -1.3567   -5.4253    3.0358 H       1  UNL1        0.0233
     35 H          -0.5198   -3.8672    2.9521 H       1  UNL1        0.0233
     36 H          -2.0090   -4.1221    2.0303 H       1  UNL1        0.0233
     37 H          -0.9437   -7.7264    1.8047 H       1  UNL1        0.0233
     38 H          -1.3086   -8.2694    0.1621 H       1  UNL1        0.0233
     39 H           0.3419   -7.7971    0.5896 H       1  UNL1        0.0233
     40 H          -5.4143   -4.8566   -3.9389 H       1  UNL1        0.2923
     41 H          -5.3985   -7.8865   -3.9711 H       1  UNL1        0.2924
     42 H          -3.5776   -8.8270   -4.7178 H       1  UNL1        0.2923
     43 H           5.3616   -4.0332   -1.1883 H       1  UNL1        0.2923
     44 H           6.0553   -3.6632    1.0501 H       1  UNL1        0.2924
     45 H           4.5513   -1.4804    2.6486 H       1  UNL1        0.2923
@<TRIPOS>BOND
     1     1     2   ar
     2     2     3   ar
     3     3     4   ar
     4     4     5   ar
     5     5     6   ar
     6     1     6   ar
     7     7     8   ar
     8     8     9   ar
     9     9    10   ar
    10    10    11   ar
    11    11    12   ar
    12     7    12   ar
    13    13    14    1
    14    14    15    1
    15    15    16    1
    16    16    17    1
    17    13    17    1
    18    17     9    1
    19    16    19    1
    20     7    20    1
    21    12    21    1
    22    11    22    1
    23     1    23    1
    24     2    24    1
    25     3    25    1
    26     4    26    1
    27     6    27    1
    28     8    28    1
    29    10    29    1
    30    16    32    1
    31    17    33    1
    32    18    34    1
    33    18    35    1
    34    18    36    1
    35    19    37    1
    36    19    38    1
    37    19    39    1
    38    20    40    1
    39    21    41    1
    40    22    42    1
    41    23    43    1
    42    24    44    1
    43    25    45    1
    44    14    30    1
    45    14     5    1
    46    15    31    1
    47    15    18    1
