@<TRIPOS>MOLECULE
mol_692_akc_fmb_2020_0263
>673.sdf
 52 56 0 0 0
SMALL
GASTEIGER

@<TRIPOS>ATOM
      1 C           3.5316    0.2730    0.0462 C.ar    1  UNL1       -0.0598
      2 C           3.1656   -1.0702    0.0161 C.ar    1  UNL1       -0.0611
      3 C           1.8166   -1.4440    0.0345 C.ar    1  UNL1       -0.0520
      4 C           0.8217   -0.4451    0.0749 C.ar    1  UNL1        0.0075
      5 C           1.2225    0.8878    0.1080 C.ar    1  UNL1        0.0475
      6 C           2.5646    1.2811    0.0989 C.ar    1  UNL1       -0.0378
      7 N           0.0782    1.6450    0.1575 N.ar    1  UNL1       -0.3525
      8 C          -1.0522    0.8604    0.0658 C.ar    1  UNL1        0.0738
      9 C          -2.4114    1.2078   -0.0111 C.ar    1  UNL1        0.0957
     10 N          -3.3276    0.1994    0.0159 N.ar    1  UNL1       -0.2400
     11 C          -2.8947   -1.0926    0.0577 C.ar    1  UNL1        0.1267
     12 C          -1.5637   -1.4864    0.0722 C.ar    1  UNL1       -0.0214
     13 C          -0.6099   -0.4623    0.0802 C.ar    1  UNL1        0.0117
     14 C          -3.9554   -2.1545    0.0709 C.2     1  UNL1        0.2627
     15 O          -3.6621   -3.3453    0.0611 O.2     1  UNL1       -0.2685
     16 N          -5.2482   -1.6828    0.0949 N.am    1  UNL1       -0.3060
     17 C          -2.9018    2.5888   -0.1336 C.ar    1  UNL1        0.0026
     18 C          -2.2236    3.5503   -0.9062 C.ar    1  UNL1       -0.0490
     19 C          -2.6632    4.8777   -0.9887 C.ar    1  UNL1       -0.0193
     20 C          -3.8202    5.2725   -0.3253 C.ar    1  UNL1        0.1201
     21 C          -4.5360    4.3235    0.4053 C.ar    1  UNL1       -0.0193
     22 C          -4.0837    3.0001    0.5010 C.ar    1  UNL1       -0.0490
     23 O          -4.3513    6.5322   -0.3238 O.3     1  UNL1       -0.4951
     24 C          -3.6214    7.5361   -1.0205 C.3     1  UNL1        0.0788
     25 C          -6.4005   -2.5508    0.0704 C.3     1  UNL1        0.0372
     26 C          -7.2573   -2.3798    1.2983 C.ar    1  UNL1       -0.0303
     27 C          -8.8643   -2.1272    3.5866 C.ar    1  UNL1       -0.0617
     28 C          -9.3786   -1.8012    2.3329 C.ar    1  UNL1       -0.0615
     29 C          -8.5799   -1.9264    1.1940 C.ar    1  UNL1       -0.0571
     30 C          -6.7532   -2.7087    2.5657 C.ar    1  UNL1       -0.0571
     31 C          -7.5520   -2.5809    3.7034 C.ar    1  UNL1       -0.0615
     32 H           4.5849    0.5435    0.0281 H       1  UNL1        0.0618
     33 H           3.9339   -1.8384   -0.0245 H       1  UNL1        0.0618
     34 H           1.5423   -2.4944    0.0060 H       1  UNL1        0.0624
     35 H           2.8535    2.3262    0.1242 H       1  UNL1        0.0638
     36 H           0.0714    2.6533    0.2350 H       1  UNL1        0.1660
     37 H          -1.2817   -2.5331    0.0842 H       1  UNL1        0.0647
     38 H          -5.3709   -0.6750    0.1104 H       1  UNL1        0.1494
     39 H          -1.3441    3.2744   -1.4841 H       1  UNL1        0.0625
     40 H          -2.0824    5.5694   -1.5897 H       1  UNL1        0.0654
     41 H          -5.4550    4.6138    0.9094 H       1  UNL1        0.0654
     42 H          -4.6650    2.2878    1.0845 H       1  UNL1        0.0625
     43 H          -2.6184    7.6617   -0.5984 H       1  UNL1        0.0660
     44 H          -3.5733    7.3153   -2.0922 H       1  UNL1        0.0660
     45 H          -4.1533    8.4845   -0.8996 H       1  UNL1        0.0660
     46 H          -6.9649   -2.2937   -0.8325 H       1  UNL1        0.0512
     47 H          -6.1026   -3.6012   -0.0216 H       1  UNL1        0.0512
     48 H          -9.4873   -2.0323    4.4720 H       1  UNL1        0.0618
     49 H         -10.4046   -1.4542    2.2412 H       1  UNL1        0.0618
     50 H          -9.0015   -1.6750    0.2234 H       1  UNL1        0.0621
     51 H          -5.7326   -3.0739    2.6664 H       1  UNL1        0.0621
     52 H          -7.1506   -2.8409    4.6792 H       1  UNL1        0.0618
@<TRIPOS>BOND
     1     1     2   ar
     2     2     3   ar
     3     3     4   ar
     4     4     5   ar
     5     5     6   ar
     6     1     6   ar
     7     5     7   ar
     8     7     8   ar
     9     8     9   ar
    10     9    10   ar
    11    10    11   ar
    12    11    12   ar
    13    12    13   ar
    14     4    13   ar
    15     8    13   ar
    16    14    15    2
    17    14    16   am
    18    11    14    1
    19    17    18   ar
    20    18    19   ar
    21    19    20   ar
    22    20    21   ar
    23    21    22   ar
    24    17    22   ar
    25    23    24    1
    26    20    23    1
    27     9    17    1
    28    25    26    1
    29    16    25    1
    30    27    28   ar
    31    28    29   ar
    32    30    31   ar
    33    27    31   ar
    34    29    26   ar
    35    26    30   ar
    36     1    32    1
    37     2    33    1
    38     3    34    1
    39     6    35    1
    40     7    36    1
    41    12    37    1
    42    16    38    1
    43    18    39    1
    44    19    40    1
    45    21    41    1
    46    22    42    1
    47    24    43    1
    48    24    44    1
    49    24    45    1
    50    25    46    1
    51    25    47    1
    52    27    48    1
    53    28    49    1
    54    29    50    1
    55    30    51    1
    56    31    52    1
