@<TRIPOS>MOLECULE
mol_695_akc_jcimid2022101797
>676.sdf
 36 36 0 0 0
SMALL
GASTEIGER

@<TRIPOS>ATOM
      1 C          -3.3597   -2.2322   -1.4629 C.ar    1  UNL1       -0.0581
      2 C          -3.6546   -2.8501   -2.6817 C.ar    1  UNL1       -0.0586
      3 C          -4.4108   -2.1842   -3.6501 C.ar    1  UNL1       -0.0504
      4 C          -4.8908   -0.9010   -3.3674 C.ar    1  UNL1       -0.0586
      5 C          -4.5924   -0.2808   -2.1499 C.ar    1  UNL1       -0.0581
      6 C          -3.8019   -0.9285   -1.1905 C.ar    1  UNL1       -0.0441
      7 C          -4.6562   -2.8022   -4.9945 C.3     1  UNL1       -0.0397
      8 C          -3.3956   -0.1947    0.0832 C.3     1  UNL1       -0.0117
      9 C          -1.8639   -0.0331    0.1273 C.3     1  UNL1        0.0164
     10 C          -3.9337   -0.9100    1.3283 C.3     1  UNL1       -0.0580
     11 C          -1.3833    0.8758    1.2480 C.2     1  UNL1        0.1566
     12 O          -2.0616    1.8088    1.6643 O.2     1  UNL1       -0.2927
     13 C          -0.0185    0.5708    1.7952 C.2     1  UNL1       -0.0205
     14 C           0.6116    1.2092    2.7972 C.2     1  UNL1       -0.0724
     15 C           1.9506    0.7225    3.2893 C.3     1  UNL1       -0.0437
     16 C           0.0821    2.4182    3.5216 C.3     1  UNL1       -0.0437
     17 H          -2.7593   -2.7761   -0.7376 H       1  UNL1        0.0620
     18 H          -3.2743   -3.8507   -2.8735 H       1  UNL1        0.0620
     19 H          -5.4872   -0.3661   -4.1035 H       1  UNL1        0.0620
     20 H          -4.9677    0.7242   -1.9672 H       1  UNL1        0.0620
     21 H          -5.7156   -2.7373   -5.2616 H       1  UNL1        0.0278
     22 H          -4.0622   -2.2843   -5.7546 H       1  UNL1        0.0278
     23 H          -4.3743   -3.8601   -5.0073 H       1  UNL1        0.0278
     24 H          -3.8497    0.8053    0.0663 H       1  UNL1        0.0350
     25 H          -1.3887   -1.0154    0.2354 H       1  UNL1        0.0351
     26 H          -1.5030    0.4056   -0.8118 H       1  UNL1        0.0351
     27 H          -3.6957   -0.3501    2.2387 H       1  UNL1        0.0236
     28 H          -5.0240   -1.0086    1.2793 H       1  UNL1        0.0236
     29 H          -3.5126   -1.9150    1.4387 H       1  UNL1        0.0236
     30 H           0.4609   -0.2881    1.3302 H       1  UNL1        0.0652
     31 H           2.6899    1.5298    3.2572 H       1  UNL1        0.0274
     32 H           1.8648    0.3692    4.3222 H       1  UNL1        0.0274
     33 H           2.3405   -0.1031    2.6846 H       1  UNL1        0.0274
     34 H          -0.4202    3.1172    2.8477 H       1  UNL1        0.0274
     35 H          -0.6061    2.1151    4.3166 H       1  UNL1        0.0274
     36 H           0.8998    2.9834    3.9837 H       1  UNL1        0.0274
@<TRIPOS>BOND
     1     1     2   ar
     2     2     3   ar
     3     3     4   ar
     4     4     5   ar
     5     5     6   ar
     6     1     6   ar
     7     3     7    1
     8     8    10    1
     9     9    11    1
    10    11    12    2
    11    11    13    1
    12    13    14    2
    13    14    15    1
    14    14    16    1
    15     1    17    1
    16     2    18    1
    17     4    19    1
    18     5    20    1
    19     7    21    1
    20     7    22    1
    21     7    23    1
    22     8    24    1
    23     9    25    1
    24     9    26    1
    25    10    27    1
    26    10    28    1
    27    10    29    1
    28    13    30    1
    29    15    31    1
    30    15    32    1
    31    15    33    1
    32    16    34    1
    33    16    35    1
    34    16    36    1
    35     8     9    1
    36     8     6    1
