@<TRIPOS>MOLECULE
mol_697_akc_s00436_022_07532_5
>678.sdf
 73 77 0 0 0
SMALL
GASTEIGER

@<TRIPOS>ATOM
      1 O          -0.1127    1.7973    0.5578 O.3     1  UNL1       -0.3313
      2 O          -2.2327    3.6568    0.2144 O.3     1  UNL1       -0.3461
      3 O          -4.4856    4.3905    0.1486 O.3     1  UNL1       -0.3431
      4 O          -2.7846   -0.4358   -0.6068 O.3     1  UNL1       -0.3865
      5 O          -0.5139   -2.1731   -0.4130 O.3     1  UNL1       -0.3864
      6 O           2.2246    1.8274    0.3206 O.3     1  UNL1       -0.4532
      7 O           2.0112   -0.7713   -1.0681 O.3     1  UNL1       -0.3829
      8 O          -3.4298    6.9039    1.4996 O.3     1  UNL1       -0.3841
      9 O          -2.4178    7.9098   -0.8067 O.3     1  UNL1       -0.3864
     10 O          -4.2242    6.8116   -2.6578 O.3     1  UNL1       -0.3866
     11 O           5.6850    2.1811   -0.9326 O.2     1  UNL1       -0.4507
     12 O           2.0441    2.7664   -2.4386 O.2     1  UNL1       -0.2830
     13 O           2.9927    2.1931   -4.9154 O.3     1  UNL1       -0.5058
     14 O           7.7661    2.3668   -5.1284 O.3     1  UNL1       -0.5065
     15 O           8.2015    0.5557    2.8484 O.3     1  UNL1       -0.5033
     16 O           7.0887    1.9199    4.9088 O.3     1  UNL1       -0.5033
     17 C          -1.3563    1.4644   -0.0920 C.3     1  UNL1        0.1144
     18 C          -1.5645   -0.0435    0.0273 C.3     1  UNL1        0.1120
     19 C          -0.3856   -0.7619   -0.6478 C.3     1  UNL1        0.1152
     20 C           0.9926   -0.2317   -0.2058 C.3     1  UNL1        0.1454
     21 C          -2.6725    5.9873    0.6753 C.3     1  UNL1        0.1341
     22 C          -3.1998    4.5364    0.7591 C.3     1  UNL1        0.1879
     23 C          -2.7425    6.5062   -0.7635 C.3     1  UNL1        0.1140
     24 C          -4.1596    6.3314   -1.3137 C.3     1  UNL1        0.1095
     25 C           0.9969    1.3136   -0.2203 C.3     1  UNL1        0.2311
     26 C          -2.5001    2.2797    0.5115 C.3     1  UNL1        0.0796
     27 C          -4.6054    4.8689   -1.2012 C.3     1  UNL1        0.0873
     28 C          -3.9431    3.9369   -2.2206 C.3     1  UNL1       -0.0361
     29 C           3.3040    1.9947   -0.5453 C.ar    1  UNL1        0.2138
     30 C           4.5828    1.9423   -0.1143 C.ar    1  UNL1        0.1810
     31 C           3.1086    2.3535   -2.0002 C.ar    1  UNL1        0.2382
     32 C           4.2834    2.2578   -2.8878 C.ar    1  UNL1        0.1092
     33 C           5.0631    1.7202    1.2804 C.ar    1  UNL1        0.0247
     34 C           5.5233    2.2309   -2.2843 C.ar    1  UNL1        0.1465
     35 C           4.2028    2.2644   -4.2879 C.ar    1  UNL1        0.1348
     36 C           6.6913    2.2734   -3.0454 C.ar    1  UNL1        0.0231
     37 C           6.2961    1.0523    1.4534 C.ar    1  UNL1       -0.0057
     38 C           4.4794    2.3448    2.3922 C.ar    1  UNL1       -0.0473
     39 C           5.3672    2.3038   -5.0640 C.ar    1  UNL1        0.0223
     40 C           6.6034    2.3156   -4.4287 C.ar    1  UNL1        0.1239
     41 C           6.9582    1.1048    2.6774 C.ar    1  UNL1        0.1589
     42 C           5.1348    2.3618    3.6307 C.ar    1  UNL1       -0.0159
     43 C           6.3880    1.7783    3.7435 C.ar    1  UNL1        0.1583
     44 H          -1.2983    1.7550   -1.1508 H       1  UNL1        0.0647
     45 H          -1.6230   -0.3480    1.0793 H       1  UNL1        0.0647
     46 H          -0.4836   -0.6540   -1.7354 H       1  UNL1        0.0648
     47 H           1.2282   -0.5892    0.8021 H       1  UNL1        0.0683
     48 H          -1.6364    6.0406    1.0296 H       1  UNL1        0.0671
     49 H          -3.3355    4.2945    1.8203 H       1  UNL1        0.0937
     50 H          -2.0141    5.9983   -1.4054 H       1  UNL1        0.0648
     51 H          -4.8465    6.9569   -0.7299 H       1  UNL1        0.0646
     52 H           0.8204    1.6517   -1.2344 H       1  UNL1        0.1084
     53 H          -3.4546    1.9941    0.0578 H       1  UNL1        0.0587
     54 H          -2.5519    2.1400    1.5962 H       1  UNL1        0.0587
     55 H          -5.6777    4.8361   -1.4309 H       1  UNL1        0.0621
     56 H          -4.2943    2.9092   -2.0821 H       1  UNL1        0.0255
     57 H          -4.1797    4.2418   -3.2453 H       1  UNL1        0.0255
     58 H          -2.8548    3.9190   -2.1295 H       1  UNL1        0.0255
     59 H          -2.6512   -1.3440   -0.9433 H       1  UNL1        0.2100
     60 H          -0.1723   -2.3628    0.4805 H       1  UNL1        0.2100
     61 H           1.7195   -0.6605   -1.9917 H       1  UNL1        0.2102
     62 H          -4.1165    6.3949    1.9661 H       1  UNL1        0.2101
     63 H          -2.7318    8.2698    0.0499 H       1  UNL1        0.2100
     64 H          -3.7070    7.6429   -2.6551 H       1  UNL1        0.2100
     65 H           7.6646    2.2751   -2.5586 H       1  UNL1        0.0691
     66 H           6.7626    0.5525    0.6117 H       1  UNL1        0.0662
     67 H           3.5320    2.8738    2.3003 H       1  UNL1        0.0626
     68 H           5.3061    2.3177   -6.1421 H       1  UNL1        0.0691
     69 H           4.7001    2.8783    4.4761 H       1  UNL1        0.0655
     70 H           3.0916    2.3552   -5.8668 H       1  UNL1        0.2922
     71 H           7.5708    2.4373   -6.0769 H       1  UNL1        0.2921
     72 H           8.4546    0.1070    2.0205 H       1  UNL1        0.2923
     73 H           7.9820    1.5708    4.7020 H       1  UNL1        0.2923
@<TRIPOS>BOND
     1     1    17    1
     2     1    25    1
     3     2    22    1
     4     2    26    1
     5     3    22    1
     6     3    27    1
     7     4    18    1
     8     4    59    1
     9     5    19    1
    10     5    60    1
    11     6    25    1
    12     6    29    1
    13     7    20    1
    14     7    61    1
    15     8    21    1
    16     8    62    1
    17     9    23    1
    18     9    63    1
    19    10    64    1
    20    11    30   ar
    21    11    34   ar
    22    12    31    2
    23    13    35    1
    24    13    70    1
    25    14    40    1
    26    14    71    1
    27    15    41    1
    28    15    72    1
    29    16    43    1
    30    16    73    1
    31    17    18    1
    32    17    26    1
    33    17    44    1
    34    18    19    1
    35    18    45    1
    36    19    20    1
    37    19    46    1
    38    20    25    1
    39    20    47    1
    40    21    22    1
    41    21    23    1
    42    21    48    1
    43    22    49    1
    44    23    24    1
    45    23    50    1
    46    24    27    1
    47    25    52    1
    48    26    53    1
    49    26    54    1
    50    27    28    1
    51    27    55    1
    52    28    56    1
    53    28    57    1
    54    28    58    1
    55    29    30   ar
    56    29    31   ar
    57    30    33    1
    58    31    32   ar
    59    32    34   ar
    60    32    35   ar
    61    33    37   ar
    62    33    38   ar
    63    34    36   ar
    64    35    39   ar
    65    36    40   ar
    66    36    65    1
    67    37    41   ar
    68    37    66    1
    69    38    42   ar
    70    38    67    1
    71    39    40   ar
    72    39    68    1
    73    41    43   ar
    74    42    43   ar
    75    42    69    1
    76    24    51    1
    77    24    10    1
