@<TRIPOS>MOLECULE
mol_698_akc_acsomega2c00467
>679.sdf
 24 24 0 0 0
SMALL
GASTEIGER

@<TRIPOS>ATOM
      1 C          -0.3886   -0.4438    0.4690 C.3     1  UNL1       -0.0585
      2 C           0.5102   -1.2676   -0.4558 C.3     1  UNL1       -0.0178
      3 C           1.3631   -0.3650   -1.3529 C.3     1  UNL1       -0.0585
      4 C           1.3574   -2.2904    0.2797 C.2     1  UNL1        0.0055
      5 C           1.2370   -3.6054    0.0460 C.2     1  UNL1       -0.0076
      6 C           2.0820   -4.6292    0.6957 C.2     1  UNL1        0.1824
      7 O           1.8989   -5.8154    0.4560 O.2     1  UNL1       -0.2876
      8 C           3.1468   -4.1563    1.6128 C.2     1  UNL1       -0.0002
      9 C           4.0708   -5.1653    2.2197 C.3     1  UNL1       -0.0360
     10 C           3.2578   -2.8464    1.8713 C.2     1  UNL1       -0.0081
     11 C           2.3753   -1.8292    1.2646 C.2     1  UNL1        0.1828
     12 O           2.5169   -0.6538    1.5749 O.2     1  UNL1       -0.2876
     13 H          -1.0696   -1.0938    1.0291 H       1  UNL1        0.0235
     14 H          -1.0016    0.2523   -0.1145 H       1  UNL1        0.0235
     15 H           0.1806    0.1500    1.1898 H       1  UNL1        0.0235
     16 H          -0.1688   -1.8083   -1.1308 H       1  UNL1        0.0345
     17 H           1.9475   -0.9613   -2.0611 H       1  UNL1        0.0235
     18 H           0.7259    0.3100   -1.9348 H       1  UNL1        0.0235
     19 H           2.0586    0.2544   -0.7787 H       1  UNL1        0.0235
     20 H           0.5136   -4.0008   -0.6593 H       1  UNL1        0.0660
     21 H           5.0998   -4.9788    1.8931 H       1  UNL1        0.0279
     22 H           4.0365   -5.1096    3.3124 H       1  UNL1        0.0279
     23 H           3.8204   -6.1914    1.9360 H       1  UNL1        0.0279
     24 H           4.0171   -2.4584    2.5418 H       1  UNL1        0.0660
@<TRIPOS>BOND
     1     1     2    1
     2     2     3    1
     3     2     4    1
     4     4     5    2
     5     5     6    1
     6     6     7    2
     7     6     8    1
     8     8     9    1
     9     8    10    2
    10    10    11    1
    11     4    11    1
    12    11    12    2
    13     1    13    1
    14     1    14    1
    15     1    15    1
    16     2    16    1
    17     3    17    1
    18     3    18    1
    19     3    19    1
    20     5    20    1
    21     9    21    1
    22     9    22    1
    23     9    23    1
    24    10    24    1
