@<TRIPOS>MOLECULE
mol_699_akc_jparint2021102458
>680.sdf
 58 63 0 0 0
SMALL
GASTEIGER

@<TRIPOS>ATOM
      1 O           2.1365   -0.2171    0.5235 O.3     1  UNL1       -0.5068
      2 C           0.7955   -0.0889    0.3227 C.ar    1  UNL1        0.1169
      3 C          -0.1169   -0.2349    1.3607 C.ar    1  UNL1       -0.0195
      4 C          -1.4871   -0.2030    1.0790 C.ar    1  UNL1       -0.0476
      5 C          -1.9525   -0.0217   -0.2341 C.ar    1  UNL1        0.0176
      6 C          -1.0034    0.1264   -1.2612 C.ar    1  UNL1       -0.0476
      7 C           0.3644    0.1091   -0.9820 C.ar    1  UNL1       -0.0195
      8 C          -3.4059   -0.0044   -0.5125 C.ar    1  UNL1        0.1393
      9 C          -3.9168    0.7724   -1.4755 C.ar    1  UNL1        0.0288
     10 C          -5.3631    0.7782   -1.6853 C.ar    1  UNL1        0.1966
     11 O          -5.8734    1.4914   -2.5425 O.2     1  UNL1       -0.2869
     12 C          -6.1704   -0.1169   -0.8481 C.ar    1  UNL1        0.1061
     13 C          -7.5517   -0.1719   -1.0219 C.ar    1  UNL1        0.1347
     14 O          -8.2358    0.6149   -1.9072 O.3     1  UNL1       -0.5058
     15 C          -8.2951   -1.0669   -0.2782 C.ar    1  UNL1        0.0229
     16 C          -7.6567   -1.9164    0.6312 C.ar    1  UNL1        0.1317
     17 O          -8.5152   -2.7926    1.2447 O.3     1  UNL1       -0.5059
     18 C          -6.2570   -1.8890    0.8702 C.ar    1  UNL1        0.0702
     19 C          -5.5295   -0.9353    0.1001 C.ar    1  UNL1        0.1541
     20 O          -4.1673   -0.8176    0.3144 O.2     1  UNL1       -0.4537
     21 C          -5.5714   -2.8386    1.8232 C.ar    1  UNL1        0.0313
     22 C          -4.3356   -3.4482    1.4800 C.ar    1  UNL1       -0.0396
     23 C          -3.6434   -4.3321    2.3372 C.ar    1  UNL1        0.0182
     24 C          -4.2376   -4.6521    3.5647 C.ar    1  UNL1       -0.0476
     25 C          -5.4590   -4.0987    3.9337 C.ar    1  UNL1       -0.0189
     26 C          -6.0923   -3.1884    3.0872 C.ar    1  UNL1        0.1248
     27 O          -7.2775   -2.6442    3.5187 O.3     1  UNL1       -0.5062
     28 C          -2.2950   -4.8554    1.9911 C.ar    1  UNL1        0.1392
     29 C          -1.8386   -6.0179    2.4766 C.ar    1  UNL1        0.0288
     30 C          -0.4482   -6.4191    2.2217 C.ar    1  UNL1        0.1966
     31 O           0.0181   -7.4500    2.6900 O.2     1  UNL1       -0.2869
     32 C           0.3670   -5.5152    1.4093 C.ar    1  UNL1        0.1055
     33 C           1.7154   -5.7817    1.1431 C.ar    1  UNL1        0.1347
     34 O           2.3704   -6.8765    1.6383 O.3     1  UNL1       -0.5058
     35 C           2.4558   -4.9105    0.3510 C.ar    1  UNL1        0.0223
     36 C           1.8389   -3.7835   -0.1780 C.ar    1  UNL1        0.1239
     37 O           2.5980   -2.9452   -0.9394 O.3     1  UNL1       -0.5065
     38 C           0.4930   -3.5196    0.0704 C.ar    1  UNL1        0.0231
     39 C          -0.2396   -4.3743    0.8924 C.ar    1  UNL1        0.1462
     40 O          -1.5430   -4.0256    1.1634 O.2     1  UNL1       -0.4544
     41 H           2.2978   -0.4543    1.4538 H       1  UNL1        0.2921
     42 H           0.2109   -0.3945    2.3834 H       1  UNL1        0.0654
     43 H          -2.1921   -0.3253    1.9000 H       1  UNL1        0.0626
     44 H          -1.3099    0.2396   -2.2990 H       1  UNL1        0.0626
     45 H           1.0869    0.2187   -1.7868 H       1  UNL1        0.0654
     46 H          -3.3354    1.4239   -2.1143 H       1  UNL1        0.0693
     47 H          -7.5874    1.1694   -2.3972 H       1  UNL1        0.2922
     48 H          -9.3731   -1.1189   -0.4083 H       1  UNL1        0.0691
     49 H          -8.1800   -2.9204    2.1525 H       1  UNL1        0.2922
     50 H          -3.8924   -3.2329    0.5081 H       1  UNL1        0.0632
     51 H          -3.7555   -5.3245    4.2706 H       1  UNL1        0.0626
     52 H          -5.8969   -4.3862    4.8860 H       1  UNL1        0.0654
     53 H          -7.3893   -2.8390    4.4677 H       1  UNL1        0.2922
     54 H          -2.4113   -6.6938    3.0993 H       1  UNL1        0.0693
     55 H           1.7282   -7.4122    2.1561 H       1  UNL1        0.2922
     56 H           3.5045   -5.1085    0.1475 H       1  UNL1        0.0691
     57 H           2.1620   -2.0752   -0.9868 H       1  UNL1        0.2921
     58 H           0.0012   -2.6640   -0.3734 H       1  UNL1        0.0691
@<TRIPOS>BOND
     1     1     2    1
     2     2     3   ar
     3     3     4   ar
     4     4     5   ar
     5     5     6   ar
     6     6     7   ar
     7     2     7   ar
     8     5     8    1
     9     8     9   ar
    10     9    10   ar
    11    10    11    2
    12    10    12   ar
    13    12    13   ar
    14    13    14    1
    15    13    15   ar
    16    15    16   ar
    17    16    17    1
    18    16    18   ar
    19    18    19   ar
    20    12    19   ar
    21    19    20   ar
    22     8    20   ar
    23    18    21    1
    24    21    22   ar
    25    22    23   ar
    26    23    24   ar
    27    24    25   ar
    28    25    26   ar
    29    21    26   ar
    30    26    27    1
    31    23    28    1
    32    28    29   ar
    33    29    30   ar
    34    30    31    2
    35    30    32   ar
    36    32    33   ar
    37    33    34    1
    38    33    35   ar
    39    35    36   ar
    40    36    37    1
    41    36    38   ar
    42    38    39   ar
    43    32    39   ar
    44    39    40   ar
    45    28    40   ar
    46     1    41    1
    47     3    42    1
    48     4    43    1
    49     6    44    1
    50     7    45    1
    51     9    46    1
    52    14    47    1
    53    15    48    1
    54    17    49    1
    55    22    50    1
    56    24    51    1
    57    25    52    1
    58    27    53    1
    59    29    54    1
    60    34    55    1
    61    35    56    1
    62    37    57    1
    63    38    58    1
