@<TRIPOS>MOLECULE
mol_700_akc_jintimp2022108952
>681.sdf
 23 22 0 0 0
SMALL
GASTEIGER

@<TRIPOS>ATOM
      1 C           1.5863    0.0906    3.0387 C.3     1  UNL1        0.0322
      2 C           2.9326    0.5675    2.5213 C.3     1  UNL1       -0.0318
      3 N           2.9718    0.5643    1.0513 N.4     1  UNL1        0.2186
      4 C           0.9694   -1.1052    2.2810 C.3     1  UNL1        0.1966
      5 O           0.6361   -0.6117    0.9183 O.3     1  UNL1       -0.3720
      6 P           2.2837   -2.4260    1.9761 P.3     1  UNL1        0.1738
      7 O           1.7927   -3.8067    1.7096 O.2     1  UNL1       -0.3036
      8 O           3.0452   -2.4892    3.3994 O.3     1  UNL1       -0.3512
      9 O           3.3207   -1.8105    1.0346 O.co2   1  UNL1       -0.7791
     10 P          -0.7009   -1.4981    3.0058 P.3     1  UNL1        0.1738
     11 O          -1.5533   -2.1949    1.9767 O.2     1  UNL1       -0.3036
     12 O          -1.3650   -0.0044    2.9909 O.3     1  UNL1       -0.3512
     13 O          -0.6758   -1.8447    4.4681 O.co2   1  UNL1       -0.7791
     14 H           0.8991    0.9427    2.9838 H       1  UNL1        0.0355
     15 H           1.6853   -0.1589    4.1012 H       1  UNL1        0.0355
     16 H           3.1166    1.5990    2.8409 H       1  UNL1        0.0814
     17 H           3.7684   -0.0420    2.8768 H       1  UNL1        0.0814
     18 H           2.0429    0.7079    0.6271 H       1  UNL1        0.1994
     19 H           3.7304    1.0697    0.6025 H       1  UNL1        0.1994
     20 H           3.1566   -0.4503    0.7965 H       1  UNL1        0.1994
     21 H          -0.0915   -1.2448    0.6785 H       1  UNL1        0.2114
     22 H           3.5292   -3.3368    3.3871 H       1  UNL1        0.2167
     23 H          -2.2912   -0.1738    3.2435 H       1  UNL1        0.2167
@<TRIPOS>UNITY_ATOM_ATTR
3 1
charge 1
9 1
charge -1
13 1
charge -1
@<TRIPOS>BOND
     1     1     2    1
     2     2     3    1
     3     1     4    1
     4     4     5    1
     5     6     8    1
     6     6     9    1
     7    10    12    1
     8    10    13    1
     9     1    14    1
    10     1    15    1
    11     2    16    1
    12     2    17    1
    13     3    18    1
    14     3    19    1
    15     3    20    1
    16     5    21    1
    17     8    22    1
    18    12    23    1
    19     6     7    2
    20     6     4    1
    21    10    11    2
    22    10     4    1
