@<TRIPOS>MOLECULE
mol_701_akc_s41598_022_15449_3
>682.sdf
 53 55 0 0 0
SMALL
GASTEIGER

@<TRIPOS>ATOM
      1 C           1.3129   -0.2623    0.4199 C.ar    1  UNL1       -0.0501
      2 C           0.4648   -1.3584    0.6272 C.ar    1  UNL1       -0.0195
      3 C          -0.9203   -1.2131    0.5423 C.ar    1  UNL1        0.1210
      4 C          -1.4471    0.0391    0.2260 C.ar    1  UNL1       -0.0195
      5 C          -0.6032    1.1370    0.0096 C.ar    1  UNL1       -0.0501
      6 C           0.7878    1.0015    0.1148 C.ar    1  UNL1       -0.0027
      7 C           0.1540    4.7317    3.4018 C.ar    1  UNL1       -0.0535
      8 C           1.4393    4.4593    2.9048 C.ar    1  UNL1       -0.0030
      9 C           2.4417    5.4324    3.0439 C.ar    1  UNL1       -0.0535
     10 C           2.1645    6.6469    3.6747 C.ar    1  UNL1       -0.0613
     11 C           0.8868    6.9042    4.1673 C.ar    1  UNL1       -0.0617
     12 C          -0.1170    5.9471    4.0324 C.ar    1  UNL1       -0.0613
     13 N           1.4557    3.3554    0.7154 N.4     1  UNL1        0.2336
     14 C           1.7010    2.1674   -0.1491 C.3     1  UNL1       -0.0074
     15 C           1.7140    3.1756    2.1727 C.3     1  UNL1       -0.0074
     16 O          -1.6487   -2.3542    0.7689 O.3     1  UNL1       -0.4874
     17 C          -3.0534   -2.1587    0.9453 C.3     1  UNL1        0.1147
     18 C          -3.7869   -3.4336    1.2931 C.ar    1  UNL1       -0.0067
     19 C          -3.5783   -4.6188    0.5879 C.ar    1  UNL1       -0.0517
     20 C          -4.3780   -5.7357    0.8456 C.ar    1  UNL1       -0.0159
     21 C          -5.3997   -5.6943    1.8041 C.ar    1  UNL1        0.1615
     22 C          -5.6327   -4.5032    2.5066 C.ar    1  UNL1        0.1618
     23 C          -4.8089   -3.3939    2.2571 C.ar    1  UNL1       -0.0099
     24 O          -6.1154   -6.8615    1.8738 O.3     1  UNL1       -0.4915
     25 O          -6.6487   -4.4539    3.4245 O.3     1  UNL1       -0.4914
     26 C          -6.7788   -7.1537    3.0960 C.3     1  UNL1        0.0790
     27 C          -7.3020   -3.1986    3.5761 C.3     1  UNL1        0.0790
     28 H           2.3875   -0.4281    0.4863 H       1  UNL1        0.0623
     29 H           0.8876   -2.3361    0.8527 H       1  UNL1        0.0654
     30 H          -2.5163    0.1964    0.1149 H       1  UNL1        0.0654
     31 H          -1.0645    2.0834   -0.2637 H       1  UNL1        0.0623
     32 H          -0.6490    4.0017    3.3196 H       1  UNL1        0.0622
     33 H           3.4525    5.2607    2.6786 H       1  UNL1        0.0622
     34 H           2.9454    7.3964    3.7920 H       1  UNL1        0.0618
     35 H           0.6750    7.8487    4.6647 H       1  UNL1        0.0618
     36 H          -1.1104    6.1511    4.4276 H       1  UNL1        0.0618
     37 H           2.0394    4.1334    0.3870 H       1  UNL1        0.2020
     38 H           0.4886    3.6773    0.6005 H       1  UNL1        0.2020
     39 H           2.7556    1.8980   -0.0227 H       1  UNL1        0.0867
     40 H           1.5639    2.5064   -1.1816 H       1  UNL1        0.0867
     41 H           1.0663    2.3731    2.5404 H       1  UNL1        0.0867
     42 H           2.7594    2.8669    2.2907 H       1  UNL1        0.0867
     43 H          -3.2068   -1.4324    1.7534 H       1  UNL1        0.0748
     44 H          -3.5016   -1.7786    0.0187 H       1  UNL1        0.0748
     45 H          -2.8064   -4.6823   -0.1769 H       1  UNL1        0.0623
     46 H          -4.2150   -6.6526    0.2820 H       1  UNL1        0.0655
     47 H          -4.9629   -2.4708    2.8082 H       1  UNL1        0.0659
     48 H          -6.1188   -7.0126    3.9581 H       1  UNL1        0.0660
     49 H          -7.7044   -6.5789    3.1930 H       1  UNL1        0.0660
     50 H          -7.0644   -8.2103    3.0690 H       1  UNL1        0.0660
     51 H          -6.6987   -2.5150    4.1802 H       1  UNL1        0.0660
     52 H          -7.5502   -2.7505    2.6062 H       1  UNL1        0.0660
     53 H          -8.2408   -3.3707    4.1139 H       1  UNL1        0.0660
@<TRIPOS>UNITY_ATOM_ATTR
13 1
charge 1
@<TRIPOS>BOND
     1     1     2   ar
     2     2     3   ar
     3     3     4   ar
     4     4     5   ar
     5     5     6   ar
     6     1     6   ar
     7     7     8   ar
     8     8     9   ar
     9     9    10   ar
    10    10    11   ar
    11    11    12   ar
    12     7    12   ar
    13     6    14    1
    14    14    13    1
    15    13    15    1
    16    15     8    1
    17     3    16    1
    18    16    17    1
    19    17    18    1
    20    19    20   ar
    21    20    21   ar
    22    21    22   ar
    23    22    23   ar
    24    23    18   ar
    25    19    18   ar
    26    21    24    1
    27    22    25    1
    28    24    26    1
    29    25    27    1
    30     1    28    1
    31     2    29    1
    32     4    30    1
    33     5    31    1
    34     7    32    1
    35     9    33    1
    36    10    34    1
    37    11    35    1
    38    12    36    1
    39    13    37    1
    40    13    38    1
    41    14    39    1
    42    14    40    1
    43    15    41    1
    44    15    42    1
    45    17    43    1
    46    17    44    1
    47    19    45    1
    48    20    46    1
    49    23    47    1
    50    26    48    1
    51    26    49    1
    52    26    50    1
    53    27    51    1
    54    27    52    1
    55    27    53    1
