@<TRIPOS>MOLECULE
mol_702_akc_jjpba2021114469
>683.sdf
 46 48 0 0 0
SMALL
GASTEIGER

@<TRIPOS>ATOM
      1 C          -0.5744    5.8454   -2.8738 C.3     1  UNL1       -0.0433
      2 N          -1.3423    4.5759   -3.1336 N.4     1  UNL1        0.2309
      3 C          -1.6877    4.4473   -4.5960 C.3     1  UNL1       -0.0433
      4 C          -0.6502    3.3293   -2.6190 C.3     1  UNL1       -0.0323
      5 C          -0.4621    3.3307   -1.0999 C.3     1  UNL1       -0.0093
      6 C          -1.7805    3.3979   -0.3010 C.3     1  UNL1       -0.0105
      7 C          -1.5742    3.5519    1.2297 C.3     1  UNL1        0.1202
      8 O          -0.8098    4.7931    1.3718 O.3     1  UNL1       -0.3595
      9 C          -1.5864    5.8204    2.0246 C.3     1  UNL1        0.0747
     10 C          -2.8800    5.1839    2.3561 C.ar    1  UNL1       -0.0144
     11 C          -3.9699    5.7522    3.0068 C.ar    1  UNL1       -0.0386
     12 C          -5.0895    4.9497    3.2654 C.ar    1  UNL1        0.0521
     13 C          -5.0877    3.6051    2.8675 C.ar    1  UNL1       -0.0440
     14 C          -3.9887    3.0612    2.1897 C.ar    1  UNL1       -0.0540
     15 C          -2.8804    3.8628    1.9329 C.ar    1  UNL1       -0.0060
     16 C          -6.2340    5.5006    3.9299 C.1     1  UNL1        0.0992
     17 N          -7.1677    5.9545    4.4512 N.1     1  UNL1       -0.1909
     18 C          -0.8132    2.3809    1.8590 C.ar    1  UNL1       -0.0113
     19 C           0.4250    2.5694    2.5021 C.ar    1  UNL1       -0.0528
     20 C           1.0430    1.5242    3.1963 C.ar    1  UNL1       -0.0261
     21 C           0.4286    0.2821    3.2584 C.ar    1  UNL1        0.1234
     22 F           0.9838   -0.6983    3.9813 F       1  UNL1       -0.2055
     23 C          -0.7570    0.0446    2.5813 C.ar    1  UNL1       -0.0261
     24 C          -1.3571    1.0794    1.8602 C.ar    1  UNL1       -0.0528
     25 H           0.4185    5.7516   -3.3207 H       1  UNL1        0.0777
     26 H          -0.5140    6.0001   -1.7947 H       1  UNL1        0.0777
     27 H          -1.1280    6.6753   -3.3217 H       1  UNL1        0.0777
     28 H          -2.2425    4.6649   -2.6482 H       1  UNL1        0.2028
     29 H          -0.7618    4.3426   -5.1674 H       1  UNL1        0.0777
     30 H          -2.3290    3.5703   -4.7167 H       1  UNL1        0.0777
     31 H          -2.2347    5.3459   -4.8951 H       1  UNL1        0.0777
     32 H          -1.2672    2.4750   -2.9183 H       1  UNL1        0.0814
     33 H           0.3167    3.2622   -3.1312 H       1  UNL1        0.0814
     34 H           0.0687    2.4085   -0.8334 H       1  UNL1        0.0318
     35 H           0.2078    4.1498   -0.8165 H       1  UNL1        0.0318
     36 H          -2.3427    4.2746   -0.6465 H       1  UNL1        0.0301
     37 H          -2.3944    2.5202   -0.5338 H       1  UNL1        0.0301
     38 H          -1.7110    6.6517    1.3252 H       1  UNL1        0.0610
     39 H          -1.0502    6.1499    2.9184 H       1  UNL1        0.0610
     40 H          -3.9536    6.7921    3.3164 H       1  UNL1        0.0634
     41 H          -5.9442    2.9677    3.0907 H       1  UNL1        0.0630
     42 H          -4.0269    2.0161    1.9031 H       1  UNL1        0.0622
     43 H           0.9162    3.5405    2.4932 H       1  UNL1        0.0622
     44 H           1.9855    1.6801    3.7125 H       1  UNL1        0.0646
     45 H          -1.2185   -0.9370    2.6377 H       1  UNL1        0.0646
     46 H          -2.2803    0.8548    1.3340 H       1  UNL1        0.0622
@<TRIPOS>UNITY_ATOM_ATTR
2 1
charge 1
@<TRIPOS>BOND
     1     1     2    1
     2     2     3    1
     3     2     4    1
     4     4     5    1
     5     5     6    1
     6     7     8    1
     7     8     9    1
     8     9    10    1
     9    10    11   ar
    10    11    12   ar
    11    12    13   ar
    12    13    14   ar
    13    14    15   ar
    14     7    15    1
    15    10    15   ar
    16    12    16    1
    17    16    17    3
    18    18    19   ar
    19    19    20   ar
    20    20    21   ar
    21    21    22    1
    22    21    23   ar
    23    23    24   ar
    24    18    24   ar
    25     1    25    1
    26     1    26    1
    27     1    27    1
    28     2    28    1
    29     3    29    1
    30     3    30    1
    31     3    31    1
    32     4    32    1
    33     4    33    1
    34     5    34    1
    35     5    35    1
    36     6    36    1
    37     6    37    1
    38     9    38    1
    39     9    39    1
    40    11    40    1
    41    13    41    1
    42    14    42    1
    43    19    43    1
    44    20    44    1
    45    23    45    1
    46    24    46    1
    47     7    18    1
    48     7     6    1
