@<TRIPOS>MOLECULE
mol_703_akc_books978_3_0365_3766_5
>684.sdf
 40 41 0 0 0
SMALL
GASTEIGER

@<TRIPOS>ATOM
      1 C          -1.3702    3.4678    2.9803 C.2     1  UNL1        0.2454
      2 N          -2.2841    4.1706    2.2016 N.am    1  UNL1       -0.2383
      3 C          -2.4137    5.6222    2.3318 C.3     1  UNL1        0.0260
      4 C          -1.9267    6.2284    3.6434 C.3     1  UNL1       -0.0180
      5 C          -0.7088    5.5409    4.1500 C.2     1  UNL1       -0.0776
      6 C          -0.4508    4.2664    3.8326 C.2     1  UNL1       -0.0031
      7 C          -2.9145    3.6366    1.0659 C.2     1  UNL1        0.2223
      8 O          -3.6618    4.3236    0.3609 O.2     1  UNL1       -0.2752
      9 O          -1.2802    2.2459    3.0547 O.2     1  UNL1       -0.2702
     10 C          -2.5983    2.2008    0.6731 C.3     1  UNL1        0.0285
     11 C          -3.2383    1.8197   -0.6646 C.3     1  UNL1       -0.0193
     12 C          -2.8219    0.4326   -1.0930 C.ar    1  UNL1       -0.0432
     13 C          -3.5105   -0.6878   -0.6243 C.ar    1  UNL1       -0.0549
     14 C          -3.0916   -1.9678   -0.9848 C.ar    1  UNL1       -0.0160
     15 C          -1.9608   -2.1529   -1.7884 C.ar    1  UNL1        0.1615
     16 C          -1.2631   -1.0359   -2.2755 C.ar    1  UNL1        0.1617
     17 C          -1.7117    0.2496   -1.9345 C.ar    1  UNL1       -0.0131
     18 O          -0.2011   -1.2520   -3.1135 O.3     1  UNL1       -0.4914
     19 C           0.7890   -0.2323   -3.1697 C.3     1  UNL1        0.0790
     20 O          -1.6761   -3.4712   -2.0426 O.3     1  UNL1       -0.4915
     21 C          -0.2942   -3.8032   -2.1160 C.3     1  UNL1        0.0790
     22 H          -1.8557    6.0640    1.4958 H       1  UNL1        0.0472
     23 H          -3.4658    5.9036    2.1885 H       1  UNL1        0.0472
     24 H          -1.7132    7.2918    3.4869 H       1  UNL1        0.0323
     25 H          -2.7083    6.1668    4.4097 H       1  UNL1        0.0323
     26 H          -0.0441    6.0764    4.8193 H       1  UNL1        0.0574
     27 H           0.3996    3.7332    4.2389 H       1  UNL1        0.0666
     28 H          -1.5095    2.0973    0.5867 H       1  UNL1        0.0362
     29 H          -2.9670    1.5298    1.4561 H       1  UNL1        0.0362
     30 H          -4.3324    1.8689   -0.5917 H       1  UNL1        0.0318
     31 H          -2.9594    2.5411   -1.4434 H       1  UNL1        0.0318
     32 H          -4.3758   -0.5740    0.0247 H       1  UNL1        0.0621
     33 H          -3.6376   -2.8345   -0.6202 H       1  UNL1        0.0655
     34 H          -1.2128    1.1303   -2.3281 H       1  UNL1        0.0658
     35 H           0.5081    0.5255   -3.9073 H       1  UNL1        0.0660
     36 H           0.9783    0.2228   -2.1913 H       1  UNL1        0.0660
     37 H           1.7241   -0.6961   -3.4989 H       1  UNL1        0.0660
     38 H           0.0855   -3.6524   -3.1307 H       1  UNL1        0.0660
     39 H           0.3058   -3.2578   -1.3787 H       1  UNL1        0.0660
     40 H          -0.1980   -4.8703   -1.8919 H       1  UNL1        0.0660
@<TRIPOS>BOND
     1     1     2   am
     2     2     3    1
     3     3     4    1
     4     4     5    1
     5     5     6    2
     6     1     6    1
     7     2     7   am
     8     7     8    2
     9     1     9    2
    10     7    10    1
    11    10    11    1
    12    11    12    1
    13    13    14   ar
    14    14    15   ar
    15    15    16   ar
    16    16    17   ar
    17    17    12   ar
    18    13    12   ar
    19    16    18    1
    20    18    19    1
    21    15    20    1
    22    20    21    1
    23     3    22    1
    24     3    23    1
    25     4    24    1
    26     4    25    1
    27     5    26    1
    28     6    27    1
    29    10    28    1
    30    10    29    1
    31    11    30    1
    32    11    31    1
    33    13    32    1
    34    14    33    1
    35    17    34    1
    36    19    35    1
    37    19    36    1
    38    19    37    1
    39    21    38    1
    40    21    39    1
    41    21    40    1
