@<TRIPOS>MOLECULE
mol_704_akc_biomedicines10051136
>685.sdf
 26 27 0 0 0
SMALL
GASTEIGER

@<TRIPOS>ATOM
      1 C           1.7939    1.8245    0.0000 C.ar    1  UNL1       -0.0502
      2 C           3.1485    1.4953   -0.0182 C.ar    1  UNL1       -0.0610
      3 C           3.5364    0.1574   -0.0531 C.ar    1  UNL1       -0.0610
      4 C           2.5688   -0.8516   -0.0895 C.ar    1  UNL1       -0.0502
      5 C           1.2068   -0.5213   -0.0754 C.ar    1  UNL1        0.0344
      6 C           0.8230    0.8118   -0.0144 C.ar    1  UNL1        0.0340
      7 C          -0.5975    1.1733    0.0689 C.2     1  UNL1        0.2068
      8 C           0.1882   -1.5838   -0.1256 C.2     1  UNL1        0.2094
      9 C          -1.2637   -1.2164   -0.0052 C.2     1  UNL1        0.1061
     10 C          -1.5967    0.0745    0.1760 C.2     1  UNL1        0.1131
     11 O          -0.9146    2.3585    0.0589 O.2     1  UNL1       -0.2856
     12 O           0.5141   -2.7637   -0.2380 O.2     1  UNL1       -0.2852
     13 CL         -3.1580    0.6101    0.7155 Cl      1  UNL1       -0.0775
     14 N          -2.1023   -2.3210   -0.0344 N.am    1  UNL1       -0.2463
     15 C          -3.3939   -2.4003   -0.4741 C.2     1  UNL1        0.4044
     16 O          -4.0516   -1.5063   -0.9826 O.2     1  UNL1       -0.2261
     17 O          -3.8348   -3.6762   -0.3200 O.3     1  UNL1       -0.4535
     18 C          -5.1979   -3.8977   -0.6970 C.3     1  UNL1        0.0833
     19 H           1.4971    2.8721    0.0352 H       1  UNL1        0.0625
     20 H           3.8983    2.2838    0.0020 H       1  UNL1        0.0618
     21 H           4.5937   -0.0998   -0.0543 H       1  UNL1        0.0618
     22 H           2.8864   -1.8928   -0.1219 H       1  UNL1        0.0625
     23 H          -1.6421   -3.2272    0.0179 H       1  UNL1        0.1583
     24 H          -5.8360   -3.7599    0.1808 H       1  UNL1        0.0661
     25 H          -5.5324   -3.2443   -1.5095 H       1  UNL1        0.0661
     26 H          -5.2928   -4.9321   -1.0389 H       1  UNL1        0.0661
@<TRIPOS>BOND
     1     1     2   ar
     2     2     3   ar
     3     3     4   ar
     4     4     5   ar
     5     5     6   ar
     6     1     6   ar
     7     8     9    1
     8     9    10    2
     9     7    10    1
    10     5     8    1
    11     7     6    1
    12     7    11    2
    13     8    12    2
    14    10    13    1
    15     9    14    1
    16    14    15   am
    17    15    16    2
    18    15    17    1
    19    17    18    1
    20     1    19    1
    21     2    20    1
    22     3    21    1
    23     4    22    1
    24    14    23    1
    25    18    24    1
    26    18    25    1
    27    18    26    1
