@<TRIPOS>MOLECULE
mol_705_akc_jparint2022102647
>686.sdf
 62 66 0 0 0
SMALL
GASTEIGER

@<TRIPOS>ATOM
      1 C           0.0719    0.3548   -2.0828 C.2     1  UNL1        0.2537
      2 N           0.8181    1.3567   -2.7039 N.am    1  UNL1       -0.2341
      3 C           0.2760    2.4518   -3.3757 C.2     1  UNL1        0.2537
      4 C          -1.1870    2.4385   -3.6019 C.ar    1  UNL1        0.0457
      5 C          -1.9683    1.4403   -3.0050 C.ar    1  UNL1        0.0064
      6 C          -1.3976    0.4180   -2.2376 C.ar    1  UNL1        0.0457
      7 C          -1.7751    3.4367   -4.3886 C.ar    1  UNL1       -0.0490
      8 C          -3.1543    3.4474   -4.5785 C.ar    1  UNL1       -0.0605
      9 C          -3.9482    2.4751   -3.9687 C.ar    1  UNL1       -0.0540
     10 C          -3.3719    1.4704   -3.1754 C.ar    1  UNL1       -0.0164
     11 C          -2.1980   -0.5501   -1.6189 C.ar    1  UNL1       -0.0490
     12 C          -4.1637    0.4966   -2.5449 C.ar    1  UNL1       -0.0540
     13 C          -3.5807   -0.5033   -1.7660 C.ar    1  UNL1       -0.0605
     14 O           0.5771   -0.5399   -1.4069 O.2     1  UNL1       -0.2695
     15 O           0.9451    3.4142   -3.7471 O.2     1  UNL1       -0.2695
     16 C           2.2595    1.3377   -2.4992 C.3     1  UNL1        0.0230
     17 C           2.6442    2.0276   -1.1855 C.3     1  UNL1       -0.0365
     18 C           4.1595    2.0415   -0.9857 C.3     1  UNL1       -0.0468
     19 C           4.5361    2.7222    0.3332 C.3     1  UNL1       -0.0125
     20 C           6.0430    2.8217    0.5758 C.3     1  UNL1       -0.0318
     21 N           6.7645    3.5744   -0.5161 N.4     1  UNL1        0.2374
     22 C           6.3182    5.0346   -0.6631 C.3     1  UNL1       -0.0158
     23 C           7.0596    5.7094   -1.8298 C.3     1  UNL1        0.0525
     24 N           8.5155    5.5641   -1.7012 N.pl3   1  UNL1       -0.3197
     25 C           9.0156    4.1921   -1.5068 C.3     1  UNL1        0.0525
     26 C           8.2895    3.5080   -0.3269 C.3     1  UNL1       -0.0158
     27 C           9.3031    6.6205   -1.2580 C.ar    1  UNL1        0.0314
     28 C           8.8247    7.6271   -0.4052 C.ar    1  UNL1       -0.0406
     29 C           9.6360    8.6963   -0.0045 C.ar    1  UNL1       -0.0586
     30 C          10.9456    8.7898   -0.4635 C.ar    1  UNL1       -0.0433
     31 C          11.4374    7.8091   -1.3152 C.ar    1  UNL1        0.0427
     32 C          10.6304    6.7360   -1.7022 C.ar    1  UNL1       -0.0223
     33 CL         13.0462    7.9233   -1.9132 Cl      1  UNL1       -0.0835
     34 H          -1.1627    4.2054   -4.8561 H       1  UNL1        0.0625
     35 H          -3.6141    4.2155   -5.1964 H       1  UNL1        0.0618
     36 H          -5.0262    2.5074   -4.1206 H       1  UNL1        0.0624
     37 H          -1.7480   -1.3401   -1.0206 H       1  UNL1        0.0625
     38 H          -5.2472    0.5122   -2.6524 H       1  UNL1        0.0624
     39 H          -4.2064   -1.2491   -1.2789 H       1  UNL1        0.0618
     40 H           2.6118    0.2989   -2.4913 H       1  UNL1        0.0470
     41 H           2.7542    1.8356   -3.3410 H       1  UNL1        0.0470
     42 H           2.2660    3.0583   -1.1873 H       1  UNL1        0.0281
     43 H           2.1625    1.5202   -0.3414 H       1  UNL1        0.0281
     44 H           4.5445    1.0148   -0.9891 H       1  UNL1        0.0268
     45 H           4.6141    2.5638   -1.8337 H       1  UNL1        0.0268
     46 H           4.0769    3.7156    0.3872 H       1  UNL1        0.0317
     47 H           4.0987    2.1499    1.1615 H       1  UNL1        0.0317
     48 H           6.2520    3.3354    1.5212 H       1  UNL1        0.0814
     49 H           6.4814    1.8187    0.6129 H       1  UNL1        0.0814
     50 H           6.5764    3.1091   -1.4120 H       1  UNL1        0.2034
     51 H           6.5180    5.5259    0.2940 H       1  UNL1        0.0830
     52 H           5.2448    5.0366   -0.8686 H       1  UNL1        0.0830
     53 H           6.7519    6.7563   -1.9278 H       1  UNL1        0.0516
     54 H           6.7560    5.2216   -2.7661 H       1  UNL1        0.0516
     55 H           8.8259    3.6232   -2.4251 H       1  UNL1        0.0516
     56 H          10.0958    4.1515   -1.3279 H       1  UNL1        0.0516
     57 H           8.5608    2.4485   -0.2740 H       1  UNL1        0.0830
     58 H           8.5146    3.9998    0.6258 H       1  UNL1        0.0830
     59 H           7.8109    7.6067   -0.0187 H       1  UNL1        0.0636
     60 H           9.2410    9.4627    0.6591 H       1  UNL1        0.0619
     61 H          11.5692    9.6289   -0.1654 H       1  UNL1        0.0632
     62 H          11.0346    6.0094   -2.4032 H       1  UNL1        0.0651
@<TRIPOS>UNITY_ATOM_ATTR
21 1
charge 1
@<TRIPOS>BOND
     1     1     2   am
     2     1     6    1
     3     1    14    2
     4     2     3   am
     5     2    16    1
     6     3     4    1
     7     3    15    2
     8     4     7   ar
     9     5    10   ar
    10     5     4   ar
    11     6     5   ar
    12     7     8   ar
    13     7    34    1
    14     8     9   ar
    15     8    35    1
    16     9    10   ar
    17     9    36    1
    18    10    12   ar
    19    11    13   ar
    20    11     6   ar
    21    11    37    1
    22    12    13   ar
    23    12    38    1
    24    13    39    1
    25    16    17    1
    26    16    40    1
    27    16    41    1
    28    17    18    1
    29    17    42    1
    30    17    43    1
    31    18    19    1
    32    18    44    1
    33    18    45    1
    34    19    20    1
    35    19    46    1
    36    19    47    1
    37    20    21    1
    38    20    48    1
    39    20    49    1
    40    21    50    1
    41    22    23    1
    42    22    21    1
    43    22    51    1
    44    22    52    1
    45    23    24    1
    46    23    53    1
    47    23    54    1
    48    24    25    1
    49    24    27    1
    50    25    26    1
    51    25    55    1
    52    25    56    1
    53    26    21    1
    54    26    57    1
    55    26    58    1
    56    27    28   ar
    57    27    32   ar
    58    28    29   ar
    59    28    59    1
    60    29    30   ar
    61    29    60    1
    62    30    31   ar
    63    30    61    1
    64    31    32   ar
    65    31    33    1
    66    32    62    1
