@<TRIPOS>MOLECULE
mol_706_akc_21_82
>687.sdf
 73 76 0 0 0
SMALL
GASTEIGER

@<TRIPOS>ATOM
      1 C          -2.2411   -1.5169    0.2160 C.3     1  UNL1       -0.0367
      2 C          -3.7267   -1.3328   -0.0578 C.3     1  UNL1        0.0107
      3 C          -4.1629    0.0376    0.3956 C.2     1  UNL1        0.1561
      4 C          -3.2236    1.1632    0.1956 C.2     1  UNL1       -0.0194
      5 C          -1.9631    0.9670   -0.2341 C.2     1  UNL1       -0.0601
      6 C          -1.0855    2.1552   -0.5652 C.3     1  UNL1       -0.0305
      7 C           0.3130    2.0664    0.0440 C.3     1  UNL1       -0.0459
      8 C           0.9836    0.7139   -0.2416 C.3     1  UNL1       -0.0338
      9 C           0.0651   -0.4371    0.2647 C.3     1  UNL1       -0.0288
     10 C          -1.3468   -0.4216   -0.4350 C.3     1  UNL1       -0.0072
     11 C           0.7537   -1.8206    0.2306 C.3     1  UNL1       -0.0487
     12 C           2.1956   -1.8309    0.7583 C.3     1  UNL1       -0.0468
     13 C           3.0755   -0.7438    0.1107 C.3     1  UNL1       -0.0259
     14 C           2.3638    0.5990    0.4230 C.3     1  UNL1       -0.0322
     15 C           3.4056    1.6481    0.0762 C.3     1  UNL1       -0.0492
     16 C           4.7293    1.0190    0.5295 C.3     1  UNL1       -0.0492
     17 C           4.4775   -0.4993    0.7860 C.3     1  UNL1       -0.0328
     18 C           3.2272   -1.0189   -1.4063 C.3     1  UNL1       -0.0590
     19 C          -1.2518   -0.7023   -1.9540 C.3     1  UNL1       -0.0556
     20 C           5.6941   -1.3667    0.3268 C.3     1  UNL1       -0.0403
     21 C           5.5097   -2.8775    0.5128 C.3     1  UNL1       -0.0621
     22 C           7.0735   -0.9461    0.9130 C.3     1  UNL1       -0.0465
     23 C           7.2108   -0.9612    2.4433 C.3     1  UNL1       -0.0315
     24 C           8.5932   -0.4926    2.8804 C.2     1  UNL1       -0.0740
     25 C           9.7007   -1.5394    2.9853 C.3     1  UNL1       -0.0258
     26 C          10.8509   -1.2563    2.0112 C.3     1  UNL1       -0.0590
     27 C          10.2486   -1.6519    4.4148 C.3     1  UNL1       -0.0590
     28 O          -5.2878    0.2557    0.8418 O.2     1  UNL1       -0.2927
     29 H           0.9220    2.8809   -0.3672 H       1  UNL1        0.0271
     30 H           0.2515    2.2330    1.1270 H       1  UNL1        0.0271
     31 H           1.1119    0.6399   -1.3261 H       1  UNL1        0.0307
     32 H          -0.1103   -0.2331    1.3342 H       1  UNL1        0.0312
     33 H           0.1805   -2.5283    0.8424 H       1  UNL1        0.0268
     34 H           0.7484   -2.2306   -0.7829 H       1  UNL1        0.0268
     35 H           2.1767   -1.6955    1.8475 H       1  UNL1        0.0271
     36 H           2.5833   -2.8337    0.5768 H       1  UNL1        0.0271
     37 H           2.2066    0.6686    1.5117 H       1  UNL1        0.0309
     38 H           3.4269    1.8518   -1.0009 H       1  UNL1        0.0268
     39 H           3.2216    2.6003    0.5838 H       1  UNL1        0.0268
     40 H           5.4899    1.1973   -0.2383 H       1  UNL1        0.0268
     41 H           5.0791    1.4959    1.4527 H       1  UNL1        0.0268
     42 H           4.3537   -0.6353    1.8694 H       1  UNL1        0.0309
     43 H           3.7908   -0.2309   -1.9157 H       1  UNL1        0.0235
     44 H           3.7469   -1.9652   -1.5843 H       1  UNL1        0.0235
     45 H           2.2664   -1.1006   -1.9226 H       1  UNL1        0.0235
     46 H          -0.6151    0.0169   -2.4783 H       1  UNL1        0.0238
     47 H          -0.8514   -1.7003   -2.1585 H       1  UNL1        0.0238
     48 H          -2.2355   -0.6507   -2.4335 H       1  UNL1        0.0238
     49 H           5.7957   -1.2035   -0.7554 H       1  UNL1        0.0301
     50 H           6.0499   -3.2709    1.3743 H       1  UNL1        0.0233
     51 H           4.4737   -3.1773    0.6338 H       1  UNL1        0.0233
     52 H           5.8830   -3.4042   -0.3730 H       1  UNL1        0.0233
     53 H           7.8378   -1.6104    0.4863 H       1  UNL1        0.0271
     54 H           7.3228    0.0569    0.5456 H       1  UNL1        0.0271
     55 H           6.4515   -0.3073    2.8885 H       1  UNL1        0.0310
     56 H           7.0208   -1.9582    2.8551 H       1  UNL1        0.0310
     57 H           9.2881   -2.5216    2.7209 H       1  UNL1        0.0340
     58 H          11.3362   -0.2967    2.2185 H       1  UNL1        0.0235
     59 H          11.6202   -2.0342    2.0846 H       1  UNL1        0.0235
     60 H          10.4933   -1.2395    0.9765 H       1  UNL1        0.0235
     61 H           9.4537   -1.9170    5.1207 H       1  UNL1        0.0235
     62 H          11.0191   -2.4291    4.4750 H       1  UNL1        0.0235
     63 H          10.7043   -0.7153    4.7545 H       1  UNL1        0.0235
     64 H          -0.9986    2.2283   -1.6566 H       1  UNL1        0.0310
     65 H          -1.5504    3.0922   -0.2337 H       1  UNL1        0.0310
     66 H          -3.6434    2.1497    0.3601 H       1  UNL1        0.0652
     67 C           8.8054    0.8023    3.1691 C.2     1  UNL1       -0.0992
     68 H           8.0087    1.5397    3.0874 H       1  UNL1        0.0534
     69 H           9.7792    1.1692    3.4765 H       1  UNL1        0.0534
     70 H          -2.0938   -1.5110    1.3054 H       1  UNL1        0.0278
     71 H          -1.9427   -2.5145   -0.1322 H       1  UNL1        0.0278
     72 H          -4.2940   -2.0870    0.4980 H       1  UNL1        0.0345
     73 H          -3.9631   -1.4428   -1.1199 H       1  UNL1        0.0345
@<TRIPOS>BOND
     1     1     2    1
     2     1    10    1
     3     1    70    1
     4     1    71    1
     5     2     3    1
     6     2    72    1
     7     2    73    1
     8     3     4    1
     9     3    28    2
    10     4     5    2
    11     4    66    1
    12     5     6    1
    13     5    10    1
    14     6     7    1
    15     6    64    1
    16     6    65    1
    17     7     8    1
    18     7    29    1
    19     7    30    1
    20     8     9    1
    21     8    14    1
    22     8    31    1
    23     9    10    1
    24     9    11    1
    25     9    32    1
    26    10    19    1
    27    11    12    1
    28    11    33    1
    29    11    34    1
    30    12    13    1
    31    12    35    1
    32    12    36    1
    33    13    14    1
    34    13    17    1
    35    13    18    1
    36    14    15    1
    37    14    37    1
    38    15    16    1
    39    15    38    1
    40    15    39    1
    41    16    17    1
    42    16    40    1
    43    16    41    1
    44    18    43    1
    45    18    44    1
    46    18    45    1
    47    19    46    1
    48    19    47    1
    49    19    48    1
    50    20    49    1
    51    21    50    1
    52    21    51    1
    53    21    52    1
    54    22    23    1
    55    22    53    1
    56    22    54    1
    57    23    24    1
    58    23    55    1
    59    23    56    1
    60    24    25    1
    61    24    67    2
    62    25    26    1
    63    25    27    1
    64    25    57    1
    65    26    58    1
    66    26    59    1
    67    26    60    1
    68    27    61    1
    69    27    62    1
    70    27    63    1
    71    67    68    1
    72    67    69    1
    73    17    42    1
    74    17    20    1
    75    20    22    1
    76    20    21    1
