@<TRIPOS>MOLECULE
mol_709_akc_fphar20231122287
690mol
 39 42 0 0 0
SMALL
GASTEIGER

@<TRIPOS>ATOM
      1 C          -1.3913   -1.2828   -0.7189 C.ar    1  UNL1        0.1255
      2 C          -1.9361   -2.5102   -0.3174 C.ar    1  UNL1        0.0360
      3 C          -3.2885   -2.5881    0.0283 C.ar    1  UNL1       -0.0496
      4 C          -4.0932   -1.4486   -0.0368 C.ar    1  UNL1       -0.0609
      5 C          -3.5521   -0.2346   -0.4649 C.ar    1  UNL1       -0.0583
      6 C          -2.2028   -0.1541   -0.8088 C.ar    1  UNL1       -0.0195
      7 O          -0.0723   -1.1173   -1.0328 O.3     1  UNL1       -0.5061
      8 C          -1.1209   -3.7351   -0.2142 C.2     1  UNL1        0.0562
      9 N           0.1767   -3.6884   -0.2351 N.2     1  UNL1       -0.1886
     10 N           0.7638   -4.9065   -0.0367 N.pl3   1  UNL1       -0.2204
     11 N           4.9723   -5.0066    0.1298 N.ar    1  UNL1       -0.2281
     12 C           4.1820   -5.7809   -0.6088 C.ar    1  UNL1        0.1194
     13 N           2.8431   -5.7734   -0.6509 N.ar    1  UNL1       -0.2186
     14 C           2.1686   -4.9017    0.1400 C.ar    1  UNL1        0.1498
     15 C           3.6672   -2.5521    2.6451 C.ar    1  UNL1       -0.0043
     16 S           5.1138   -3.1098    1.9590 S.2     1  UNL1       -0.0732
     17 C           4.2801   -4.1867    0.9366 C.ar    1  UNL1        0.1138
     18 C           2.8953   -4.0913    1.0461 C.ar    1  UNL1        0.0524
     19 C           2.5493   -3.1863    2.1274 C.ar    1  UNL1       -0.0246
     20 C           1.1960   -2.9368    2.7307 C.3     1  UNL1       -0.0262
     21 C           1.1350   -1.5877    3.4592 C.3     1  UNL1       -0.0487
     22 C           2.3153   -1.4269    4.4229 C.3     1  UNL1       -0.0483
     23 C           3.6601   -1.4736    3.6863 C.3     1  UNL1       -0.0211
     24 H          -3.7248   -3.5249    0.3697 H       1  UNL1        0.0625
     25 H          -5.1409   -1.5020    0.2490 H       1  UNL1        0.0618
     26 H          -4.1802    0.6514   -0.5243 H       1  UNL1        0.0619
     27 H          -1.7785    0.7915   -1.1392 H       1  UNL1        0.0654
     28 H           0.3946   -1.9558   -0.8174 H       1  UNL1        0.2922
     29 H          -1.6607   -4.6914   -0.0823 H       1  UNL1        0.0852
     30 H           0.6159   -5.5807   -0.7940 H       1  UNL1        0.1760
     31 H           4.6787   -6.4955   -1.2569 H       1  UNL1        0.1048
     32 H           0.9916   -3.7431    3.4472 H       1  UNL1        0.0314
     33 H           0.3980   -2.9560    1.9953 H       1  UNL1        0.0314
     34 H           0.1898   -1.5119    4.0083 H       1  UNL1        0.0268
     35 H           1.1488   -0.7723    2.7246 H       1  UNL1        0.0268
     36 H           2.2278   -0.4802    4.9674 H       1  UNL1        0.0269
     37 H           2.2788   -2.2300    5.1702 H       1  UNL1        0.0269
     38 H           3.8302   -0.5100    3.1895 H       1  UNL1        0.0318
     39 H           4.4680   -1.6164    4.4130 H       1  UNL1        0.0318
@<TRIPOS>BOND
     1     1     2   ar
     2     2     3   ar
     3     3     4   ar
     4     4     5   ar
     5     5     6   ar
     6     1     6   ar
     7     1     7    1
     8     9    10    1
     9    17    11   ar
    10    11    12   ar
    11    12    13   ar
    12    13    14   ar
    13    18    14   ar
    14    15    16   ar
    15    16    17   ar
    16    17    18   ar
    17    18    19   ar
    18    15    19   ar
    19    19    20    1
    20    20    21    1
    21    21    22    1
    22    22    23    1
    23    15    23    1
    24    10    14    1
    25     8     9    2
    26     2     8    1
    27     3    24    1
    28     4    25    1
    29     5    26    1
    30     6    27    1
    31     7    28    1
    32     8    29    1
    33    10    30    1
    34    12    31    1
    35    20    32    1
    36    20    33    1
    37    21    34    1
    38    21    35    1
    39    22    36    1
    40    22    37    1
    41    23    38    1
    42    23    39    1
