@<TRIPOS>MOLECULE
mol_70_akc_jbmc201907009
>69.sdf
 49 52 0 0 0
SMALL
GASTEIGER

@<TRIPOS>ATOM
      1 C          -1.2348    0.7046    2.0104 C.3     1  UNL1        0.0154
      2 N          -1.2989    0.4693    0.5841 N.ar    1  UNL1       -0.3066
      3 C          -0.7664    1.2711   -0.4159 C.ar    1  UNL1        0.1695
      4 N          -1.1022    0.8110   -1.6119 N.ar    1  UNL1       -0.2315
      5 C          -1.8240   -0.3281   -1.3966 C.ar    1  UNL1        0.0774
      6 C          -1.9539   -0.5599   -0.0517 C.ar    1  UNL1        0.2157
      7 N          -2.6424   -1.6338    0.5790 N.pl3   1  UNL1        0.0750
      8 O          -2.6111   -1.6976    1.8129 O.2     1  UNL1       -0.1246
      9 O          -3.2185   -2.4306   -0.1684 O.2     1  UNL1       -0.1246
     10 C           0.0262    2.4499   -0.2169 C.ar    1  UNL1        0.1689
     11 N           0.7919    2.6369    0.8333 N.ar    1  UNL1       -0.1365
     12 N           1.3769    3.8800    0.8250 N.ar    1  UNL1       -0.1254
     13 C           1.0679    4.6128   -0.2323 C.ar    1  UNL1        0.1845
     14 S           0.0447    3.7471   -1.3316 S.2     1  UNL1       -0.0276
     15 N           1.4712    5.9146   -0.4021 N.pl3   1  UNL1       -0.3081
     16 C           2.5347    6.3740    0.4956 C.3     1  UNL1        0.0154
     17 C           2.4381    7.8783    0.6864 C.3     1  UNL1       -0.0214
     18 C           2.4485    8.6794   -0.6286 C.3     1  UNL1        0.0133
     19 C           1.4194    8.0715   -1.6026 C.3     1  UNL1       -0.0214
     20 C           1.4486    6.5459   -1.7228 C.3     1  UNL1        0.0154
     21 N           3.7656    9.0138   -1.2303 N.3     1  UNL1       -0.2993
     22 C           4.6120    9.7820   -0.3006 C.3     1  UNL1       -0.0008
     23 C           5.9070   10.2758   -0.9445 C.3     1  UNL1       -0.0402
     24 C           6.6869    9.1116   -1.5353 C.3     1  UNL1       -0.0507
     25 C           5.8044    8.3716   -2.5274 C.3     1  UNL1       -0.0402
     26 C           4.4923    7.9218   -1.8777 C.3     1  UNL1       -0.0008
     27 H          -2.2513    0.6981    2.4122 H       1  UNL1        0.0457
     28 H          -0.6225   -0.0796    2.4622 H       1  UNL1        0.0457
     29 H          -0.8065    1.6786    2.2396 H       1  UNL1        0.0457
     30 H          -2.2118   -0.9186   -2.2202 H       1  UNL1        0.0869
     31 H           3.5110    6.0675    0.1105 H       1  UNL1        0.0465
     32 H           2.4437    5.9230    1.4918 H       1  UNL1        0.0465
     33 H           3.2115    8.2128    1.3832 H       1  UNL1        0.0295
     34 H           1.4866    8.0898    1.1955 H       1  UNL1        0.0295
     35 H           2.0260    9.6629   -0.3728 H       1  UNL1        0.0463
     36 H           0.4201    8.3497   -1.2356 H       1  UNL1        0.0295
     37 H           1.5043    8.5308   -2.5950 H       1  UNL1        0.0295
     38 H           0.5521    6.2670   -2.2883 H       1  UNL1        0.0465
     39 H           2.3039    6.2006   -2.3102 H       1  UNL1        0.0465
     40 H           4.8822    9.1782    0.5727 H       1  UNL1        0.0427
     41 H           4.0622   10.6588    0.0631 H       1  UNL1        0.0427
     42 H           6.5191   10.7875   -0.1933 H       1  UNL1        0.0278
     43 H           5.6789   11.0080   -1.7288 H       1  UNL1        0.0278
     44 H           7.5955    9.4717   -2.0285 H       1  UNL1        0.0266
     45 H           6.9994    8.4285   -0.7353 H       1  UNL1        0.0266
     46 H           5.5887    9.0216   -3.3846 H       1  UNL1        0.0278
     47 H           6.3380    7.4964   -2.9158 H       1  UNL1        0.0278
     48 H           3.8895    7.4971   -2.6837 H       1  UNL1        0.0427
     49 H           4.7257    7.1272   -1.1660 H       1  UNL1        0.0427
@<TRIPOS>BOND
     1     1    27    1
     2     1    28    1
     3     1    29    1
     4     2     1    1
     5     3     2   ar
     6     4     3   ar
     7     5     4   ar
     8     5    30    1
     9     6     5   ar
    10     6     2   ar
    11     7     6    1
    12     8     7    2
    13     9     7    2
    14    10     3    1
    15    11    10   ar
    16    12    11   ar
    17    13    12   ar
    18    14    13   ar
    19    14    10   ar
    20    15    13    1
    21    16    15    1
    22    16    31    1
    23    16    32    1
    24    17    16    1
    25    17    33    1
    26    17    34    1
    27    18    17    1
    28    18    35    1
    29    19    18    1
    30    19    36    1
    31    19    37    1
    32    20    19    1
    33    20    15    1
    34    20    38    1
    35    20    39    1
    36    21    18    1
    37    22    21    1
    38    22    40    1
    39    22    41    1
    40    23    22    1
    41    23    42    1
    42    23    43    1
    43    24    23    1
    44    24    44    1
    45    24    45    1
    46    25    24    1
    47    25    46    1
    48    25    47    1
    49    26    25    1
    50    26    21    1
    51    26    48    1
    52    26    49    1
