@<TRIPOS>MOLECULE
mol_710_akc_journalpone0124183
*****
 35 37 0 0 0
SMALL
GASTEIGER

@<TRIPOS>ATOM
      1 N1         -1.3259   -0.0288   -0.7185 N.4     1  <1>         0.2402
      2 C1         -0.9035   -1.2151    0.0952 C.3     1  <1>         0.0308
      3 C2         -0.2972    1.0870   -0.5358 C.3     1  <1>         0.0363
      4 C3          0.8724    0.4278    0.2380 C.3     1  <1>         0.1330
      5 C4         -0.9220    2.2867    0.1092 C.ar    1  <1>         0.0460
      6 C5          0.6188   -1.0755    0.0621 C.3     1  <1>         0.1310
      7 O1          2.1479    0.7773   -0.3115 O.3     1  <1>        -0.3830
      8 O2          1.1048   -1.4218   -1.2553 O.3     1  <1>        -0.3833
      9 C6         -1.5377   -1.1963    1.4978 C.3     1  <1>         0.0893
     10 O3         -1.1456   -0.0510    2.2348 O.3     1  <1>        -0.3894
     11 C7         -0.3453    3.2613    0.9051 C.ar    1  <1>         0.0130
     12 C8         -2.2912    2.6445   -0.0090 C.ar    1  <1>         0.1021
     13 C9         -2.5286    3.7574    0.7729 C.ar    1  <1>         0.1055
     14 N2         -1.3243    4.1387    1.3018 N.ar    1  <1>        -0.3563
     15 N3         -3.2578    2.0015   -0.7096 N.ar    1  <1>        -0.2333
     16 C10        -3.8153    4.2621    0.8841 C.ar    1  <1>         0.1435
     17 N4         -4.7733    3.6780    0.1526 N.ar    1  <1>        -0.2190
     18 C11        -4.4539    2.6163   -0.6119 C.ar    1  <1>         0.1188
     19 N5         -4.1640    5.3060    1.7160 N.pl3   1  <1>        -0.3414
     20 H1         -1.3490   -0.2441   -1.7222 H       1  <1>         0.2025
     21 H2         -2.2646    0.3319   -0.4833 H       1  <1>         0.2025
     22 H3         -1.2463   -2.0980   -0.4536 H       1  <1>         0.0900
     23 H4          0.0198    1.3630   -1.5492 H       1  <1>         0.0931
     24 H5          0.8896    0.7137    1.2925 H       1  <1>         0.0682
     25 H6          1.1457   -1.6868    0.8003 H       1  <1>         0.0679
     26 H7          2.4364    0.0302   -0.8771 H       1  <1>         0.2102
     27 H8          0.8058   -2.3197   -1.4950 H       1  <1>         0.2102
     28 H9         -2.6301   -1.1957    1.4212 H       1  <1>         0.0614
     29 H10        -1.2294   -2.0859    2.0540 H       1  <1>         0.0614
     30 H11        -1.4646   -0.1562    3.1539 H       1  <1>         0.2097
     31 H12         0.6819    3.4060    1.2285 H       1  <1>         0.0812
     32 H13        -1.1838    4.9658    1.8737 H       1  <1>         0.1655
     33 H14        -5.2573    2.2062   -1.2080 H       1  <1>         0.1048
     34 H15        -3.7013    5.3156    2.6136 H       1  <1>         0.1438
     35 H16        -5.1769    5.3747    1.7743 H       1  <1>         0.1438
@<TRIPOS>UNITY_ATOM_ATTR
1 1
charge 1
@<TRIPOS>BOND
     1     1     2    1
     2     1     3    1
     3     1    20    1
     4     1    21    1
     5     3     4    1
     6     4     6    1
     7     4     7    1
     8     4    24    1
     9     5    11   ar
    10     5    12   ar
    11     6     2    1
    12     6     8    1
    13     6    25    1
    14     7    26    1
    15     8    27    1
    16     9    10    1
    17     9    28    1
    18     9    29    1
    19    10    30    1
    20    11    31    1
    21    12    13   ar
    22    12    15   ar
    23    13    14   ar
    24    13    16   ar
    25    14    11   ar
    26    14    32    1
    27    15    18   ar
    28    16    17   ar
    29    16    19    1
    30    18    17   ar
    31    18    33    1
    32    19    34    1
    33    19    35    1
    34     2    22    1
    35     2     9    1
    36     3    23    1
    37     3     5    1
