@<TRIPOS>MOLECULE
mol_712_akc_journalpone0124183
*****
 35 36 0 0 0
SMALL
GASTEIGER

@<TRIPOS>ATOM
      1 N           1.0180   -0.2958   -0.7749 N.4     1  SER1        0.2357
      2 CA          2.4853   -0.6221   -1.0971 C.3     1  SER1        0.0248
      3 C           0.2350   -1.4507   -0.2947 C.3     0  UNK0       -0.0033
      4 C          -1.2457   -1.2803   -0.2581 C.2     0  UNK0        0.0626
      5 C           3.2619    0.6967   -0.9430 C.3     1  SER1        0.0890
      6 O           2.7745    1.3377    0.2423 O.3     1  SER1       -0.3894
      7 CB          2.5421   -1.1700   -2.5279 C.3     1  SER1        0.0890
      8 OG          1.5710   -0.4547   -3.3083 O.3     1  SER1       -0.3894
      9 C          -2.1076   -0.9799   -1.2519 C.2     0  UNK0        0.1135
     10 C          -2.0160   -1.5805    0.9875 C.3     0  UNK0        0.1484
     11 C          -3.3007   -2.0890    0.3656 C.3     0  UNK0        0.2031
     12 N          -3.4673   -1.1765   -0.8236 N.pl3   0  UNK0       -0.3940
     13 N          -1.4815   -2.5818    1.8989 N.2     0  UNK0       -0.2613
     14 C          -4.2795   -2.1030    1.4959 C.2     0  UNK0        0.2831
     15 N          -3.7292   -2.6751    2.6342 N.am    0  UNK0       -0.2713
     16 C          -2.3851   -2.9881    2.7384 C.2     0  UNK0        0.0831
     17 O          -5.4239   -1.6919    1.3845 O.2     0  UNK0       -0.2683
     18 H1          0.6628    0.1171   -1.6507 H       1  SER1        0.2021
     19 H2          1.0758    0.4630   -0.0686 H       1  SER1        0.2021
     20 HA          2.8338   -1.3431   -0.3494 H       1  SER1        0.0896
     21 H           0.6330   -1.6842    0.6992 H       0  UNK0        0.0866
     22 H1          3.0935    1.3725   -1.7873 H       1  SER1        0.0614
     23 H           3.4089    2.0565    0.4542 H       1  SER1        0.2097
     24 HB1         3.5363   -1.0540   -2.9694 H       1  SER1        0.0614
     25 HB2         2.2633   -2.2280   -2.5490 H       1  SER1        0.0614
     26 H           1.7998   -0.6128   -4.2502 H       1  SER1        0.2097
     27 H          -4.0784   -1.6218   -1.5276 H       0  UNK0        0.3729
     28 H          -2.1415   -3.6411    3.5933 H       0  UNK0        0.0997
     29 H          -4.3604   -2.8807    3.4053 H       0  UNK0        0.1559
     30 H           0.4655   -2.3010   -0.9471 H       0  UNK0        0.0866
     31 H2          4.3348    0.5033   -0.8432 H       1  SER1        0.0614
     32 H          -1.8335   -0.7591   -2.2833 H       0  UNK0        0.1314
     33 H          -2.1463   -0.6333    1.5358 H       0  UNK0        0.0666
     34 H          -3.2148   -3.1108   -0.0352 H       0  UNK0        0.1133
     35 H          -3.9561   -0.3090   -0.5411 H       0  UNK0        0.3729
@<TRIPOS>UNITY_ATOM_ATTR
1 1
charge 1
12 1
charge 1
@<TRIPOS>BOND
     1     1     2    1
     2     1     3    1
     3     1    18    1
     4     1    19    1
     5     2     7    1
     6     2    20    1
     7     3    21    1
     8     4     3    1
     9     4     9    2
    10     5     2    1
    11     5     6    1
    12     5    22    1
    13     6    23    1
    14     7     8    1
    15     7    24    1
    16     7    25    1
    17     8    26    1
    18     9    32    1
    19    10     4    1
    20    10    11    1
    21    10    13    1
    22    11    12    1
    23    11    14    1
    24    12     9    1
    25    12    27    1
    26    13    16    2
    27    14    15   am
    28    14    17    2
    29    15    29    1
    30    16    15    1
    31    16    28    1
    32    30     3    1
    33    31     5    1
    34    10    33    1
    35    11    34    1
    36    12    35    1
