@<TRIPOS>MOLECULE
mol_716_akc_nature19339
*****
 48 52 0 0 0
SMALL
GASTEIGER

@<TRIPOS>ATOM
      1 C          -0.9037    0.6018    1.6390 C.ar    1  UNL1        0.0436
      2 C          -2.0914    0.1102    1.2459 C.ar    1  UNL1        0.0367
      3 C          -1.9894   -0.9242    0.1588 C.ar    1  UNL1        0.0421
      4 N          -0.8984   -1.3783   -0.3887 N.ar    1  UNL1       -0.2183
      5 C           0.2665   -0.8396    0.0758 C.ar    1  UNL1        0.2533
      6 N           0.2702    0.1349    1.0724 N.ar    1  UNL1       -0.2029
      7 N           1.5082   -1.0830   -0.2795 N.ar    1  UNL1       -0.1891
      8 C           2.2575   -0.2438    0.5132 C.ar    1  UNL1        0.1866
      9 N           1.5317    0.5041    1.3526 N.ar    1  UNL1       -0.1435
     10 C           3.7067   -0.1539    0.3782 C.ar    1  UNL1        0.0578
     11 C           4.4692    0.6856    1.1955 C.ar    1  UNL1        0.1342
     12 C           5.8392    0.8080    1.0068 C.ar    1  UNL1       -0.0240
     13 C           6.4651    0.1153   -0.0300 C.ar    1  UNL1       -0.0377
     14 C           5.7325   -0.7148   -0.8848 C.ar    1  UNL1        0.0346
     15 C           4.3608   -0.8780   -0.6418 C.ar    1  UNL1       -0.0269
     16 F           3.9164    1.4136    2.1774 F       1  UNL1       -0.2047
     17 N           6.2818   -1.3463   -2.0283 N.am    1  UNL1       -0.2789
     18 C           7.5671   -1.1792   -2.5264 C.2     1  UNL1        0.2854
     19 O           8.4523   -0.5610   -1.9353 O.2     1  UNL1       -0.2664
     20 C           7.8129   -1.7587   -3.8266 C.ar    1  UNL1        0.2125
     21 C           8.9566   -1.7856   -4.6067 C.ar    1  UNL1        0.0890
     22 N           8.6909   -2.4068   -5.8029 N.ar    1  UNL1       -0.2180
     23 C           7.4144   -2.7116   -5.7306 C.ar    1  UNL1        0.1936
     24 O           6.8093   -2.3682   -4.5471 O.2     1  UNL1       -0.4351
     25 C          -3.3863    0.5516    1.7764 C.ar    1  UNL1        0.0739
     26 C          -3.5311    1.0431    3.0735 C.ar    1  UNL1       -0.0356
     27 C          -4.7882    1.4581    3.5059 C.ar    1  UNL1       -0.0583
     28 C          -5.8676    1.3677    2.6390 C.ar    1  UNL1       -0.0436
     29 C          -5.6441    0.8566    1.3724 C.ar    1  UNL1        0.0283
     30 N          -4.4349    0.4451    0.9280 N.ar    1  UNL1       -0.2549
     31 C           6.5751   -3.3260   -6.7786 C.3     1  UNL1        0.0122
     32 C          10.3051   -1.2330   -4.3494 C.3     1  UNL1       -0.0185
     33 H          -0.7727    1.3727    2.3862 H       1  UNL1        0.0838
     34 H          -2.9489   -1.3411   -0.1925 H       1  UNL1        0.0838
     35 H           6.4128    1.4673    1.6516 H       1  UNL1        0.0647
     36 H           7.5325    0.2710   -0.1440 H       1  UNL1        0.0637
     37 H           3.7718   -1.5412   -1.2738 H       1  UNL1        0.0644
     38 H           5.6545   -1.8938   -2.6069 H       1  UNL1        0.1552
     39 H          -2.6909    1.1032    3.7573 H       1  UNL1        0.0639
     40 H          -4.9207    1.8468    4.5121 H       1  UNL1        0.0619
     41 H          -6.8591    1.6841    2.9433 H       1  UNL1        0.0633
     42 H          -6.4564    0.7630    0.6573 H       1  UNL1        0.0830
     43 H           6.3412   -4.3646   -6.5320 H       1  UNL1        0.0324
     44 H           5.6429   -2.7693   -6.9063 H       1  UNL1        0.0324
     45 H           7.1058   -3.3152   -7.7374 H       1  UNL1        0.0324
     46 H          11.0643   -2.0078   -4.4916 H       1  UNL1        0.0294
     47 H          10.5111   -0.4174   -5.0499 H       1  UNL1        0.0294
     48 H          10.4174   -0.8410   -3.3365 H       1  UNL1        0.0294
@<TRIPOS>BOND
     1     1     2   ar
     2     2     3   ar
     3     3     4   ar
     4     4     5   ar
     5     5     6   ar
     6     1     6   ar
     7     7     8   ar
     8     8     9   ar
     9     5     7   ar
    10     6     9   ar
    11    11    12   ar
    12    12    13   ar
    13    13    14   ar
    14    14    15   ar
    15    10    11   ar
    16    10    15   ar
    17     8    10    1
    18    11    16    1
    19    14    17    1
    20    17    18   am
    21    18    19    2
    22    21    22   ar
    23    22    23   ar
    24    23    24   ar
    25    20    21   ar
    26    20    24   ar
    27    18    20    1
    28    26    27   ar
    29    27    28   ar
    30    28    29   ar
    31    29    30   ar
    32    25    26   ar
    33    25    30   ar
    34     2    25    1
    35    23    31    1
    36    21    32    1
    37     1    33    1
    38     3    34    1
    39    12    35    1
    40    13    36    1
    41    15    37    1
    42    17    38    1
    43    26    39    1
    44    27    40    1
    45    28    41    1
    46    29    42    1
    47    31    43    1
    48    31    44    1
    49    31    45    1
    50    32    46    1
    51    32    47    1
    52    32    48    1
