@<TRIPOS>MOLECULE
mol_717_akc_acsjmedchem0c00499
*****
 51 55 0 0 0
SMALL
GASTEIGER

@<TRIPOS>ATOM
      1 C          -0.9352    0.6108    1.6180 C.ar    1  UNL1        0.0436
      2 C          -2.1011    0.1154    1.1756 C.ar    1  UNL1        0.0370
      3 C          -1.9868   -0.8802    0.0668 C.ar    1  UNL1        0.0421
      4 N          -0.8873   -1.3196   -0.4667 N.ar    1  UNL1       -0.2183
      5 C           0.2666   -0.7869    0.0381 C.ar    1  UNL1        0.2533
      6 N           0.2526    0.1682    1.0585 N.ar    1  UNL1       -0.2029
      7 N           1.5121   -1.0322   -0.2944 N.ar    1  UNL1       -0.1891
      8 C           2.2496   -0.2159    0.5309 C.ar    1  UNL1        0.1866
      9 N           1.5131    0.5225    1.3703 N.ar    1  UNL1       -0.1435
     10 C           3.7018   -0.1455    0.4156 C.ar    1  UNL1        0.0578
     11 C           4.4616    0.7120    1.2168 C.ar    1  UNL1        0.1342
     12 C           5.8319    0.8247    1.0249 C.ar    1  UNL1       -0.0240
     13 C           6.4506    0.1230   -0.0099 C.ar    1  UNL1       -0.0377
     14 C           5.7196   -0.7191   -0.8526 C.ar    1  UNL1        0.0346
     15 C           4.3569   -0.9011   -0.5829 C.ar    1  UNL1       -0.0269
     16 F           3.9072    1.4642    2.1796 F       1  UNL1       -0.2047
     17 N           6.2586   -1.3449   -2.0084 N.am    1  UNL1       -0.2789
     18 C           7.5313   -1.1231   -2.5349 C.2     1  UNL1        0.2854
     19 O           8.3834   -0.4507   -1.9745 O.2     1  UNL1       -0.2664
     20 C           7.7994   -1.7014   -3.8361 C.ar    1  UNL1        0.2125
     21 C           8.9573   -1.6970   -4.6013 C.ar    1  UNL1        0.0890
     22 N           8.7234   -2.3229   -5.8011 N.ar    1  UNL1       -0.2180
     23 C           7.4530   -2.6529   -5.7499 C.ar    1  UNL1        0.1936
     24 O           6.8239   -2.3327   -4.5711 O.2     1  UNL1       -0.4351
     25 C          -3.3965    0.5224    1.7036 C.ar    1  UNL1        0.0768
     26 C          -3.9936   -0.1080    2.8007 C.ar    1  UNL1       -0.0244
     27 C          -5.2539    0.3520    3.1979 C.ar    1  UNL1       -0.0554
     28 C          -5.8520    1.4116    2.5237 C.ar    1  UNL1       -0.0433
     29 C          -5.1713    1.9804    1.4637 C.ar    1  UNL1        0.0283
     30 N          -3.9648    1.5543    1.0359 N.ar    1  UNL1       -0.2546
     31 C           6.6431   -3.2552   -6.8278 C.3     1  UNL1        0.0122
     32 C          10.2872   -1.1021   -4.3368 C.3     1  UNL1       -0.0185
     33 C          -3.3417   -1.2439    3.5331 C.3     1  UNL1       -0.0377
     34 H          -0.8479    1.3537    2.4001 H       1  UNL1        0.0838
     35 H          -2.9447   -1.2738   -0.3150 H       1  UNL1        0.0838
     36 H           6.4090    1.4874    1.6632 H       1  UNL1        0.0647
     37 H           7.5151    0.2872   -0.1321 H       1  UNL1        0.0637
     38 H           3.7707   -1.5970   -1.1803 H       1  UNL1        0.0644
     39 H           5.6391   -1.9056   -2.5758 H       1  UNL1        0.1552
     40 H          -5.7748   -0.1087    4.0342 H       1  UNL1        0.0621
     41 H          -6.8256    1.7857    2.8206 H       1  UNL1        0.0633
     42 H          -5.5898    2.8177    0.9121 H       1  UNL1        0.0830
     43 H           6.4193   -4.3026   -6.6119 H       1  UNL1        0.0324
     44 H           5.7072   -2.7069   -6.9622 H       1  UNL1        0.0324
     45 H           7.1927   -3.2139   -7.7756 H       1  UNL1        0.0324
     46 H          11.0717   -1.8513   -4.4835 H       1  UNL1        0.0294
     47 H          10.4681   -0.2790   -5.0357 H       1  UNL1        0.0294
     48 H          10.3877   -0.7109   -3.3232 H       1  UNL1        0.0294
     49 H          -3.2448   -2.1156    2.8784 H       1  UNL1        0.0278
     50 H          -2.3524   -0.9496    3.8982 H       1  UNL1        0.0278
     51 H          -3.9302   -1.5458    4.4062 H       1  UNL1        0.0278
@<TRIPOS>BOND
     1     1     2   ar
     2     2     3   ar
     3     3     4   ar
     4     4     5   ar
     5     5     6   ar
     6     1     6   ar
     7     7     8   ar
     8     8     9   ar
     9     5     7   ar
    10     6     9   ar
    11    11    12   ar
    12    12    13   ar
    13    13    14   ar
    14    14    15   ar
    15    10    11   ar
    16    10    15   ar
    17     8    10    1
    18    11    16    1
    19    14    17    1
    20    17    18   am
    21    18    19    2
    22    21    22   ar
    23    22    23   ar
    24    23    24   ar
    25    20    21   ar
    26    20    24   ar
    27    18    20    1
    28    26    27   ar
    29    27    28   ar
    30    28    29   ar
    31    29    30   ar
    32    25    26   ar
    33    25    30   ar
    34     2    25    1
    35    23    31    1
    36    21    32    1
    37    26    33    1
    38     1    34    1
    39     3    35    1
    40    12    36    1
    41    13    37    1
    42    15    38    1
    43    17    39    1
    44    27    40    1
    45    28    41    1
    46    29    42    1
    47    31    43    1
    48    31    44    1
    49    31    45    1
    50    32    46    1
    51    32    47    1
    52    32    48    1
    53    33    49    1
    54    33    50    1
    55    33    51    1
