@<TRIPOS>MOLECULE
mol_718_akc_pnas1820175116
*****
 53 57 0 0 0
SMALL
GASTEIGER

@<TRIPOS>ATOM
      1 C          -3.2789    1.5892    1.5535 C.3     1  UNL1        0.0634
      2 O          -2.0992    1.3931    2.3582 O.3     1  UNL1       -0.3767
      3 C          -0.9853    0.9772    1.5429 C.3     1  UNL1        0.0634
      4 C          -1.2980   -0.3237    0.7822 C.3     1  UNL1        0.0370
      5 N          -2.4946   -0.0823   -0.0358 N.pl3   1  UNL1       -0.3106
      6 C          -3.6552    0.3126    0.7760 C.3     1  UNL1        0.0370
      7 C          -2.5957   -0.5995   -1.2952 C.ar    1  UNL1        0.1269
      8 C          -2.0600   -1.7329   -1.8760 C.ar    1  UNL1        0.0700
      9 N          -2.2755   -1.7701   -3.2295 N.ar    1  UNL1       -0.2168
     10 C          -2.9294   -0.6627   -3.5228 C.ar    1  UNL1        0.2367
     11 N          -3.1760    0.0729   -2.3612 N.ar    1  UNL1       -0.2719
     12 C          -3.8357    1.2930   -2.4037 C.ar    1  UNL1        0.0164
     13 C          -4.2617    1.7755   -3.5713 C.ar    1  UNL1       -0.0189
     14 C          -3.9865    0.9164   -4.7794 C.ar    1  UNL1        0.0790
     15 N          -3.3474   -0.2191   -4.7493 N.ar    1  UNL1       -0.2117
     16 C          -4.5150    1.4720   -6.0566 C.ar    1  UNL1        0.0374
     17 C          -5.7367    2.1526   -6.0298 C.ar    1  UNL1       -0.0285
     18 C          -6.1955    2.8942   -7.1176 C.ar    1  UNL1        0.0356
     19 C          -5.4847    2.8085   -8.3186 C.ar    1  UNL1       -0.0377
     20 C          -4.3074    2.0511   -8.3914 C.ar    1  UNL1       -0.0240
     21 C          -3.8100    1.4052   -7.2572 C.ar    1  UNL1        0.1327
     22 N          -7.3019    3.7721   -7.0316 N.am    1  UNL1       -0.2693
     23 F          -2.6303    0.7821   -7.3442 F       1  UNL1       -0.2048
     24 C          -8.0126    4.0829   -5.8910 C.2     1  UNL1        0.3064
     25 O          -7.8587    3.5409   -4.7962 O.2     1  UNL1       -0.2523
     26 N          -8.9291    5.1048   -6.0142 N.am    1  UNL1       -0.2854
     27 C          -9.2163    5.9807   -7.1330 C.3     1  UNL1        0.0162
     28 C          -9.7762    5.4404   -4.8812 C.3     1  UNL1        0.0162
     29 C         -10.3755    6.8060   -5.1962 C.3     1  UNL1       -0.0357
     30 C          -9.6580    7.2700   -6.4598 C.3     1  UNL1       -0.0357
     31 H          -3.0996    2.4260    0.8672 H       1  UNL1        0.0575
     32 H          -4.0936    1.8762    2.2251 H       1  UNL1        0.0575
     33 H          -0.1243    0.8309    2.2014 H       1  UNL1        0.0575
     34 H          -0.7403    1.7856    0.8422 H       1  UNL1        0.0575
     35 H          -1.5001   -1.1355    1.4916 H       1  UNL1        0.0487
     36 H          -0.4328   -0.6038    0.1716 H       1  UNL1        0.0487
     37 H          -3.8801   -0.4923    1.4872 H       1  UNL1        0.0487
     38 H          -4.5587    0.4792    0.1821 H       1  UNL1        0.0487
     39 H          -1.5138   -2.5252   -1.3825 H       1  UNL1        0.0865
     40 H          -3.9762    1.8309   -1.4791 H       1  UNL1        0.0815
     41 H          -4.7707    2.7262   -3.6463 H       1  UNL1        0.0654
     42 H          -6.3225    2.1026   -5.1161 H       1  UNL1        0.0643
     43 H          -5.8187    3.3402   -9.2062 H       1  UNL1        0.0637
     44 H          -3.7511    1.9812   -9.3247 H       1  UNL1        0.0647
     45 H          -7.5476    4.2708   -7.8721 H       1  UNL1        0.1564
     46 H         -10.0371    5.5300   -7.7014 H       1  UNL1        0.0465
     47 H          -8.3556    6.1298   -7.7890 H       1  UNL1        0.0465
     48 H          -9.2069    5.4396   -3.9475 H       1  UNL1        0.0465
     49 H         -10.5617    4.6788   -4.8102 H       1  UNL1        0.0465
     50 H         -10.2297    7.5081   -4.3685 H       1  UNL1        0.0281
     51 H         -11.4538    6.7191   -5.3680 H       1  UNL1        0.0281
     52 H          -8.7778    7.8613   -6.1790 H       1  UNL1        0.0281
     53 H         -10.2913    7.8893   -7.1004 H       1  UNL1        0.0281
@<TRIPOS>BOND
     1     1     2    1
     2     2     3    1
     3     3     4    1
     4     4     5    1
     5     5     6    1
     6     1     6    1
     7     8     9   ar
     8     9    10   ar
     9     7     8   ar
    10     7    11   ar
    11     5     7    1
    12    12    13   ar
    13    13    14   ar
    14    14    15   ar
    15    10    15   ar
    16    11    12   ar
    17    10    11   ar
    18    17    18   ar
    19    18    19   ar
    20    19    20   ar
    21    20    21   ar
    22    16    17   ar
    23    16    21   ar
    24    14    16    1
    25    18    22    1
    26    21    23    1
    27    22    24   am
    28    24    25    2
    29    24    26   am
    30    28    29    1
    31    29    30    1
    32    27    30    1
    33    27    26    1
    34    26    28    1
    35     1    31    1
    36     1    32    1
    37     3    33    1
    38     3    34    1
    39     4    35    1
    40     4    36    1
    41     6    37    1
    42     6    38    1
    43     8    39    1
    44    12    40    1
    45    13    41    1
    46    17    42    1
    47    19    43    1
    48    20    44    1
    49    22    45    1
    50    27    46    1
    51    27    47    1
    52    28    48    1
    53    28    49    1
    54    29    50    1
    55    29    51    1
    56    30    52    1
    57    30    53    1
