@<TRIPOS>MOLECULE
mol_719_akc_s41598_018_22063_9
*****
 48 51 0 0 0
SMALL
GASTEIGER

@<TRIPOS>ATOM
      1 C          -0.5427   -0.8199    0.5798 C.ar    1  UNL1       -0.0424
      2 C          -0.8421   -0.4261   -0.7516 C.ar    1  UNL1       -0.0424
      3 C           0.1269    0.4732   -1.1468 C.ar    1  UNL1        0.0288
      4 N           0.9714    0.6492   -0.0840 N.ar    1  UNL1       -0.2260
      5 C           0.5963   -0.1437    0.9686 C.ar    1  UNL1        0.0288
      6 S           2.3025    1.7031   -0.0654 S.O2    1  UNL1        0.0837
      7 O           2.3542    2.3328   -1.3715 O.2     1  UNL1       -0.1476
      8 O           2.1776    2.4544    1.1661 O.2     1  UNL1       -0.1476
      9 C           3.7263    0.6493    0.0565 C.ar    1  UNL1        0.1112
     10 C           4.5582    0.7585    1.1677 C.ar    1  UNL1       -0.0346
     11 C           4.0551   -0.2113   -0.9963 C.ar    1  UNL1       -0.0313
     12 C           5.2354   -0.9791   -0.9466 C.ar    1  UNL1       -0.0371
     13 C           6.0762   -0.8696    0.1791 C.ar    1  UNL1       -0.0389
     14 C           5.7204   -0.0048    1.2292 C.ar    1  UNL1       -0.0563
     15 C           5.5582   -1.9008   -2.1014 C.3     1  UNL1        0.0130
     16 C           6.8640   -1.5541   -2.8186 C.3     1  UNL1       -0.0275
     17 C           7.3624   -1.6478    0.3067 C.3     1  UNL1        0.0130
     18 C           8.3733   -1.3004   -0.7855 C.3     1  UNL1       -0.0275
     19 N           8.1140   -2.0186   -2.0925 N.4     1  UNL1        0.2390
     20 C           8.3069   -3.5223   -1.9962 C.3     1  UNL1       -0.0045
     21 C           8.3838   -4.2218   -3.3162 C.ar    1  UNL1        0.0151
     22 C           7.4566   -5.2068   -3.6430 C.ar    1  UNL1        0.0358
     23 N           7.4468   -5.8685   -4.8157 N.ar    1  UNL1       -0.2628
     24 C           8.4160   -5.5675   -5.7051 C.ar    1  UNL1        0.0276
     25 C           9.3964   -4.6198   -5.4702 C.ar    1  UNL1       -0.0432
     26 C           9.3818   -3.9387   -4.2558 C.ar    1  UNL1       -0.0507
     27 H          -1.1146   -1.5058    1.1940 H       1  UNL1        0.0633
     28 H          -1.6867   -0.7495   -1.3488 H       1  UNL1        0.0633
     29 H           0.2518    1.0250   -2.0705 H       1  UNL1        0.0828
     30 H           1.1371   -0.1392    1.9062 H       1  UNL1        0.0828
     31 H           4.3220    1.4411    1.9829 H       1  UNL1        0.0637
     32 H           3.3992   -0.2633   -1.8661 H       1  UNL1        0.0640
     33 H           6.3543    0.0958    2.1106 H       1  UNL1        0.0621
     34 H           4.7541   -1.8288   -2.8459 H       1  UNL1        0.0365
     35 H           5.5392   -2.9389   -1.7544 H       1  UNL1        0.0365
     36 H           6.9714   -0.4727   -2.9668 H       1  UNL1        0.0818
     37 H           6.8885   -2.0208   -3.8088 H       1  UNL1        0.0818
     38 H           7.8316   -1.4112    1.2704 H       1  UNL1        0.0365
     39 H           7.1353   -2.7173    0.3534 H       1  UNL1        0.0365
     40 H           9.3820   -1.5967   -0.4759 H       1  UNL1        0.0818
     41 H           8.3955   -0.2268   -1.0074 H       1  UNL1        0.0818
     42 H           8.8773   -1.7045   -2.7038 H       1  UNL1        0.2037
     43 H           9.2441   -3.6897   -1.4520 H       1  UNL1        0.0868
     44 H           7.4938   -3.9249   -1.3859 H       1  UNL1        0.0868
     45 H           6.6655   -5.5097   -2.9599 H       1  UNL1        0.0834
     46 H           8.3853   -6.1294   -6.6352 H       1  UNL1        0.0829
     47 H          10.1595   -4.4253   -6.2177 H       1  UNL1        0.0633
     48 H          10.1631   -3.2092   -4.0591 H       1  UNL1        0.0623
@<TRIPOS>UNITY_ATOM_ATTR
19 1
charge 1
@<TRIPOS>BOND
     1     1     2   ar
     2     2     3   ar
     3     3     4   ar
     4     4     5   ar
     5     1     5   ar
     6     4     6    1
     7     6     7    2
     8     6     8    2
     9     6     9    1
    10    11    12   ar
    11    12    13   ar
    12    13    14   ar
    13    10    14   ar
    14    10     9   ar
    15     9    11   ar
    16    12    15    1
    17    15    16    1
    18    13    17    1
    19    17    18    1
    20    16    19    1
    21    18    19    1
    22    19    20    1
    23    20    21    1
    24    22    23   ar
    25    23    24   ar
    26    24    25   ar
    27    25    26   ar
    28    21    22   ar
    29    21    26   ar
    30     1    27    1
    31     2    28    1
    32     3    29    1
    33     5    30    1
    34    10    31    1
    35    11    32    1
    36    14    33    1
    37    15    34    1
    38    15    35    1
    39    16    36    1
    40    16    37    1
    41    17    38    1
    42    17    39    1
    43    18    40    1
    44    18    41    1
    45    19    42    1
    46    20    43    1
    47    20    44    1
    48    22    45    1
    49    24    46    1
    50    25    47    1
    51    26    48    1
