@<TRIPOS>MOLECULE
mol_71_akc_s11030_018_9830_7
>70.sdf
 18 19 0 0 0
SMALL
GASTEIGER

@<TRIPOS>ATOM
      1 H           1.0380   -0.1385    0.0403 H       1  UNL1        0.1673
      2 N           2.0496   -0.0996    0.0409 N.ar    1  UNL1       -0.3346
      3 C           2.8198    1.0358    0.0420 C.ar    1  UNL1        0.0679
      4 C           4.1265    0.5656    0.0416 C.ar    1  UNL1        0.0909
      5 C           5.1905    1.4767    0.0414 C.ar    1  UNL1       -0.0145
      6 C           4.8999    2.8480    0.0412 C.ar    1  UNL1        0.0614
      7 CL          6.2433    3.9388    0.0385 Cl      1  UNL1       -0.0820
      8 C           3.5715    3.2999    0.0424 C.ar    1  UNL1        0.0613
      9 CL          3.1755    4.9850    0.0437 Cl      1  UNL1       -0.0820
     10 C           2.4975    2.3951    0.0425 C.ar    1  UNL1       -0.0165
     11 N           4.1517   -0.8040    0.0405 N.ar    1  UNL1       -0.2241
     12 C           2.8865   -1.1934    0.0385 C.ar    1  UNL1        0.2131
     13 C           2.3340   -2.5810    0.0317 C.3     1  UNL1        0.4504
     14 F           0.9714   -2.5627    0.0439 F       1  UNL1       -0.1632
     15 F           2.6997   -3.2792   -1.0720 F       1  UNL1       -0.1632
     16 F           2.7194   -3.2994    1.1154 F       1  UNL1       -0.1632
     17 H           6.2117    1.1113    0.0405 H       1  UNL1        0.0654
     18 H           1.4681    2.7388    0.0423 H       1  UNL1        0.0654
@<TRIPOS>BOND
     1     2     1    1
     2     3     2   ar
     3     4     3   ar
     4     5     4   ar
     5     5    17    1
     6     6     5   ar
     7     7     6    1
     8     8     6   ar
     9     9     8    1
    10    10     8   ar
    11    10     3   ar
    12    10    18    1
    13    11     4   ar
    14    12    11   ar
    15    12     2   ar
    16    13    12    1
    17    14    13    1
    18    15    13    1
    19    16    13    1
