@<TRIPOS>MOLECULE
mol_721_akc_s11030_022_10548_9
*****
 56 59 0 0 0
SMALL
GASTEIGER

@<TRIPOS>ATOM
      1 C           2.9295   -4.6500    3.1600 C.ar    1  UNL1        0.2754
      2 C           3.2915   -3.2037    2.9123 C.ar    1  UNL1        0.1227
      3 N           2.8087   -2.5316    1.9108 N.ar    1  UNL1       -0.1666
      4 N           1.9276   -3.1783    1.0616 N.ar    1  UNL1       -0.2099
      5 C           1.5274   -4.5004    1.2063 C.ar    1  UNL1        0.3458
      6 N           2.0948   -5.1930    2.2336 N.ar    1  UNL1       -0.2723
      7 C           1.3784   -2.3863   -0.0366 C.3     1  UNL1        0.0717
      8 C           2.2402   -2.4432   -1.2759 C.ar    1  UNL1       -0.0253
      9 C           3.2803   -1.5220   -1.4557 C.ar    1  UNL1       -0.0446
     10 C           2.0395   -3.4290   -2.2474 C.ar    1  UNL1       -0.0533
     11 C           2.8458   -3.4785   -3.3872 C.ar    1  UNL1       -0.0184
     12 C           3.8557   -2.5317   -3.5733 C.ar    1  UNL1        0.1403
     13 C           4.1032   -1.5472   -2.6007 C.ar    1  UNL1        0.0607
     14 C           5.2241   -0.5425   -2.6863 C.3     1  UNL1        0.2559
     15 O           6.4837   -1.1962   -2.6575 O.2     1  UNL1       -0.4419
     16 N           5.2531    0.2930   -3.8903 N.3     1  UNL1       -0.0715
     17 N           6.5543    0.4117   -4.2812 N.2     1  UNL1       -0.0979
     18 C           7.1818   -0.4897   -3.5868 C.2     1  UNL1        0.2449
     19 C           8.6111   -0.8364   -3.6314 C.ar    1  UNL1        0.0395
     20 C          10.4591   -2.2388   -2.9499 C.ar    1  UNL1        0.0417
     21 C           9.1004   -1.9351   -2.9116 C.ar    1  UNL1       -0.0311
     22 C           9.4913   -0.0539   -4.3881 C.ar    1  UNL1       -0.0494
     23 C          10.8532   -0.3659   -4.4198 C.ar    1  UNL1       -0.0597
     24 C          11.3380   -1.4594   -3.6993 C.ar    1  UNL1       -0.0433
     25 O           4.6676    1.5847   -3.5406 O.3     1  UNL1       -0.3191
     26 C           3.3783    1.6769   -4.0021 C.2     1  UNL1        0.3324
     27 O           2.7360    0.8166   -4.5948 O.2     1  UNL1       -0.2487
     28 C           2.8012    3.0000   -3.5956 C.3     1  UNL1        0.0356
     29 O           4.7214   -2.5855   -4.6936 O.3     1  UNL1       -0.4256
     30 C           4.3230   -3.0509   -5.9504 C.2     1  UNL1        0.3092
     31 O           3.2238   -3.4855   -6.2658 O.2     1  UNL1       -0.2507
     32 C           5.4999   -3.0123   -6.8808 C.3     1  UNL1        0.0336
     33 O           0.6991   -5.0586    0.4881 O.2     1  UNL1       -0.2449
     34 O           3.3543   -5.2533    4.1323 O.2     1  UNL1       -0.2658
     35 C           4.2059   -2.5307    3.8955 C.3     1  UNL1       -0.0154
     36 CL         11.0554   -3.5862   -2.0610 Cl      1  UNL1       -0.0835
     37 H           1.7970   -6.1469    2.3610 H       1  UNL1        0.1735
     38 H           0.3653   -2.7312   -0.2750 H       1  UNL1        0.0560
     39 H           1.2750   -1.3477    0.3023 H       1  UNL1        0.0560
     40 H           3.4575   -0.7797   -0.6777 H       1  UNL1        0.0627
     41 H           1.2536   -4.1729   -2.1236 H       1  UNL1        0.0622
     42 H           2.6683   -4.2685   -4.1101 H       1  UNL1        0.0654
     43 H           5.2098    0.0949   -1.7897 H       1  UNL1        0.1083
     44 H           8.4313   -2.5560   -2.3214 H       1  UNL1        0.0640
     45 H           9.1241    0.8029   -4.9500 H       1  UNL1        0.0625
     46 H          11.5387    0.2441   -5.0038 H       1  UNL1        0.0618
     47 H          12.3986   -1.6987   -3.7253 H       1  UNL1        0.0632
     48 H           2.6915    3.0389   -2.5082 H       1  UNL1        0.0342
     49 H           3.4378    3.8144   -3.9483 H       1  UNL1        0.0342
     50 H           1.8112    3.1184   -4.0499 H       1  UNL1        0.0342
     51 H           6.0693   -2.0904   -6.7378 H       1  UNL1        0.0342
     52 H           6.1350   -3.8838   -6.7050 H       1  UNL1        0.0342
     53 H           5.1419   -3.0280   -7.9146 H       1  UNL1        0.0342
     54 H           5.0060   -2.0156    3.3566 H       1  UNL1        0.0295
     55 H           3.6312   -1.7947    4.4655 H       1  UNL1        0.0295
     56 H           4.6568   -3.2407    4.5918 H       1  UNL1        0.0295
@<TRIPOS>BOND
     1     1     2   ar
     2     2     3   ar
     3     3     4   ar
     4     4     5   ar
     5     5     6   ar
     6     1     6   ar
     7     4     7    1
     8     7     8    1
     9    10    11   ar
    10    11    12   ar
    11    12    13   ar
    12     9    13   ar
    13     9     8   ar
    14     8    10   ar
    15    14    13    1
    16    16    17    1
    17    17    18    2
    18    15    18    1
    19    15    14    1
    20    14    16    1
    21    18    19    1
    22    20    21   ar
    23    22    23   ar
    24    23    24   ar
    25    20    24   ar
    26    21    19   ar
    27    19    22   ar
    28    16    25    1
    29    25    26    1
    30    26    27    2
    31    26    28    1
    32    12    29    1
    33    29    30    1
    34    30    31    2
    35    30    32    1
    36     5    33    2
    37     1    34    2
    38     2    35    1
    39    20    36    1
    40     6    37    1
    41     7    38    1
    42     7    39    1
    43     9    40    1
    44    10    41    1
    45    11    42    1
    46    14    43    1
    47    21    44    1
    48    22    45    1
    49    23    46    1
    50    24    47    1
    51    28    48    1
    52    28    49    1
    53    28    50    1
    54    32    51    1
    55    32    52    1
    56    32    53    1
    57    35    54    1
    58    35    55    1
    59    35    56    1
