@<TRIPOS>MOLECULE
mol_724_akc_1478641920222140336
*****
 60 63 0 0 0
SMALL
GASTEIGER

@<TRIPOS>ATOM
      1 C           0.6907    0.4143    0.0831 C.ar    1  UNL1        0.0213
      2 C           1.3964   -0.7985    0.0671 C.ar    1  UNL1        0.1361
      3 C           0.7339   -2.0504   -0.0254 C.ar    1  UNL1        0.0409
      4 C          -0.6782   -2.0471   -0.1424 C.ar    1  UNL1        0.1380
      5 C          -1.4210   -0.8191   -0.0496 C.ar    1  UNL1        0.0634
      6 C          -0.7215    0.4056    0.0387 C.ar    1  UNL1       -0.0151
      7 C          -1.4598    1.7264    0.0384 C.3     1  UNL1        0.0372
      8 C          -2.9224   -0.7658   -0.0228 C.2     1  UNL1        0.1388
      9 C          -3.6410    0.3704   -0.0044 C.2     1  UNL1        0.0669
     10 C          -2.9559    1.6813   -0.0016 C.2     1  UNL1        0.1716
     11 C          -5.1147    0.3161   -0.0089 C.ar    1  UNL1       -0.0108
     12 C          -5.8358    0.2979    1.1938 C.ar    1  UNL1       -0.0504
     13 C          -7.2292    0.1892    1.1779 C.ar    1  UNL1       -0.0196
     14 C          -7.8948    0.0988   -0.0421 C.ar    1  UNL1        0.1169
     15 C          -7.1940    0.1196   -1.2403 C.ar    1  UNL1       -0.0196
     16 C          -5.8042    0.2300   -1.2266 C.ar    1  UNL1       -0.0504
     17 O          -3.6105   -1.9721    0.0251 O.2     1  UNL1       -0.5053
     18 O          -3.6010    2.7369   -0.0195 O.2     1  UNL1       -0.2916
     19 O          -9.2520   -0.0168   -0.1032 O.3     1  UNL1       -0.5068
     20 O          -1.4590   -3.1211   -0.5072 O.3     1  UNL1       -0.4940
     21 O           2.7687   -0.8474    0.1246 O.3     1  UNL1       -0.4812
     22 C           1.6199   -3.2884   -0.0817 C.3     1  UNL1       -0.0023
     23 C           1.9789   -3.6696   -1.4933 C.2     1  UNL1       -0.0807
     24 C           3.2114   -3.8826   -1.9957 C.2     1  UNL1       -0.0793
     25 C           3.3950   -4.1550   -3.4632 C.3     1  UNL1       -0.0440
     26 C           4.4729   -3.8479   -1.1782 C.3     1  UNL1       -0.0440
     27 C           1.4455    1.6677    0.1372 C.2     1  UNL1       -0.0510
     28 C           2.7768    1.6300    0.0996 C.2     1  UNL1       -0.0409
     29 C           3.5555    0.3498    0.0232 C.3     1  UNL1        0.1235
     30 C           4.3096    0.2964   -1.3100 C.3     1  UNL1       -0.0215
     31 C           4.5494    0.3035    1.1891 C.3     1  UNL1       -0.0215
     32 C          -1.1747   -4.4528   -0.1143 C.3     1  UNL1        0.0788
     33 H          -1.1521    2.2899   -0.8525 H       1  UNL1        0.0394
     34 H          -1.1932    2.2829    0.9431 H       1  UNL1        0.0394
     35 H          -5.3149    0.3555    2.1467 H       1  UNL1        0.0625
     36 H          -7.7701    0.1674    2.1186 H       1  UNL1        0.0654
     37 H          -7.7255    0.0432   -2.1856 H       1  UNL1        0.0654
     38 H          -5.2592    0.2369   -2.1667 H       1  UNL1        0.0625
     39 H          -2.9885   -2.6788   -0.2152 H       1  UNL1        0.2922
     40 H          -9.6047    0.0303    0.7997 H       1  UNL1        0.2921
     41 H           2.5186   -3.1292    0.5272 H       1  UNL1        0.0358
     42 H           1.1542   -4.1305    0.4300 H       1  UNL1        0.0358
     43 H           1.1309   -3.7318   -2.1741 H       1  UNL1        0.0575
     44 H           3.8783   -3.2964   -3.9408 H       1  UNL1        0.0274
     45 H           4.0178   -5.0412   -3.6194 H       1  UNL1        0.0274
     46 H           2.4412   -4.3304   -3.9722 H       1  UNL1        0.0274
     47 H           4.6821   -2.8360   -0.8217 H       1  UNL1        0.0274
     48 H           4.4052   -4.5230   -0.3192 H       1  UNL1        0.0274
     49 H           5.3365   -4.1702   -1.7706 H       1  UNL1        0.0274
     50 H           0.9412    2.6258    0.1840 H       1  UNL1        0.0623
     51 H           3.3350    2.5629    0.1119 H       1  UNL1        0.0611
     52 H           4.9692    1.1615   -1.4429 H       1  UNL1        0.0271
     53 H           4.9213   -0.6089   -1.3817 H       1  UNL1        0.0271
     54 H           3.6111    0.2636   -2.1549 H       1  UNL1        0.0271
     55 H           4.0200    0.2635    2.1491 H       1  UNL1        0.0271
     56 H           5.1676   -0.6003    1.1406 H       1  UNL1        0.0271
     57 H           5.2135    1.1749    1.1992 H       1  UNL1        0.0271
     58 H          -0.4538   -4.9133   -0.7924 H       1  UNL1        0.0660
     59 H          -0.8786   -4.5176    0.9355 H       1  UNL1        0.0660
     60 H          -2.1025   -5.0251   -0.2256 H       1  UNL1        0.0660
@<TRIPOS>BOND
     1     1     2   ar
     2     2     3   ar
     3     3     4   ar
     4     4     5   ar
     5     5     6   ar
     6     1     6   ar
     7     8     9    2
     8     9    10    1
     9     7    10    1
    10     5     8    1
    11     7     6    1
    12    12    13   ar
    13    13    14   ar
    14    14    15   ar
    15    15    16   ar
    16    11    12   ar
    17    11    16   ar
    18     9    11    1
    19     8    17    1
    20    10    18    2
    21    14    19    1
    22     4    20    1
    23     2    21    1
    24     3    22    1
    25    22    23    1
    26    23    24    2
    27    24    25    1
    28    24    26    1
    29     1    27    1
    30    27    28    2
    31    28    29    1
    32    21    29    1
    33    29    30    1
    34    29    31    1
    35    20    32    1
    36     7    33    1
    37     7    34    1
    38    12    35    1
    39    13    36    1
    40    15    37    1
    41    16    38    1
    42    17    39    1
    43    19    40    1
    44    22    41    1
    45    22    42    1
    46    23    43    1
    47    25    44    1
    48    25    45    1
    49    25    46    1
    50    26    47    1
    51    26    48    1
    52    26    49    1
    53    27    50    1
    54    28    51    1
    55    30    52    1
    56    30    53    1
    57    30    54    1
    58    31    55    1
    59    31    56    1
    60    31    57    1
    61    32    58    1
    62    32    59    1
    63    32    60    1
