@<TRIPOS>MOLECULE
mol_725_akc_s11686_022_00632_3
*****
 41 44 0 0 0
SMALL
GASTEIGER

@<TRIPOS>ATOM
      1 C           2.7154    4.2053    2.0639 C.ar    1  UNL1       -0.0613
      2 C           3.5017    3.8275    3.1529 C.ar    1  UNL1       -0.0617
      3 C           3.2996    2.5919    3.7623 C.ar    1  UNL1       -0.0613
      4 C           2.3111    1.7329    3.2883 C.ar    1  UNL1       -0.0526
      5 C           1.5103    2.1008    2.1979 C.ar    1  UNL1        0.0172
      6 C           1.7229    3.3488    1.5893 C.ar    1  UNL1       -0.0526
      7 C           0.4288    1.1805    1.7178 C.3     1  UNL1        0.1779
      8 N          -0.7804    1.4296    2.4903 N.ar    1  UNL1       -0.1762
      9 C          -2.5209    1.2770    3.8635 C.ar    1  UNL1        0.1229
     10 C          -1.2459    0.7547    3.6163 C.ar    1  UNL1        0.2333
     11 C          -1.6632    2.3991    2.1937 C.ar    1  UNL1        0.2537
     12 N          -2.8398    1.9843    2.7007 N.ar    1  UNL1       -0.2572
     13 C          -0.6900   -0.2413    4.4102 C.ar    1  UNL1        0.0119
     14 C          -1.4432   -0.6268    5.5291 C.ar    1  UNL1       -0.0554
     15 C          -2.6818   -0.0272    5.8341 C.ar    1  UNL1       -0.0594
     16 C          -3.2571    0.9386    4.9973 C.ar    1  UNL1       -0.0312
     17 C          -4.0365    1.8619    1.8593 C.ar    1  UNL1        0.0521
     18 C          -5.7718    0.3585    1.1117 C.ar    1  UNL1       -0.0496
     19 C          -4.9232    0.8155    2.1242 C.ar    1  UNL1       -0.0370
     20 C          -4.0554    2.5256    0.6317 C.ar    1  UNL1       -0.0370
     21 C          -4.8977    2.0603   -0.3800 C.ar    1  UNL1       -0.0496
     22 C          -5.7247    0.9553   -0.1498 C.ar    1  UNL1        0.0143
     23 C          -6.4917    0.3652   -1.2640 C.2     1  UNL1        0.1502
     24 H          -7.1381   -0.4964   -1.0270 H       1  UNL1        0.1081
     25 O          -6.3787    0.7943   -2.4045 O.2     1  UNL1       -0.2957
     26 H           2.8875    5.1689    1.5857 H       1  UNL1        0.0618
     27 H           4.2777    4.4932    3.5209 H       1  UNL1        0.0618
     28 H           3.9187    2.2964    4.6063 H       1  UNL1        0.0618
     29 H           2.1780    0.7726    3.7791 H       1  UNL1        0.0622
     30 H           1.1342    3.6638    0.7296 H       1  UNL1        0.0622
     31 H           0.2038    1.3593    0.6589 H       1  UNL1        0.1086
     32 H           0.7205    0.1291    1.8062 H       1  UNL1        0.1086
     33 H          -1.5031    3.1942    1.4760 H       1  UNL1        0.1605
     34 H           0.2616   -0.7009    4.1760 H       1  UNL1        0.0684
     35 H          -1.0580   -1.4074    6.1867 H       1  UNL1        0.0620
     36 H          -3.2139   -0.3403    6.7337 H       1  UNL1        0.0618
     37 H          -4.2201    1.3885    5.2068 H       1  UNL1        0.0640
     38 H          -6.4094   -0.5034    1.2988 H       1  UNL1        0.0625
     39 H          -4.9134    0.2665    3.0577 H       1  UNL1        0.0638
     40 H          -3.3959    3.3544    0.4028 H       1  UNL1        0.0638
     41 H          -4.8697    2.5238   -1.3663 H       1  UNL1        0.0625
@<TRIPOS>UNITY_ATOM_ATTR
8 1
charge 1
@<TRIPOS>BOND
     1     1     2   ar
     2     2     3   ar
     3     3     4   ar
     4     4     5   ar
     5     5     6   ar
     6     1     6   ar
     7     5     7    1
     8     7     8    1
     9    11    12   ar
    10     9    12   ar
    11    10     8   ar
    12     8    11   ar
    13    13    14   ar
    14    14    15   ar
    15    15    16   ar
    16     9    16   ar
    17    10    13   ar
    18     9    10   ar
    19    12    17    1
    20    18    19   ar
    21    20    21   ar
    22    21    22   ar
    23    18    22   ar
    24    19    17   ar
    25    17    20   ar
    26    22    23    1
    27    23    24    1
    28    23    25    2
    29     1    26    1
    30     2    27    1
    31     3    28    1
    32     4    29    1
    33     6    30    1
    34     7    31    1
    35     7    32    1
    36    11    33    1
    37    13    34    1
    38    14    35    1
    39    15    36    1
    40    16    37    1
    41    18    38    1
    42    19    39    1
    43    20    40    1
    44    21    41    1
