@<TRIPOS>MOLECULE
mol_726_akc_1478641920222137797
*****
 30 32 0 0 0
SMALL
GASTEIGER

@<TRIPOS>ATOM
      1 C           1.2731    0.7731   -0.0049 C.ar    1  UNL1        0.0745
      2 C           2.5131    1.4369   -0.0004 C.ar    1  UNL1        0.1286
      3 C           3.7155    0.7233    0.0032 C.ar    1  UNL1       -0.0165
      4 C           3.7089   -0.6726    0.0041 C.ar    1  UNL1       -0.0463
      5 C           2.4793   -1.3414    0.0016 C.ar    1  UNL1       -0.0471
      6 C           1.2695   -0.6214   -0.0030 C.ar    1  UNL1        0.0368
      7 C          -0.0029   -1.3697   -0.0057 C.2     1  UNL1        0.1949
      8 C          -1.2829   -0.6349   -0.0043 C.ar    1  UNL1        0.0400
      9 C          -1.3028    0.7618   -0.0060 C.ar    1  UNL1        0.0748
     10 C          -0.0178    1.5128   -0.0164 C.2     1  UNL1        0.2015
     11 C          -2.5510    1.4133   -0.0025 C.ar    1  UNL1        0.1318
     12 C          -2.4812   -1.3716   -0.0013 C.ar    1  UNL1       -0.0084
     13 C          -3.6976   -0.7014   -0.0004 C.ar    1  UNL1        0.1210
     14 C          -3.7422    0.6847   -0.0007 C.ar    1  UNL1        0.0221
     15 O           0.0005   -2.5950   -0.0071 O.2     1  UNL1       -0.2866
     16 O          -0.0245    2.7366   -0.0413 O.2     1  UNL1       -0.2864
     17 O          -2.6369    2.7770    0.0014 O.3     1  UNL1       -0.5059
     18 O          -4.8854   -1.3685    0.0013 O.3     1  UNL1       -0.5066
     19 O           2.5837    2.8012    0.0033 O.3     1  UNL1       -0.5060
     20 C           4.9982   -1.4405    0.0085 C.3     1  UNL1       -0.0396
     21 H           4.6647    1.2539    0.0059 H       1  UNL1        0.0657
     22 H           2.4609   -2.4317    0.0028 H       1  UNL1        0.0627
     23 H          -2.4493   -2.4585   -0.0001 H       1  UNL1        0.0661
     24 H          -4.7073    1.1829    0.0009 H       1  UNL1        0.0691
     25 H          -3.5621    3.0664   -0.0013 H       1  UNL1        0.2922
     26 H          -4.7168   -2.3261    0.0005 H       1  UNL1        0.2921
     27 H           3.5043    3.1031   -0.0025 H       1  UNL1        0.2922
     28 H           5.0628   -2.0681    0.9027 H       1  UNL1        0.0278
     29 H           5.0684   -2.0689   -0.8847 H       1  UNL1        0.0278
     30 H           5.8631   -0.7677    0.0109 H       1  UNL1        0.0278
@<TRIPOS>BOND
     1     1     2   ar
     2     2     3   ar
     3     3     4   ar
     4     4     5   ar
     5     5     6   ar
     6     7     8    1
     7     8     9   ar
     8     9    10    1
     9     1     6   ar
    10     1    10    1
    11     6     7    1
    12    12    13   ar
    13    13    14   ar
    14    11    14   ar
    15     8    12   ar
    16    11     9   ar
    17     7    15    2
    18    10    16    2
    19    11    17    1
    20    13    18    1
    21     2    19    1
    22     4    20    1
    23     3    21    1
    24     5    22    1
    25    12    23    1
    26    14    24    1
    27    17    25    1
    28    18    26    1
    29    19    27    1
    30    20    28    1
    31    20    29    1
    32    20    30    1
