@<TRIPOS>MOLECULE
mol_729_akc_antibiotics11121712
709.sdf
 42 43 0 0 0
SMALL
GASTEIGER

@<TRIPOS>ATOM
      1 C          -1.3644   -1.0964   -0.2669 C.3     1  UNL1       -0.0436
      2 C          -2.4830   -0.0963   -0.5092 C.3     1  UNL1       -0.0486
      3 C          -2.2808    1.1676    0.3160 C.3     1  UNL1       -0.0317
      4 C          -0.8536    1.6676    0.3780 C.2     1  UNL1       -0.0728
      5 C           0.2118    0.8896    0.0658 C.2     1  UNL1       -0.0643
      6 C           0.0398   -0.5056   -0.5568 C.3     1  UNL1       -0.0108
      7 C           1.0809   -1.5326   -0.0407 C.3     1  UNL1       -0.0436
      8 C           1.6517    1.3519    0.2245 C.3     1  UNL1       -0.0256
      9 C           2.5903    0.3086    0.8819 C.3     1  UNL1       -0.0089
     10 C           2.5014   -0.9853    0.0508 C.3     1  UNL1       -0.0465
     11 C          -0.7294    3.1260    0.7423 C.3     1  UNL1       -0.0435
     12 C           0.2132   -0.3391   -2.0880 C.3     1  UNL1       -0.0558
     13 C           2.4085    0.1060    2.4298 C.3     1  UNL1        0.0636
     14 C           3.3663   -0.9662    2.9750 C.3     1  UNL1       -0.0361
     15 C           2.6689    1.4063    3.2053 C.3     1  UNL1       -0.0361
     16 O           1.0958   -0.3341    2.7751 O.3     1  UNL1       -0.3888
     17 H          -1.4232   -1.4285    0.7786 H       1  UNL1        0.0274
     18 H          -1.5356   -1.9881   -0.8832 H       1  UNL1        0.0274
     19 H          -3.4482   -0.5496   -0.2520 H       1  UNL1        0.0269
     20 H          -2.5386    0.1612   -1.5725 H       1  UNL1        0.0269
     21 H          -2.9434    1.9435   -0.0854 H       1  UNL1        0.0310
     22 H          -2.6073    0.9778    1.3474 H       1  UNL1        0.0310
     23 H           1.0871   -2.4120   -0.6982 H       1  UNL1        0.0274
     24 H           0.7867   -1.9139    0.9435 H       1  UNL1        0.0274
     25 H           2.0388    1.5794   -0.7776 H       1  UNL1        0.0314
     26 H           1.7249    2.2953    0.7719 H       1  UNL1        0.0314
     27 H           3.6140    0.6877    0.7455 H       1  UNL1        0.0331
     28 H           2.8740   -0.7805   -0.9612 H       1  UNL1        0.0269
     29 H           3.1710   -1.7558    0.4445 H       1  UNL1        0.0269
     30 H          -0.0822    3.2816    1.6081 H       1  UNL1        0.0274
     31 H          -0.3346    3.6847   -0.1150 H       1  UNL1        0.0274
     32 H          -1.7034    3.5663    0.9826 H       1  UNL1        0.0274
     33 H           0.0194   -1.2811   -2.6128 H       1  UNL1        0.0238
     34 H          -0.4699    0.4145   -2.4968 H       1  UNL1        0.0238
     35 H           1.2259   -0.0200   -2.3561 H       1  UNL1        0.0238
     36 H           4.4080   -0.7480    2.7176 H       1  UNL1        0.0257
     37 H           3.2916   -1.0386    4.0672 H       1  UNL1        0.0257
     38 H           3.1086   -1.9633    2.6050 H       1  UNL1        0.0257
     39 H           1.9346    2.1794    2.9595 H       1  UNL1        0.0257
     40 H           2.5687    1.2413    4.2853 H       1  UNL1        0.0257
     41 H           3.6731    1.7959    3.0117 H       1  UNL1        0.0257
     42 H           0.4574    0.3391    2.4705 H       1  UNL1        0.2101
@<TRIPOS>BOND
     1     1     2    1
     2     1     6    1
     3     1    17    1
     4     1    18    1
     5     2     3    1
     6     2    19    1
     7     2    20    1
     8     3     4    1
     9     3    21    1
    10     3    22    1
    11     4     5    2
    12     4    11    1
    13     5     8    1
    14     6     5    1
    15     6    12    1
    16     7     6    1
    17     7    10    1
    18     7    23    1
    19     7    24    1
    20     8     9    1
    21     8    25    1
    22     8    26    1
    23     9    10    1
    24    10    28    1
    25    10    29    1
    26    11    30    1
    27    11    31    1
    28    11    32    1
    29    12    33    1
    30    12    34    1
    31    12    35    1
    32    13    14    1
    33    13    15    1
    34    13    16    1
    35    14    36    1
    36    14    37    1
    37    14    38    1
    38    15    39    1
    39    15    40    1
    40    15    41    1
    41    16    42    1
    42     9    27    1
    43     9    13    1
