@<TRIPOS>MOLECULE
mol_730_akc_tropicalmed7120403
*****
 55 57 0 0 0
SMALL
GASTEIGER

@<TRIPOS>ATOM
      1 N          -0.9715    0.6083    0.1912 N.ar    1  UNL1       -0.0557
      2 O          -0.7710   -0.7614    0.1240 O.2     1  UNL1       -0.3331
      3 C           0.5780   -0.9802   -0.0599 C.ar    1  UNL1        0.2516
      4 N           1.2361    0.1635   -0.1085 N.ar    1  UNL1       -0.1875
      5 C           0.2592    1.1173    0.0422 C.ar    1  UNL1        0.2026
      6 C           1.1034   -2.2919   -0.1818 C.2     1  UNL1        0.0034
      7 C           2.4175   -2.5145   -0.3379 C.2     1  UNL1       -0.0492
      8 C           2.9853   -3.8623   -0.4945 C.ar    1  UNL1       -0.0177
      9 C           0.5473    2.5457    0.0343 C.ar    1  UNL1        0.0296
     10 C          -0.2245    4.8630    0.1604 C.ar    1  UNL1        0.1658
     11 C          -0.4799    3.4851    0.1630 C.ar    1  UNL1       -0.0053
     12 C           1.8590    3.0032   -0.0969 C.ar    1  UNL1       -0.0053
     13 C           2.1451    4.3730   -0.0920 C.ar    1  UNL1        0.1658
     14 C           1.1070    5.3257    0.0137 C.ar    1  UNL1        0.2035
     15 C           2.4349   -4.9681    0.1568 C.ar    1  UNL1       -0.0089
     16 C           2.9646   -6.2475   -0.0285 C.ar    1  UNL1        0.1657
     17 C           4.1111   -6.4253   -0.8313 C.ar    1  UNL1        0.2035
     18 C           4.7094   -5.3073   -1.4496 C.ar    1  UNL1        0.1657
     19 C           4.1289   -4.0398   -1.2817 C.ar    1  UNL1       -0.0089
     20 O          -1.2249    5.7902    0.3043 O.3     1  UNL1       -0.4913
     21 O           1.5065    6.6341   -0.0693 O.3     1  UNL1       -0.4885
     22 O           3.4878    4.6286   -0.2593 O.3     1  UNL1       -0.4913
     23 O           5.8568   -5.5111   -2.1713 O.3     1  UNL1       -0.4913
     24 O           4.5914   -7.7141   -0.8783 O.3     1  UNL1       -0.4885
     25 O           2.4256   -7.3685    0.5617 O.3     1  UNL1       -0.4913
     26 C           1.0525   -7.2852    0.9316 C.3     1  UNL1        0.0790
     27 C           5.1712   -8.1440   -2.1028 C.3     1  UNL1        0.0791
     28 C           6.4825   -4.3885   -2.7791 C.3     1  UNL1        0.0790
     29 C           4.0101    5.7795    0.3936 C.3     1  UNL1        0.0790
     30 C           0.5562    7.6851   -0.0440 C.3     1  UNL1        0.0791
     31 C          -2.5648    5.3331    0.4472 C.3     1  UNL1        0.0790
     32 H           0.3837   -3.1016   -0.1592 H       1  UNL1        0.0672
     33 H           3.1211   -1.6844   -0.3842 H       1  UNL1        0.0625
     34 H          -1.4956    3.1111    0.2593 H       1  UNL1        0.0662
     35 H           2.6796    2.2940   -0.1989 H       1  UNL1        0.0662
     36 H           1.5973   -4.8186    0.8285 H       1  UNL1        0.0661
     37 H           4.5591   -3.1631   -1.7564 H       1  UNL1        0.0661
     38 H           0.9217   -6.6486    1.8126 H       1  UNL1        0.0660
     39 H           0.4339   -6.9329    0.0985 H       1  UNL1        0.0660
     40 H           0.7119   -8.2893    1.1993 H       1  UNL1        0.0660
     41 H           4.5931   -7.8124   -2.9725 H       1  UNL1        0.0660
     42 H           6.2173   -7.8336   -2.1718 H       1  UNL1        0.0660
     43 H           5.1702   -9.2386   -2.1023 H       1  UNL1        0.0660
     44 H           5.8313   -3.9374   -3.5350 H       1  UNL1        0.0660
     45 H           6.7929   -3.6531   -2.0299 H       1  UNL1        0.0660
     46 H           7.3841   -4.7435   -3.2875 H       1  UNL1        0.0660
     47 H           3.8910    6.6667   -0.2355 H       1  UNL1        0.0660
     48 H           3.5767    5.9280    1.3885 H       1  UNL1        0.0660
     49 H           5.0858    5.6246    0.5242 H       1  UNL1        0.0660
     50 H          -0.1540    7.6060   -0.8728 H       1  UNL1        0.0660
     51 H           0.0589    7.7438    0.9289 H       1  UNL1        0.0660
     52 H           1.1021    8.6243   -0.1807 H       1  UNL1        0.0660
     53 H          -2.9050    4.8268   -0.4625 H       1  UNL1        0.0660
     54 H          -2.6770    4.6924    1.3284 H       1  UNL1        0.0660
     55 H          -3.1999    6.2106    0.5973 H       1  UNL1        0.0660
@<TRIPOS>BOND
     1     1     2   ar
     2     1     5   ar
     3     2     3   ar
     4     3     4   ar
     5     4     5   ar
     6     3     6    1
     7     6     7    2
     8     7     8    1
     9     5     9    1
    10    11     9   ar
    11     9    12   ar
    12    10    11   ar
    13    10    14   ar
    14    12    13   ar
    15    13    14   ar
    16    19     8   ar
    17    15     8   ar
    18    15    16   ar
    19    16    17   ar
    20    17    18   ar
    21    18    19   ar
    22    10    20    1
    23    14    21    1
    24    13    22    1
    25    18    23    1
    26    17    24    1
    27    16    25    1
    28    25    26    1
    29    24    27    1
    30    23    28    1
    31    22    29    1
    32    21    30    1
    33    20    31    1
    34     6    32    1
    35     7    33    1
    36    11    34    1
    37    12    35    1
    38    15    36    1
    39    19    37    1
    40    26    38    1
    41    26    39    1
    42    26    40    1
    43    27    41    1
    44    27    42    1
    45    27    43    1
    46    28    44    1
    47    28    45    1
    48    28    46    1
    49    29    47    1
    50    29    48    1
    51    29    49    1
    52    30    50    1
    53    30    51    1
    54    30    52    1
    55    31    53    1
    56    31    54    1
    57    31    55    1
