@<TRIPOS>MOLECULE
mol_731_akc_1475636620222150763
8-Benzyl-1,7,9-triphenyl-1,3,8-triazaspiro[4.5]decane-2,4-dione
 67 72 0 0 0
SMALL
GASTEIGER

@<TRIPOS>ATOM
      1 N           1.0415    0.2383    1.2304 N.am    1  UNL1       -0.2401
      2 C           2.3845    0.3724    0.8584 C.2     1  UNL1        0.3137
      3 N           2.4906   -0.0772   -0.4200 N.am    1  UNL1       -0.2379
      4 C           1.2942   -0.5038   -0.8940 C.2     1  UNL1        0.2449
      5 C           0.1780   -0.1737    0.1140 C.3     1  UNL1        0.1306
      6 C          -0.6661   -1.4661    0.3712 C.3     1  UNL1        0.0254
      7 C          -2.0545   -1.1466    0.9532 C.3     1  UNL1        0.0083
      8 N          -2.7150   -0.1503   -0.0175 N.4     1  UNL1        0.2494
      9 C          -1.9805    1.1902    0.1665 C.3     1  UNL1        0.0083
     10 C          -0.6189    1.0256   -0.5127 C.3     1  UNL1        0.0254
     11 O           3.3044    0.7727    1.5411 O.2     1  UNL1       -0.2518
     12 O           1.0951   -1.0113   -1.9887 O.2     1  UNL1       -0.2730
     13 C           0.5849    0.6093    2.5048 C.ar    1  UNL1        0.0389
     14 C           0.3693    1.9500    2.8209 C.ar    1  UNL1       -0.0402
     15 C          -0.2637    2.2857    4.0218 C.ar    1  UNL1       -0.0600
     16 C          -0.6387    1.2882    4.9200 C.ar    1  UNL1       -0.0616
     17 C          -0.3230   -0.0397    4.6481 C.ar    1  UNL1       -0.0600
     18 C           0.2958   -0.3794    3.4430 C.ar    1  UNL1       -0.0402
     19 C          -2.8606   -2.2634    1.5922 C.ar    1  UNL1        0.0003
     20 C          -2.7142   -2.4224    2.9901 C.ar    1  UNL1       -0.0533
     21 C          -3.6116   -3.1598    3.7548 C.ar    1  UNL1       -0.0613
     22 C          -4.6755   -3.7838    3.1291 C.ar    1  UNL1       -0.0617
     23 C          -4.7704   -3.7493    1.7384 C.ar    1  UNL1       -0.0613
     24 C          -3.8388   -3.0369    0.9667 C.ar    1  UNL1       -0.0533
     25 C          -2.7197    2.5090    0.0491 C.ar    1  UNL1        0.0003
     26 C          -2.5803    3.4020    1.1386 C.ar    1  UNL1       -0.0533
     27 C          -3.4169    4.4977    1.3150 C.ar    1  UNL1       -0.0613
     28 C          -4.4101    4.7432    0.3843 C.ar    1  UNL1       -0.0617
     29 C          -4.4960    3.9467   -0.7580 C.ar    1  UNL1       -0.0613
     30 C          -3.6261    2.8615   -0.9517 C.ar    1  UNL1       -0.0533
     31 C          -4.2148   -0.1292   -0.1493 C.3     1  UNL1       -0.0048
     32 C          -5.1270    0.2890    0.9573 C.ar    1  UNL1       -0.0029
     33 C          -4.7227    0.6607    2.2454 C.ar    1  UNL1       -0.0535
     34 C          -5.6594    1.0360    3.2010 C.ar    1  UNL1       -0.0613
     35 C          -7.0176    1.0449    2.8922 C.ar    1  UNL1       -0.0617
     36 C          -7.4427    0.6766    1.6221 C.ar    1  UNL1       -0.0613
     37 C          -6.5060    0.3018    0.6644 C.ar    1  UNL1       -0.0535
     38 H           3.3748   -0.1685   -0.8966 H       1  UNL1        0.1591
     39 H          -0.1167   -2.1443    1.0357 H       1  UNL1        0.0349
     40 H          -0.8025   -2.0249   -0.5647 H       1  UNL1        0.0349
     41 H          -1.8642   -0.5325    1.8327 H       1  UNL1        0.0905
     42 H          -1.7585    1.1999    1.2321 H       1  UNL1        0.0905
     43 H          -0.0337    1.9509   -0.4383 H       1  UNL1        0.0349
     44 H          -0.7746    0.8593   -1.5886 H       1  UNL1        0.0349
     45 H           0.6637    2.7427    2.1365 H       1  UNL1        0.0636
     46 H          -0.4669    3.3279    4.2624 H       1  UNL1        0.0618
     47 H          -1.1425    1.5488    5.8489 H       1  UNL1        0.0618
     48 H          -0.5620   -0.8120    5.3773 H       1  UNL1        0.0618
     49 H           0.5506   -1.4190    3.2536 H       1  UNL1        0.0636
     50 H          -1.9249   -1.9130    3.5310 H       1  UNL1        0.0622
     51 H          -3.4991   -3.2065    4.8361 H       1  UNL1        0.0618
     52 H          -5.4219   -4.3043    3.7248 H       1  UNL1        0.0618
     53 H          -5.6012   -4.2635    1.2584 H       1  UNL1        0.0618
     54 H          -3.9593   -3.0605   -0.1115 H       1  UNL1        0.0622
     55 H          -1.8489    3.2229    1.9202 H       1  UNL1        0.0622
     56 H          -3.3142    5.1260    2.1973 H       1  UNL1        0.0618
     57 H          -5.1105    5.5593    0.5474 H       1  UNL1        0.0618
     58 H          -5.2729    4.1650   -1.4885 H       1  UNL1        0.0618
     59 H          -3.7400    2.2817   -1.8627 H       1  UNL1        0.0622
     60 H          -4.4247    0.4788   -1.0331 H       1  UNL1        0.0867
     61 H          -4.5046   -1.1237   -0.4949 H       1  UNL1        0.0867
     62 H          -3.6774    0.6721    2.5359 H       1  UNL1        0.0622
     63 H          -5.3341    1.3249    4.1968 H       1  UNL1        0.0618
     64 H          -7.7454    1.3395    3.6445 H       1  UNL1        0.0618
     65 H          -8.5032    0.6821    1.3786 H       1  UNL1        0.0618
     66 H          -6.8681    0.0179   -0.3251 H       1  UNL1        0.0622
     67 H          -2.4668   -0.4819   -0.9560 H       1  UNL1        0.2050
@<TRIPOS>UNITY_ATOM_ATTR
8 1
charge 1
@<TRIPOS>BOND
     1     1     2   am
     2     1     5    1
     3     2     3   am
     4     3     4   am
     5     5     4    1
     6     5     6    1
     7     5    10    1
     8     6     7    1
     9     7     8    1
    10     8     9    1
    11     9    10    1
    12    13    14   ar
    13    13    18   ar
    14    14    15   ar
    15    14    45    1
    16    15    16   ar
    17    15    46    1
    18    16    17   ar
    19    16    47    1
    20    17    18   ar
    21    17    48    1
    22    18    49    1
    23    19    20   ar
    24    19    24   ar
    25    20    21   ar
    26    20    50    1
    27    21    22   ar
    28    21    51    1
    29    22    23   ar
    30    22    52    1
    31    23    24   ar
    32    23    53    1
    33    24    54    1
    34    25    26   ar
    35    25    30   ar
    36    26    27   ar
    37    26    55    1
    38    27    28   ar
    39    27    56    1
    40    28    29   ar
    41    28    57    1
    42    29    30   ar
    43    29    58    1
    44    30    59    1
    45    31    32    1
    46    31    60    1
    47    31    61    1
    48    32    33   ar
    49    32    37   ar
    50    33    34   ar
    51    33    62    1
    52    34    35   ar
    53    34    63    1
    54    35    36   ar
    55    35    64    1
    56    36    37   ar
    57    36    65    1
    58    37    66    1
    59     1    13    1
    60     2    11    2
    61     3    38    1
    62     4    12    2
    63     6    39    1
    64     6    40    1
    65     7    19    1
    66     7    41    1
    67     8    31    1
    68     8    67    1
    69     9    25    1
    70     9    42    1
    71    10    43    1
    72    10    44    1
