@<TRIPOS>MOLECULE
mol_732_akc_1475636620222150763
9-Benzyl-1,8,10-triphenyl-1,4,9-triazaspiro[5.5]undecane-2,5-dione
 70 75 0 0 0
SMALL
GASTEIGER

@<TRIPOS>ATOM
      1 N          -1.4191   -1.5056   -0.3484 N.am    1  UNL1       -0.2550
      2 C          -2.6253   -0.9638   -0.8378 C.2     1  UNL1        0.2378
      3 C          -3.2104    0.1265    0.0791 C.3     1  UNL1        0.0887
      4 N          -2.2819    0.7757    0.9851 N.am    1  UNL1       -0.3049
      5 C          -1.2086    0.0183    1.3921 C.2     1  UNL1        0.2379
      6 C          -0.3818   -0.5957    0.2443 C.3     1  UNL1        0.1287
      7 C           0.8842   -1.3007    0.7844 C.3     1  UNL1        0.0253
      8 C           2.1376   -0.4375    1.0140 C.3     1  UNL1        0.0083
      9 N           2.4139    0.4761   -0.1685 N.4     1  UNL1        0.2494
     10 C           1.2316    1.3205   -0.6435 C.3     1  UNL1        0.0083
     11 C           0.0343    0.3813   -0.8932 C.3     1  UNL1        0.0253
     12 O          -3.2793   -1.4233   -1.7675 O.2     1  UNL1       -0.2735
     13 O          -1.0105   -0.1748    2.5805 O.2     1  UNL1       -0.2734
     14 C          -1.2212   -2.9008   -0.4465 C.ar    1  UNL1        0.0374
     15 C          -1.1916   -3.5325   -1.6903 C.ar    1  UNL1       -0.0402
     16 C          -1.0636   -4.9187   -1.7652 C.ar    1  UNL1       -0.0600
     17 C          -0.9925   -5.6798   -0.5984 C.ar    1  UNL1       -0.0616
     18 C          -1.0471   -5.0554    0.6467 C.ar    1  UNL1       -0.0600
     19 C          -1.1591   -3.6686    0.7252 C.ar    1  UNL1       -0.0402
     20 C           2.3180    0.1891    2.3911 C.ar    1  UNL1        0.0003
     21 C           3.3899   -0.2293    3.2045 C.ar    1  UNL1       -0.0533
     22 C           3.5273    0.2303    4.5210 C.ar    1  UNL1       -0.0613
     23 C           2.6102    1.1264    5.0535 C.ar    1  UNL1       -0.0617
     24 C           1.5704    1.5868    4.2591 C.ar    1  UNL1       -0.0613
     25 C           1.4425    1.1287    2.9475 C.ar    1  UNL1       -0.0533
     26 C           0.9648    2.6144    0.1176 C.ar    1  UNL1        0.0003
     27 C           1.9992    3.3512    0.7271 C.ar    1  UNL1       -0.0533
     28 C           1.7196    4.4794    1.5093 C.ar    1  UNL1       -0.0613
     29 C           0.4136    4.9308    1.6526 C.ar    1  UNL1       -0.0617
     30 C          -0.6068    4.2931    0.9635 C.ar    1  UNL1       -0.0613
     31 C          -0.3268    3.1689    0.1824 C.ar    1  UNL1       -0.0533
     32 C           3.0863   -0.2316   -1.3541 C.3     1  UNL1       -0.0048
     33 C           4.4276   -0.8579   -1.0778 C.ar    1  UNL1       -0.0029
     34 C           4.5958   -2.2469   -1.2175 C.ar    1  UNL1       -0.0535
     35 C           5.8401   -2.8393   -0.9965 C.ar    1  UNL1       -0.0613
     36 C           6.9315   -2.0532   -0.6392 C.ar    1  UNL1       -0.0617
     37 C           6.7823   -0.6738   -0.5104 C.ar    1  UNL1       -0.0613
     38 C           5.5392   -0.0754   -0.7313 C.ar    1  UNL1       -0.0535
     39 H          -3.6740    0.9083   -0.5282 H       1  UNL1        0.0558
     40 H          -3.9755   -0.3534    0.7010 H       1  UNL1        0.0558
     41 H          -2.7418    1.1914    1.7910 H       1  UNL1        0.1493
     42 H           0.6709   -1.8520    1.7078 H       1  UNL1        0.0349
     43 H           1.1855   -2.0623    0.0505 H       1  UNL1        0.0349
     44 H           2.9546   -1.1660    0.9748 H       1  UNL1        0.0905
     45 H           1.5334    1.6967   -1.6313 H       1  UNL1        0.0905
     46 H           0.2984   -0.2441   -1.7608 H       1  UNL1        0.0349
     47 H          -0.8212    0.9525   -1.2667 H       1  UNL1        0.0349
     48 H          -1.2870   -2.9570   -2.6081 H       1  UNL1        0.0636
     49 H          -1.0528   -5.4115   -2.7349 H       1  UNL1        0.0618
     50 H          -0.9279   -6.7632   -0.6598 H       1  UNL1        0.0618
     51 H          -1.0371   -5.6540    1.5557 H       1  UNL1        0.0618
     52 H          -1.2613   -3.2069    1.7042 H       1  UNL1        0.0636
     53 H           4.1228   -0.9510    2.8463 H       1  UNL1        0.0622
     54 H           4.3414   -0.1327    5.1448 H       1  UNL1        0.0618
     55 H           2.6890    1.4562    6.0863 H       1  UNL1        0.0618
     56 H           0.8369    2.2810    4.6627 H       1  UNL1        0.0618
     57 H           0.5955    1.5239    2.4055 H       1  UNL1        0.0622
     58 H           3.0436    3.0643    0.6568 H       1  UNL1        0.0622
     59 H           2.5250    5.0000    2.0246 H       1  UNL1        0.0618
     60 H           0.1944    5.7910    2.2804 H       1  UNL1        0.0618
     61 H          -1.6265    4.6682    1.0339 H       1  UNL1        0.0618
     62 H          -1.1699    2.7477   -0.3575 H       1  UNL1        0.0622
     63 H           2.3799   -0.9808   -1.7261 H       1  UNL1        0.0867
     64 H           3.2237    0.5172   -2.1441 H       1  UNL1        0.0867
     65 H           3.7691   -2.8902   -1.5176 H       1  UNL1        0.0622
     66 H           5.9657   -3.9141   -1.1166 H       1  UNL1        0.0618
     67 H           7.9038   -2.5148   -0.4766 H       1  UNL1        0.0618
     68 H           7.6475   -0.0649   -0.2529 H       1  UNL1        0.0618
     69 H           5.4711    1.0074   -0.6553 H       1  UNL1        0.0622
     70 H           3.1368    1.1144    0.1721 H       1  UNL1        0.2050
@<TRIPOS>UNITY_ATOM_ATTR
9 1
charge 1
@<TRIPOS>BOND
     1     1     2   am
     2     1     6    1
     3     1    14    1
     4     2     3    1
     5     2    12    2
     6     3     4    1
     7     3    39    1
     8     3    40    1
     9     4     5   am
    10     4    41    1
    11     5    13    2
    12     6     5    1
    13     6     7    1
    14     6    11    1
    15     7     8    1
    16     7    42    1
    17     7    43    1
    18     8     9    1
    19     8    20    1
    20     8    44    1
    21     9    10    1
    22    10    11    1
    23    10    26    1
    24    10    45    1
    25    11    46    1
    26    11    47    1
    27    14    15   ar
    28    14    19   ar
    29    15    16   ar
    30    15    48    1
    31    16    17   ar
    32    16    49    1
    33    17    18   ar
    34    17    50    1
    35    18    19   ar
    36    18    51    1
    37    19    52    1
    38    20    21   ar
    39    20    25   ar
    40    21    22   ar
    41    21    53    1
    42    22    23   ar
    43    22    54    1
    44    23    24   ar
    45    23    55    1
    46    24    25   ar
    47    24    56    1
    48    25    57    1
    49    26    27   ar
    50    26    31   ar
    51    27    28   ar
    52    27    58    1
    53    28    29   ar
    54    28    59    1
    55    29    30   ar
    56    29    60    1
    57    30    31   ar
    58    30    61    1
    59    31    62    1
    60    32    33    1
    61    32    63    1
    62    32    64    1
    63    33    34   ar
    64    33    38   ar
    65    34    35   ar
    66    34    65    1
    67    35    36   ar
    68    35    66    1
    69    36    37   ar
    70    36    67    1
    71    37    38   ar
    72    37    68    1
    73    38    69    1
    74     9    70    1
    75     9    32    1
