@<TRIPOS>MOLECULE
mol_733_akc_jacdkac395
*****
 35 37 0 0 0
SMALL
GASTEIGER

@<TRIPOS>ATOM
      1 C           1.8594   -0.9115    0.4339 C.ar    1  UNL1        0.0022
      2 C           0.6724   -1.4801   -0.0506 C.ar    1  UNL1       -0.0524
      3 C          -0.4002   -0.6708   -0.3854 C.ar    1  UNL1       -0.0593
      4 C          -0.2907    0.7078   -0.2421 C.ar    1  UNL1       -0.0384
      5 C           0.8897    1.3108    0.2365 C.ar    1  UNL1        0.0572
      6 C           1.9884    0.4913    0.5912 C.ar    1  UNL1        0.0920
      7 N           3.1372    1.0302    1.0685 N.ar    1  UNL1       -0.2531
      8 C           4.1567    0.1996    1.3898 C.ar    1  UNL1        0.0283
      9 C           4.1092   -1.1741    1.2589 C.ar    1  UNL1       -0.0430
     10 C           2.9383   -1.7364    0.7718 C.ar    1  UNL1       -0.0511
     11 N           0.9925    2.7239    0.3936 N.pl3   1  UNL1       -0.3188
     12 C           0.0507    3.6801    0.1309 C.2     1  UNL1       -0.0025
     13 C           0.0757    5.0130    0.2338 C.2     1  UNL1       -0.0006
     14 C           1.2231    5.8418    0.6846 C.2     1  UNL1        0.1872
     15 O           2.3704    5.4212    0.7424 O.2     1  UNL1       -0.2872
     16 C           0.9073    7.2678    0.9885 C.ar    1  UNL1        0.0218
     17 C          -0.3001    7.6350    1.6037 C.ar    1  UNL1       -0.0496
     18 C          -0.6040    8.9840    1.8057 C.ar    1  UNL1       -0.0427
     19 C           0.3026    9.9646    1.4075 C.ar    1  UNL1        0.0410
     20 C           1.5218    9.6073    0.8305 C.ar    1  UNL1       -0.0427
     21 C           1.8287    8.2575    0.6271 C.ar    1  UNL1       -0.0496
     22 CL         -0.0910   11.6251    1.6231 Cl      1  UNL1       -0.0835
     23 H           0.5781   -2.5573   -0.1675 H       1  UNL1        0.0624
     24 H          -1.3234   -1.1077   -0.7584 H       1  UNL1        0.0618
     25 H          -1.1555    1.3008   -0.5199 H       1  UNL1        0.0637
     26 H           5.0489    0.6895    1.7710 H       1  UNL1        0.0830
     27 H           4.9564   -1.7935    1.5294 H       1  UNL1        0.0633
     28 H           2.8724   -2.8146    0.6586 H       1  UNL1        0.0625
     29 H           1.9204    3.0408    0.6920 H       1  UNL1        0.1517
     30 H          -0.8926    3.2736   -0.2165 H       1  UNL1        0.0782
     31 H          -0.8222    5.5528   -0.0485 H       1  UNL1        0.0668
     32 H          -1.0119    6.8836    1.9370 H       1  UNL1        0.0625
     33 H          -1.5473    9.2619    2.2696 H       1  UNL1        0.0632
     34 H           2.2322   10.3732    0.5299 H       1  UNL1        0.0632
     35 H           2.7767    7.9815    0.1686 H       1  UNL1        0.0625
@<TRIPOS>BOND
     1     1     2   ar
     2     1     6   ar
     3     1    10   ar
     4     2     3   ar
     5     3     4   ar
     6     4     5   ar
     7     5     6   ar
     8     6     7   ar
     9     7     8   ar
    10     8     9   ar
    11     9    10   ar
    12     5    11    1
    13    11    12    1
    14    12    13    2
    15    13    14    1
    16    14    15    2
    17    14    16    1
    18    16    17   ar
    19    16    21   ar
    20    17    18   ar
    21    18    19   ar
    22    19    20   ar
    23    20    21   ar
    24    19    22    1
    25     2    23    1
    26     3    24    1
    27     4    25    1
    28     8    26    1
    29     9    27    1
    30    10    28    1
    31    11    29    1
    32    12    30    1
    33    13    31    1
    34    17    32    1
    35    18    33    1
    36    20    34    1
    37    21    35    1
