@<TRIPOS>MOLECULE
mol_734_akc_acsomega2c06455
*****
 30 32 0 0 0
SMALL
GASTEIGER

@<TRIPOS>ATOM
      1 C          -1.2722    1.3882   -0.0108 C.ar    1  UNL1       -0.0490
      2 C          -2.4449    0.6363   -0.0571 C.ar    1  UNL1       -0.0610
      3 C          -2.3804   -0.7578   -0.0762 C.ar    1  UNL1       -0.0597
      4 C          -1.1411   -1.4067   -0.0706 C.ar    1  UNL1       -0.0355
      5 C           0.0481   -0.6739   -0.0450 C.ar    1  UNL1        0.0768
      6 C          -0.0368    0.7312    0.0043 C.ar    1  UNL1        0.0442
      7 C           1.2458    1.4727    0.0792 C.ar    1  UNL1        0.1588
      8 N           1.2727   -1.3863   -0.0748 N.ar    1  UNL1       -0.2291
      9 C           2.3750   -0.6915    0.0093 C.ar    1  UNL1        0.1403
     10 N           2.3634    0.6767    0.1032 N.ar    1  UNL1       -0.3228
     11 N           1.2576    2.7750    0.1189 N.2     1  UNL1       -0.1712
     12 N           2.5000    3.3347    0.1505 N.pl3   1  UNL1       -0.2806
     13 C           3.6754   -1.4204   -0.0146 C.ar    1  UNL1        0.0174
     14 C           3.7814   -2.6090   -0.7490 C.ar    1  UNL1       -0.0497
     15 C           4.7803   -0.9384    0.6972 C.ar    1  UNL1       -0.0497
     16 C           5.9825   -1.6521    0.6812 C.ar    1  UNL1       -0.0427
     17 C           6.0787   -2.8383   -0.0469 C.ar    1  UNL1        0.0410
     18 C           4.9862   -3.3167   -0.7675 C.ar    1  UNL1       -0.0427
     19 CL          7.5532   -3.7246   -0.0406 Cl      1  UNL1       -0.0835
     20 H          -1.3194    2.4730    0.0168 H       1  UNL1        0.0625
     21 H          -3.4100    1.1369   -0.0715 H       1  UNL1        0.0618
     22 H          -3.2957   -1.3442   -0.0976 H       1  UNL1        0.0618
     23 H          -1.0976   -2.4924   -0.0839 H       1  UNL1        0.0639
     24 H           3.2201    1.2012    0.1958 H       1  UNL1        0.1688
     25 H           2.9484    3.2341   -0.7681 H       1  UNL1        0.1642
     26 H           2.3911    4.3463    0.2630 H       1  UNL1        0.1642
     27 H           2.9274   -2.9867   -1.3079 H       1  UNL1        0.0625
     28 H           4.7151   -0.0365    1.2982 H       1  UNL1        0.0625
     29 H           6.8342   -1.2864    1.2489 H       1  UNL1        0.0632
     30 H           5.0600   -4.2399   -1.3361 H       1  UNL1        0.0632
@<TRIPOS>BOND
     1     1     2   ar
     2     1     6   ar
     3     2     3   ar
     4     3     4   ar
     5     4     5   ar
     6     7     6   ar
     7     5     6   ar
     8     5     8   ar
     9     7    10   ar
    10     8     9   ar
    11     9    10   ar
    12     7    11    2
    13    11    12    1
    14     9    13    1
    15    14    13   ar
    16    13    15   ar
    17    14    18   ar
    18    15    16   ar
    19    16    17   ar
    20    17    18   ar
    21    17    19    1
    22     1    20    1
    23     2    21    1
    24     3    22    1
    25     4    23    1
    26    10    24    1
    27    12    25    1
    28    12    26    1
    29    14    27    1
    30    15    28    1
    31    16    29    1
    32    18    30    1
