@<TRIPOS>MOLECULE
mol_735_akc_slct202203852
2-henicosyl-5,7-dihydroxy-4H-chromen-4-one
 82 83 0 0 0
SMALL
GASTEIGER

@<TRIPOS>ATOM
      1 C          -0.1551    5.0154    3.0602 C.ar    1  UNL1        0.0223
      2 C          -0.1988    3.8883    3.8762 C.ar    1  UNL1        0.1239
      3 C          -1.1369    2.8891    3.6629 C.ar    1  UNL1        0.0231
      4 C          -2.0322    3.0061    2.5973 C.ar    1  UNL1        0.1457
      5 O          -2.9197    1.9713    2.4479 O.2     1  UNL1       -0.4592
      6 C          -3.7480    1.9782    1.3311 C.ar    1  UNL1        0.1093
      7 C          -3.7901    2.9701    0.4457 C.ar    1  UNL1        0.0240
      8 C          -2.9453    4.1612    0.6206 C.ar    1  UNL1        0.1963
      9 C          -1.9956    4.1213    1.7533 C.ar    1  UNL1        0.1054
     10 C          -1.0563    5.1294    2.0004 C.ar    1  UNL1        0.1347
     11 O          -3.0660    5.0926   -0.1620 O.2     1  UNL1       -0.2869
     12 O          -1.0036    6.2290    1.1932 O.3     1  UNL1       -0.5058
     13 O           0.6764    3.7216    4.9077 O.3     1  UNL1       -0.5065
     14 C          -4.6058    0.7593    1.2144 C.3     1  UNL1        0.0057
     15 C          -3.7631   -0.5191    1.1500 C.3     1  UNL1       -0.0462
     16 C          -4.6310   -1.7626    1.0645 C.3     1  UNL1       -0.0527
     17 C          -5.3945   -1.8928   -0.2551 C.3     1  UNL1       -0.0530
     18 C          -6.3523   -3.0835   -0.2057 C.3     1  UNL1       -0.0531
     19 C          -7.3851   -2.9534    0.9211 C.3     1  UNL1       -0.0531
     20 C          -8.2107   -1.6664    0.8059 C.3     1  UNL1       -0.0531
     21 C          -9.0321   -1.6501   -0.4851 C.3     1  UNL1       -0.0531
     22 C         -10.0076   -2.8298   -0.5260 C.3     1  UNL1       -0.0531
     23 C         -10.9866   -2.7688    0.6508 C.3     1  UNL1       -0.0531
     24 C         -11.8346   -1.4961    0.5816 C.3     1  UNL1       -0.0531
     25 C         -12.6576   -1.4681   -0.7092 C.3     1  UNL1       -0.0531
     26 C         -13.6066   -2.6691   -0.7719 C.3     1  UNL1       -0.0531
     27 C         -14.5996   -2.6410    0.3938 C.3     1  UNL1       -0.0531
     28 C         -15.4542   -1.3723    0.3518 C.3     1  UNL1       -0.0531
     29 C         -16.2739   -1.3029   -0.9431 C.3     1  UNL1       -0.0531
     30 C         -17.2635   -2.4649   -1.0566 C.3     1  UNL1       -0.0531
     31 C         -18.2474   -2.5172    0.1134 C.3     1  UNL1       -0.0531
     32 C         -19.0587   -1.2246    0.1785 C.3     1  UNL1       -0.0533
     33 C         -19.9954   -1.1661    1.3706 C.3     1  UNL1       -0.0559
     34 C         -20.7924    0.1268    1.3152 C.3     1  UNL1       -0.0653
     35 H           0.5796    5.7928    3.2408 H       1  UNL1        0.0691
     36 H          -1.1633    2.0158    4.3103 H       1  UNL1        0.0691
     37 H          -4.4411    2.9642   -0.4255 H       1  UNL1        0.0689
     38 H          -0.3665    6.8761    1.5412 H       1  UNL1        0.2922
     39 H           1.3120    4.4550    4.9128 H       1  UNL1        0.2921
     40 H          -5.2855    0.7192    2.0747 H       1  UNL1        0.0343
     41 H          -5.2368    0.8439    0.3250 H       1  UNL1        0.0343
     42 H          -3.0669   -0.4891    0.3053 H       1  UNL1        0.0269
     43 H          -3.1615   -0.6048    2.0632 H       1  UNL1        0.0269
     44 H          -4.0101   -2.6556    1.1938 H       1  UNL1        0.0265
     45 H          -5.3148   -1.7320    1.9189 H       1  UNL1        0.0265
     46 H          -5.9539   -0.9827   -0.4898 H       1  UNL1        0.0265
     47 H          -4.6900   -2.0221   -1.0840 H       1  UNL1        0.0265
     48 H          -6.8559   -3.1766   -1.1762 H       1  UNL1        0.0265
     49 H          -5.7870   -4.0103   -0.0732 H       1  UNL1        0.0265
     50 H          -8.0287   -3.8392    0.9180 H       1  UNL1        0.0265
     51 H          -6.9061   -2.9877    1.9027 H       1  UNL1        0.0265
     52 H          -8.8546   -1.5706    1.6862 H       1  UNL1        0.0265
     53 H          -7.5788   -0.7743    0.8483 H       1  UNL1        0.0265
     54 H          -9.5597   -0.6941   -0.5690 H       1  UNL1        0.0265
     55 H          -8.3866   -1.6783   -1.3681 H       1  UNL1        0.0265
     56 H         -10.5299   -2.8369   -1.4872 H       1  UNL1        0.0265
     57 H          -9.4807   -3.7880   -0.5136 H       1  UNL1        0.0265
     58 H         -11.6081   -3.6690    0.6548 H       1  UNL1        0.0265
     59 H         -10.4697   -2.8117    1.6135 H       1  UNL1        0.0265
     60 H         -12.4723   -1.4329    1.4687 H       1  UNL1        0.0265
     61 H         -11.2170   -0.5950    0.6413 H       1  UNL1        0.0265
     62 H         -13.1976   -0.5194   -0.7780 H       1  UNL1        0.0265
     63 H         -12.0170   -1.4629   -1.5960 H       1  UNL1        0.0265
     64 H         -14.1192   -2.6794   -1.7377 H       1  UNL1        0.0265
     65 H         -13.0599   -3.6168   -0.7611 H       1  UNL1        0.0265
     66 H         -15.2187   -3.5416    0.3689 H       1  UNL1        0.0265
     67 H         -14.0830   -2.6989    1.3582 H       1  UNL1        0.0265
     68 H         -16.0971   -1.3355    1.2365 H       1  UNL1        0.0265
     69 H         -14.8364   -0.4729    0.4397 H       1  UNL1        0.0265
     70 H         -16.7827   -0.3357   -0.9937 H       1  UNL1        0.0265
     71 H         -15.6211   -1.2950   -1.8226 H       1  UNL1        0.0265
     72 H         -17.8151   -2.3701   -1.9988 H       1  UNL1        0.0265
     73 H         -16.7309   -3.4193   -1.1225 H       1  UNL1        0.0265
     74 H         -18.9138   -3.3759   -0.0095 H       1  UNL1        0.0265
     75 H         -17.7197   -2.6821    1.0616 H       1  UNL1        0.0265
     76 H         -18.3964   -0.3552    0.2496 H       1  UNL1        0.0265
     77 H         -19.6222   -1.1199   -0.7573 H       1  UNL1        0.0265
     78 H         -20.6710   -2.0247    1.3645 H       1  UNL1        0.0263
     79 H         -19.4174   -1.2012    2.3010 H       1  UNL1        0.0263
     80 H         -21.3716    0.1847    0.3873 H       1  UNL1        0.0230
     81 H         -21.4870    0.1863    2.1583 H       1  UNL1        0.0230
     82 H         -20.1305    0.9979    1.3543 H       1  UNL1        0.0230
@<TRIPOS>BOND
     1     1     2   ar
     2     2     3   ar
     3     3     4   ar
     4     4     5   ar
     5     5     6   ar
     6     6     7   ar
     7     7     8   ar
     8     8     9   ar
     9     4     9   ar
    10     9    10   ar
    11     1    10   ar
    12     8    11    2
    13    10    12    1
    14     2    13    1
    15    14    15    1
    16    15    16    1
    17    16    17    1
    18    17    18    1
    19    18    19    1
    20    19    20    1
    21    20    21    1
    22    21    22    1
    23    22    23    1
    24    23    24    1
    25    24    25    1
    26    25    26    1
    27    26    27    1
    28    27    28    1
    29    28    29    1
    30    29    30    1
    31    30    31    1
    32    31    32    1
    33    32    33    1
    34    33    34    1
    35     6    14    1
    36     1    35    1
    37     3    36    1
    38     7    37    1
    39    12    38    1
    40    13    39    1
    41    14    40    1
    42    14    41    1
    43    15    42    1
    44    15    43    1
    45    16    44    1
    46    16    45    1
    47    17    46    1
    48    17    47    1
    49    18    48    1
    50    18    49    1
    51    19    50    1
    52    19    51    1
    53    20    52    1
    54    20    53    1
    55    21    54    1
    56    21    55    1
    57    22    56    1
    58    22    57    1
    59    23    58    1
    60    23    59    1
    61    24    60    1
    62    24    61    1
    63    25    62    1
    64    25    63    1
    65    26    64    1
    66    26    65    1
    67    27    66    1
    68    27    67    1
    69    28    68    1
    70    28    69    1
    71    29    70    1
    72    29    71    1
    73    30    72    1
    74    30    73    1
    75    31    74    1
    76    31    75    1
    77    32    76    1
    78    32    77    1
    79    33    78    1
    80    33    79    1
    81    34    80    1
    82    34    81    1
    83    34    82    1
