@<TRIPOS>MOLECULE
mol_736_akc_jejmech2022114996
*****
 27 28 0 0 0
SMALL
GASTEIGER

@<TRIPOS>ATOM
      1 C          -1.8105   -0.0299   -0.2084 C.ar    1  UNL1       -0.0277
      2 C          -1.0774    1.1476   -0.0894 C.ar    1  UNL1        0.0419
      3 C           0.2825    1.1050    0.2048 C.ar    1  UNL1       -0.0399
      4 C           0.9144   -0.1255    0.3890 C.ar    1  UNL1       -0.0180
      5 C           0.1805   -1.3123    0.2773 C.ar    1  UNL1        0.1290
      6 C          -1.1912   -1.2799   -0.0300 C.ar    1  UNL1        0.0797
      7 CL         -1.8554    2.6661   -0.3059 Cl      1  UNL1       -0.0835
      8 O           0.8300   -2.5039    0.4760 O.3     1  UNL1       -0.5060
      9 C          -2.0617   -2.4931   -0.1863 C.2     1  UNL1        0.2518
     10 N          -1.4962   -3.7075    0.1513 N.am    1  UNL1       -0.2814
     11 O          -3.2143   -2.3284   -0.5745 O.2     1  UNL1       -0.2697
     12 C          -2.1068   -4.9775    0.1274 C.ar    1  UNL1        0.0338
     13 C          -3.9297   -6.5049   -0.3718 C.ar    1  UNL1       -0.0416
     14 C          -3.3742   -5.2211   -0.4093 C.ar    1  UNL1       -0.0391
     15 C          -1.3919   -6.0464    0.6832 C.ar    1  UNL1       -0.0391
     16 C          -1.9488   -7.3291    0.7307 C.ar    1  UNL1       -0.0416
     17 C          -3.2186   -7.5516    0.2059 C.ar    1  UNL1        0.0411
     18 CL         -3.9123   -9.1238    0.2749 Cl      1  UNL1       -0.0835
     19 H          -2.8731    0.0224   -0.4391 H       1  UNL1        0.0641
     20 H           0.8527    2.0264    0.2950 H       1  UNL1        0.0633
     21 H           1.9752   -0.1362    0.6232 H       1  UNL1        0.0655
     22 H           1.7807   -2.3290    0.5967 H       1  UNL1        0.2922
     23 H          -0.5393   -3.6663    0.4930 H       1  UNL1        0.1551
     24 H          -4.9178   -6.6711   -0.7925 H       1  UNL1        0.0633
     25 H          -3.9574   -4.4322   -0.8740 H       1  UNL1        0.0636
     26 H          -0.4025   -5.8917    1.1056 H       1  UNL1        0.0636
     27 H          -1.3909   -8.1441    1.1835 H       1  UNL1        0.0633
@<TRIPOS>BOND
     1     1     2   ar
     2     1     6   ar
     3     2     3   ar
     4     3     4   ar
     5     4     5   ar
     6     6     5   ar
     7     2     7    1
     8     5     8    1
     9     6     9    1
    10     9    10   am
    11     9    11    2
    12    10    12    1
    13    14    12   ar
    14    12    15   ar
    15    13    14   ar
    16    13    17   ar
    17    15    16   ar
    18    16    17   ar
    19    17    18    1
    20     1    19    1
    21     3    20    1
    22     4    21    1
    23     8    22    1
    24    10    23    1
    25    13    24    1
    26    14    25    1
    27    15    26    1
    28    16    27    1
