@<TRIPOS>MOLECULE
mol_737_akc_s00044_022_02994_9
*****
 27 28 0 0 0
SMALL
GASTEIGER

@<TRIPOS>ATOM
      1 C           1.6471   -0.2000   -1.1798 C.ar    1  UNL1       -0.0331
      2 C           0.2593   -0.2446   -1.0039 C.ar    1  UNL1       -0.0413
      3 C          -0.2911    0.0658    0.2374 C.ar    1  UNL1        0.0411
      4 C           0.5334    0.4156    1.3036 C.ar    1  UNL1       -0.0413
      5 C           1.9190    0.4541    1.1234 C.ar    1  UNL1       -0.0331
      6 C           2.4953    0.1582   -0.1242 C.ar    1  UNL1        0.0879
      7 N           3.8882    0.1573   -0.3530 N.2     1  UNL1       -0.1313
      8 N           4.4683    1.0305    0.3263 N.2     1  UNL1       -0.0592
      9 N           5.8251    1.0436    0.1777 N.ar    1  UNL1       -0.2060
     10 N           7.9401    1.6763    0.5451 N.ar    1  UNL1       -0.2388
     11 C           6.6783    1.8846    0.8727 C.ar    1  UNL1        0.1318
     12 C           6.6258    0.2670   -0.6283 C.ar    1  UNL1        0.0508
     13 C           7.9144    0.6735   -0.3837 C.ar    1  UNL1        0.0478
     14 CL         -1.9953    0.0108    0.4585 Cl      1  UNL1       -0.0835
     15 C           6.1909    2.8759    1.8756 C.3     1  UNL1        0.0045
     16 C           6.1418    2.2741    3.2713 C.3     1  UNL1       -0.0584
     17 H           2.0710   -0.4473   -2.1504 H       1  UNL1        0.0640
     18 H          -0.3816   -0.5239   -1.8360 H       1  UNL1        0.0633
     19 H           0.1098    0.6541    2.2755 H       1  UNL1        0.0633
     20 H           2.5516    0.7147    1.9684 H       1  UNL1        0.0640
     21 H           6.2174   -0.4866   -1.2837 H       1  UNL1        0.0847
     22 H           8.8263    0.2942   -0.8271 H       1  UNL1        0.0846
     23 H           6.8656    3.7406    1.8793 H       1  UNL1        0.0341
     24 H           5.2002    3.2529    1.6006 H       1  UNL1        0.0341
     25 H           7.1351    1.9435    3.5938 H       1  UNL1        0.0234
     26 H           5.7801    3.0149    3.9916 H       1  UNL1        0.0234
     27 H           5.4717    1.4083    3.3089 H       1  UNL1        0.0234
@<TRIPOS>BOND
     1     1     2   ar
     2     1     6   ar
     3     2     3   ar
     4     3     4   ar
     5     4     5   ar
     6     5     6   ar
     7     6     7    1
     8     7     8    2
     9     8     9    1
    10    11     9   ar
    11     9    12   ar
    12    10    11   ar
    13    10    13   ar
    14    12    13   ar
    15     3    14    1
    16    11    15    1
    17    15    16    1
    18     1    17    1
    19     2    18    1
    20     4    19    1
    21     5    20    1
    22    12    21    1
    23    13    22    1
    24    15    23    1
    25    15    24    1
    26    16    25    1
    27    16    26    1
    28    16    27    1
