@<TRIPOS>MOLECULE
mol_738_akc_jbmc2022117136
*****
 45 46 0 0 0
SMALL
GASTEIGER

@<TRIPOS>ATOM
      1 C          -6.8322   -1.4160    0.6291 C.ar    1  UNL1       -0.0549
      2 C          -6.0702   -0.7906   -0.3660 C.ar    1  UNL1       -0.0434
      3 C          -5.7814   -1.5040   -1.5420 C.ar    1  UNL1       -0.0131
      4 C          -6.2684   -2.8056   -1.7423 C.ar    1  UNL1        0.1615
      5 C          -7.0516   -3.3936   -0.7468 C.ar    1  UNL1        0.1585
      6 C          -7.3163   -2.7122    0.4401 C.ar    1  UNL1       -0.0163
      7 C          -5.6120    0.6407   -0.1834 C.3     1  UNL1       -0.0241
      8 C          -4.2346    0.7566    0.4791 C.3     1  UNL1       -0.0304
      9 C          -3.7484    2.1509    0.8028 C.2     1  UNL1       -0.0804
     10 C          -4.4742    3.2748    0.9259 C.2     1  UNL1       -0.0231
     11 C          -3.7998    4.5606    1.2924 C.2     1  UNL1        0.1561
     12 O          -2.5854    4.6913    1.1340 O.2     1  UNL1       -0.2927
     13 C          -4.6397    5.7224    1.7972 C.3     1  UNL1        0.0138
     14 C          -5.7580    5.3312    2.7595 C.3     1  UNL1       -0.0207
     15 C          -6.4407    6.5481    3.3430 C.ar    1  UNL1       -0.0469
     16 C          -7.5397    7.1244    2.6958 C.ar    1  UNL1       -0.0586
     17 C          -5.9579    7.1335    4.5203 C.ar    1  UNL1       -0.0586
     18 C          -6.5732    8.2730    5.0468 C.ar    1  UNL1       -0.0615
     19 C          -7.6694    8.8385    4.3993 C.ar    1  UNL1       -0.0617
     20 C          -8.1540    8.2659    3.2250 C.ar    1  UNL1       -0.0615
     21 O          -7.6575   -4.6091   -0.8855 O.3     1  UNL1       -0.5033
     22 O          -6.0108   -3.3370   -2.9777 O.3     1  UNL1       -0.4915
     23 C          -5.6222   -4.7072   -3.0197 C.3     1  UNL1        0.0790
     24 H          -7.0842   -0.8872    1.5457 H       1  UNL1        0.0621
     25 H          -5.1891   -1.0394   -2.3275 H       1  UNL1        0.0658
     26 H          -7.9426   -3.1727    1.1995 H       1  UNL1        0.0655
     27 H          -5.5992    1.1412   -1.1598 H       1  UNL1        0.0316
     28 H          -6.3689    1.1665    0.4121 H       1  UNL1        0.0316
     29 H          -4.2153    0.1767    1.4115 H       1  UNL1        0.0311
     30 H          -3.4911    0.2921   -0.1818 H       1  UNL1        0.0311
     31 H          -2.6695    2.2153    0.9605 H       1  UNL1        0.0573
     32 H          -5.5476    3.2941    0.8005 H       1  UNL1        0.0649
     33 H          -3.9504    6.4045    2.3143 H       1  UNL1        0.0348
     34 H          -5.0344    6.2628    0.9294 H       1  UNL1        0.0348
     35 H          -6.5125    4.7192    2.2531 H       1  UNL1        0.0317
     36 H          -5.3647    4.7059    3.5713 H       1  UNL1        0.0317
     37 H          -7.9288    6.6972    1.7770 H       1  UNL1        0.0620
     38 H          -5.1010    6.7102    5.0364 H       1  UNL1        0.0620
     39 H          -6.1914    8.7206    5.9600 H       1  UNL1        0.0618
     40 H          -8.1447    9.7262    4.8080 H       1  UNL1        0.0618
     41 H          -9.0063    8.7074    2.7169 H       1  UNL1        0.0618
     42 H          -7.8155   -4.7330   -1.8354 H       1  UNL1        0.2923
     43 H          -5.1164   -5.0418   -2.1087 H       1  UNL1        0.0660
     44 H          -6.4919   -5.3346   -3.2369 H       1  UNL1        0.0660
     45 H          -4.9297   -4.8293   -3.8589 H       1  UNL1        0.0660
@<TRIPOS>BOND
     1     1     2   ar
     2     1     6   ar
     3     2     3   ar
     4     3     4   ar
     5     4     5   ar
     6     5     6   ar
     7     2     7    1
     8     7     8    1
     9     8     9    1
    10     9    10    2
    11    10    11    1
    12    11    12    2
    13    11    13    1
    14    13    14    1
    15    14    15    1
    16    16    15   ar
    17    15    17   ar
    18    16    20   ar
    19    17    18   ar
    20    18    19   ar
    21    19    20   ar
    22     5    21    1
    23     4    22    1
    24    22    23    1
    25     1    24    1
    26     3    25    1
    27     6    26    1
    28     7    27    1
    29     7    28    1
    30     8    29    1
    31     8    30    1
    32     9    31    1
    33    10    32    1
    34    13    33    1
    35    13    34    1
    36    14    35    1
    37    14    36    1
    38    16    37    1
    39    17    38    1
    40    18    39    1
    41    19    40    1
    42    20    41    1
    43    21    42    1
    44    23    43    1
    45    23    44    1
    46    23    45    1
