@<TRIPOS>MOLECULE
mol_739_akc_s11030_022_10569_4
Dimethyl 4-(4-fluorophenyl)-2,6-dimethyl-1,4-dihydropyridine-3,5-dicarboxylate
 41 42 0 0 0
SMALL
GASTEIGER

@<TRIPOS>ATOM
      1 N          -0.0015    0.9043   -0.0699 N.pl3   1  UNL1       -0.3207
      2 C          -1.2338    0.2808    0.0275 C.2     1  UNL1        0.0157
      3 C          -1.2971   -1.0685    0.1265 C.2     1  UNL1        0.0651
      4 C          -0.0027   -1.9148    0.1265 C.3     1  UNL1        0.0506
      5 C           1.2878   -1.0667    0.1672 C.2     1  UNL1        0.0651
      6 C           1.2286    0.2801    0.0408 C.2     1  UNL1        0.0157
      7 C          -2.6138   -1.7612    0.2241 C.2     1  UNL1        0.3373
      8 O          -3.6027   -1.2885    0.7554 O.2     1  UNL1       -0.2452
      9 O          -2.5521   -2.9824   -0.3649 O.3     1  UNL1       -0.4646
     10 C           2.5976   -1.7271    0.4091 C.2     1  UNL1        0.3373
     11 O           3.5293   -1.2046    1.0011 O.2     1  UNL1       -0.2452
     12 O           2.6175   -2.9944   -0.0793 O.3     1  UNL1       -0.4646
     13 C          -2.3881    1.2576   -0.0133 C.3     1  UNL1       -0.0260
     14 C           2.3884    1.2474   -0.0174 C.3     1  UNL1       -0.0260
     15 C          -0.0124   -3.0124    1.2010 C.ar    1  UNL1       -0.0349
     16 C          -0.0066   -4.3673    0.8055 C.ar    1  UNL1       -0.0550
     17 C           0.0381   -5.3917    1.7477 C.ar    1  UNL1       -0.0262
     18 C           0.0698   -5.0674    3.0956 C.ar    1  UNL1        0.1234
     19 C           0.0555   -3.7408    3.5145 C.ar    1  UNL1       -0.0262
     20 C           0.0109   -2.7102    2.5720 C.ar    1  UNL1       -0.0550
     21 F           0.1221   -6.0480    4.0078 F       1  UNL1       -0.2055
     22 C           3.7831   -3.7454    0.2828 C.3     1  UNL1        0.0820
     23 C          -3.7377   -3.7838   -0.2815 C.3     1  UNL1        0.0820
     24 H          -0.0018    1.9202   -0.0965 H       1  UNL1        0.1516
     25 H           0.0180   -2.4119   -0.8558 H       1  UNL1        0.0451
     26 H          -2.3529    1.9033    0.8712 H       1  UNL1        0.0290
     27 H          -2.2951    1.8981   -0.8979 H       1  UNL1        0.0290
     28 H          -3.3798    0.8099   -0.0644 H       1  UNL1        0.0290
     29 H           2.2943    1.8756   -0.9113 H       1  UNL1        0.0290
     30 H           2.3690    1.9042    0.8584 H       1  UNL1        0.0290
     31 H           3.3732    0.7864   -0.0808 H       1  UNL1        0.0290
     32 H          -0.0198   -4.6285   -0.2534 H       1  UNL1        0.0621
     33 H           0.0534   -6.4305    1.4415 H       1  UNL1        0.0646
     34 H           0.0846   -3.5163    4.5775 H       1  UNL1        0.0646
     35 H           0.0098   -1.6766    2.9111 H       1  UNL1        0.0621
     36 H           4.5318   -3.6472   -0.5076 H       1  UNL1        0.0661
     37 H           4.2086   -3.4364    1.2443 H       1  UNL1        0.0661
     38 H           3.5004   -4.7982    0.3750 H       1  UNL1        0.0661
     39 H          -4.5454   -3.3320    0.3027 H       1  UNL1        0.0661
     40 H          -4.0953   -3.9693   -1.2973 H       1  UNL1        0.0661
     41 H          -3.4774   -4.7424    0.1776 H       1  UNL1        0.0661
@<TRIPOS>BOND
     1     1     2    1
     2     2     3    2
     3     3     4    1
     4     4     5    1
     5     5     6    2
     6     1     6    1
     7     7     8    2
     8     7     9    1
     9     3     7    1
    10    10    11    2
    11    10    12    1
    12     5    10    1
    13     2    13    1
    14     6    14    1
    15    15    16   ar
    16    16    17   ar
    17    17    18   ar
    18    18    19   ar
    19    19    20   ar
    20    15    20   ar
    21    18    21    1
    22     4    15    1
    23    12    22    1
    24     9    23    1
    25     1    24    1
    26     4    25    1
    27    13    26    1
    28    13    27    1
    29    13    28    1
    30    14    29    1
    31    14    30    1
    32    14    31    1
    33    16    32    1
    34    17    33    1
    35    19    34    1
    36    20    35    1
    37    22    36    1
    38    22    37    1
    39    22    38    1
    40    23    39    1
    41    23    40    1
    42    23    41    1
