@<TRIPOS>MOLECULE
mol_73_akc_acsmedchemlett8b00053
>72.sdf
 57 61 0 0 0
SMALL
GASTEIGER

@<TRIPOS>ATOM
      1 F           0.1416   -0.6153    1.1558 F       1  UNL1       -0.2055
      2 C           1.4622   -0.3919    1.1661 C.ar    1  UNL1        0.1240
      3 C           2.3284   -1.4413    0.8611 C.ar    1  UNL1       -0.0176
      4 C           3.7361   -1.2528    0.8947 C.ar    1  UNL1       -0.0004
      5 C           4.1942    0.0358    1.2063 C.ar    1  UNL1        0.0201
      6 S           5.9092    0.1217    1.1898 S.2     1  UNL1       -0.0960
      7 C           6.0587   -1.5291    0.8123 C.ar    1  UNL1       -0.0155
      8 C           4.8430   -2.1707    0.6587 C.ar    1  UNL1       -0.0031
      9 C           4.8022   -3.6096    0.3558 C.ar    1  UNL1       -0.0168
     10 C           3.8437   -4.4419    0.9452 C.ar    1  UNL1       -0.0536
     11 C           3.8375   -5.8214    0.7078 C.ar    1  UNL1       -0.0530
     12 C           4.8237   -6.4095   -0.0930 C.ar    1  UNL1       -0.0029
     13 C           4.8427   -7.8976   -0.2985 C.3     1  UNL1       -0.0077
     14 N           4.0296   -8.2760   -1.4895 N.4     1  UNL1        0.2303
     15 C           4.0219   -9.7386   -1.7986 C.3     1  UNL1       -0.0319
     16 C           3.2079  -10.0286   -3.0577 C.3     1  UNL1        0.0029
     17 C           3.8280   -9.3883   -4.2949 C.3     1  UNL1        0.0139
     18 N           3.0042   -9.6123   -5.4720 N.pl3   1  UNL1       -0.3431
     19 C           3.5305   -9.1008   -6.6965 C.ar    1  UNL1        0.0378
     20 C           4.3127   -7.9368   -6.7189 C.ar    1  UNL1       -0.0221
     21 C           4.8545   -7.5129   -7.9130 C.ar    1  UNL1        0.0300
     22 N           4.6627   -8.1420   -9.0810 N.ar    1  UNL1       -0.2548
     23 C           3.8300   -9.1921   -9.1045 C.ar    1  UNL1        0.0741
     24 C           3.1911   -9.6953   -7.9429 C.ar    1  UNL1        0.0213
     25 C           2.2623  -10.7566   -8.1019 C.ar    1  UNL1       -0.0494
     26 C           2.0183  -11.3228   -9.3531 C.ar    1  UNL1       -0.0426
     27 C           2.7043  -10.8462  -10.4599 C.ar    1  UNL1        0.0430
     28 CL          2.4352  -11.5545  -12.0035 Cl      1  UNL1       -0.0835
     29 C           3.5986   -9.7891  -10.3299 C.ar    1  UNL1       -0.0173
     30 C           5.7713   -5.5825   -0.7086 C.ar    1  UNL1       -0.0530
     31 C           5.7543   -4.1987   -0.4912 C.ar    1  UNL1       -0.0536
     32 C           3.3116    1.1005    1.4922 C.ar    1  UNL1       -0.0447
     33 C           1.9379    0.8660    1.4781 C.ar    1  UNL1       -0.0254
     34 H           1.8916   -2.3996    0.6033 H       1  UNL1        0.0653
     35 H           7.0535   -1.9454    0.7311 H       1  UNL1        0.0700
     36 H           3.1048   -4.0360    1.6331 H       1  UNL1        0.0624
     37 H           3.0716   -6.4229    1.1948 H       1  UNL1        0.0622
     38 H           5.8659   -8.2527   -0.4711 H       1  UNL1        0.0866
     39 H           4.4304   -8.4254    0.5662 H       1  UNL1        0.0866
     40 H           3.0680   -7.9378   -1.3448 H       1  UNL1        0.2017
     41 H           4.3965   -7.7200   -2.2704 H       1  UNL1        0.2017
     42 H           5.0629  -10.0572   -1.9160 H       1  UNL1        0.0814
     43 H           3.5823  -10.2443   -0.9328 H       1  UNL1        0.0814
     44 H           3.1564  -11.1167   -3.2016 H       1  UNL1        0.0332
     45 H           2.1756   -9.6838   -2.9259 H       1  UNL1        0.0332
     46 H           3.8983   -8.3117   -4.1144 H       1  UNL1        0.0463
     47 H           4.8388   -9.7849   -4.4491 H       1  UNL1        0.0463
     48 H           2.7770  -10.5986   -5.5967 H       1  UNL1        0.1461
     49 H           4.5175   -7.3462   -5.8390 H       1  UNL1        0.0651
     50 H           5.4824   -6.6249   -7.9620 H       1  UNL1        0.0830
     51 H           1.6920  -11.1339   -7.2581 H       1  UNL1        0.0625
     52 H           1.2943  -12.1273   -9.4565 H       1  UNL1        0.0632
     53 H           4.1220   -9.4096  -11.2045 H       1  UNL1        0.0653
     54 H           6.5576   -5.9919   -1.3423 H       1  UNL1        0.0622
     55 H           6.5127   -3.5859   -0.9779 H       1  UNL1        0.0624
     56 H           3.6968    2.0896    1.7281 H       1  UNL1        0.0630
     57 H           1.2401    1.6661    1.7066 H       1  UNL1        0.0646
@<TRIPOS>UNITY_ATOM_ATTR
14 1
charge 1
@<TRIPOS>BOND
     1     2     1    1
     2     3     2   ar
     3     3    34    1
     4     4     3   ar
     5     5     4   ar
     6     6     5   ar
     7     7     6   ar
     8     7    35    1
     9     8     7   ar
    10     8     4   ar
    11     9     8    1
    12    10     9   ar
    13    10    36    1
    14    11    10   ar
    15    11    37    1
    16    12    11   ar
    17    13    12    1
    18    13    38    1
    19    13    39    1
    20    14    13    1
    21    14    40    1
    22    14    41    1
    23    15    14    1
    24    15    42    1
    25    15    43    1
    26    16    15    1
    27    16    44    1
    28    16    45    1
    29    17    16    1
    30    17    46    1
    31    17    47    1
    32    18    17    1
    33    18    48    1
    34    19    18    1
    35    20    19   ar
    36    20    49    1
    37    21    20   ar
    38    21    50    1
    39    22    21   ar
    40    23    22   ar
    41    24    23   ar
    42    24    19   ar
    43    25    24   ar
    44    25    51    1
    45    26    25   ar
    46    26    52    1
    47    27    26   ar
    48    28    27    1
    49    29    27   ar
    50    29    23   ar
    51    29    53    1
    52    30    12   ar
    53    30    54    1
    54    31    30   ar
    55    31     9   ar
    56    31    55    1
    57    32     5   ar
    58    32    56    1
    59    33    32   ar
    60    33     2   ar
    61    33    57    1
