@<TRIPOS>MOLECULE
mol_740_akc_jejmech2022115049
Ethyl 4-[2-(3,4-dichlorobenzamido)thiazolo [5,4-d]pyrimidin-5-yl]piperazine-1- carboxylate
 49 52 0 0 0
SMALL
GASTEIGER

@<TRIPOS>ATOM
      1 C          -0.6467    0.1852   -1.9961 C.3     1  UNL1        0.0337
      2 C          -1.0206    0.9642   -0.7188 C.3     1  UNL1        0.0308
      3 N          -1.3325    0.0373    0.3734 N.pl3   1  UNL1       -0.2966
      4 C          -0.3367   -0.9918    0.6626 C.3     1  UNL1        0.0308
      5 C          -0.0102   -1.7733   -0.6235 C.3     1  UNL1        0.0337
      6 N           0.3353   -0.8697   -1.7227 N.am    1  UNL1       -0.2644
      7 C           1.4500   -1.1209   -2.4928 C.2     1  UNL1        0.4029
      8 O           2.1969   -2.0726   -2.3163 O.2     1  UNL1       -0.2263
      9 O           1.6424   -0.1781   -3.4563 O.3     1  UNL1       -0.4505
     10 N          -3.3180    1.1505    0.7972 N.ar    1  UNL1       -0.2054
     11 C          -2.4617    0.1844    1.1356 C.ar    1  UNL1        0.2190
     12 N          -2.6797   -0.6837    2.1474 N.ar    1  UNL1       -0.2206
     13 C          -3.8452   -0.6479    2.8462 C.ar    1  UNL1        0.0592
     14 S          -5.7383    2.2018    1.1445 S.2     1  UNL1       -0.0322
     15 C          -6.7234    1.3452    2.2430 C.ar    1  UNL1        0.1672
     16 N          -6.1235    0.4256    2.9699 N.ar    1  UNL1       -0.2214
     17 C          -4.8298    0.2640    2.4929 C.ar    1  UNL1        0.1168
     18 C          -4.4687    1.1304    1.4782 C.ar    1  UNL1        0.1346
     19 C         -10.2994    2.3219    1.7447 C.ar    1  UNL1        0.0385
     20 C         -10.8099    2.3161    3.0465 C.ar    1  UNL1       -0.0298
     21 C         -12.1948    2.2859    3.2505 C.ar    1  UNL1        0.0600
     22 C         -13.0710    2.2795    2.1572 C.ar    1  UNL1        0.0593
     23 C         -12.5594    2.3263    0.8584 C.ar    1  UNL1       -0.0413
     24 C         -11.1788    2.3507    0.6528 C.ar    1  UNL1       -0.0482
     25 C          -8.8368    2.3065    1.4680 C.2     1  UNL1        0.2497
     26 N          -8.0703    1.5981    2.3708 N.am    1  UNL1       -0.2606
     27 O          -8.4584    2.8574    0.4419 O.2     1  UNL1       -0.2698
     28 CL        -12.7562    2.2467    4.8844 Cl      1  UNL1       -0.0820
     29 CL        -14.7859    2.2071    2.3434 Cl      1  UNL1       -0.0820
     30 C           2.7963   -0.3666   -4.2897 C.3     1  UNL1        0.0913
     31 C           4.0525    0.1340   -3.5983 C.3     1  UNL1       -0.0305
     32 H          -1.5365   -0.3141   -2.3989 H       1  UNL1        0.0481
     33 H          -0.2896    0.8812   -2.7605 H       1  UNL1        0.0481
     34 H          -1.8416    1.6454   -0.9679 H       1  UNL1        0.0480
     35 H          -0.1714    1.5867   -0.4114 H       1  UNL1        0.0480
     36 H           0.5720   -0.5001    1.0309 H       1  UNL1        0.0480
     37 H          -0.6507   -1.7057    1.4313 H       1  UNL1        0.0480
     38 H          -0.8858   -2.3491   -0.9467 H       1  UNL1        0.0481
     39 H           0.7995   -2.4827   -0.4270 H       1  UNL1        0.0481
     40 H          -3.9679   -1.3819    3.6318 H       1  UNL1        0.0853
     41 H         -10.1455    2.3560    3.9056 H       1  UNL1        0.0640
     42 H         -13.2282    2.3378    0.0001 H       1  UNL1        0.0633
     43 H         -10.7897    2.3831   -0.3650 H       1  UNL1        0.0625
     44 H          -8.5115    1.0236    3.0743 H       1  UNL1        0.1571
     45 H           2.8939   -1.4154   -4.5934 H       1  UNL1        0.0695
     46 H           2.6269    0.2160   -5.2009 H       1  UNL1        0.0695
     47 H           4.2722   -0.4530   -2.7009 H       1  UNL1        0.0262
     48 H           4.9139    0.0710   -4.2692 H       1  UNL1        0.0262
     49 H           3.9286    1.1728   -3.2761 H       1  UNL1        0.0262
@<TRIPOS>BOND
     1     1     2    1
     2     2     3    1
     3     3     4    1
     4     4     5    1
     5     5     6    1
     6     1     6    1
     7     7     8    2
     8     7     9    1
     9     6     7   am
    10    18    10   ar
    11    10    11   ar
    12    11    12   ar
    13    12    13   ar
    14    17    13   ar
    15    14    15   ar
    16    15    16   ar
    17    16    17   ar
    18    17    18   ar
    19    14    18   ar
    20    19    20   ar
    21    20    21   ar
    22    21    22   ar
    23    22    23   ar
    24    23    24   ar
    25    19    24   ar
    26    25    26   am
    27    25    27    2
    28    19    25    1
    29    21    28    1
    30    22    29    1
    31    15    26    1
    32     3    11    1
    33    30    31    1
    34     9    30    1
    35     1    32    1
    36     1    33    1
    37     2    34    1
    38     2    35    1
    39     4    36    1
    40     4    37    1
    41     5    38    1
    42     5    39    1
    43    13    40    1
    44    20    41    1
    45    23    42    1
    46    24    43    1
    47    26    44    1
    48    30    45    1
    49    30    46    1
    50    31    47    1
    51    31    48    1
    52    31    49    1
