@<TRIPOS>MOLECULE
mol_741_akc_jejmech2022115049
4-Chloro-3-nitro-N-[5-(dimethylamino)thiazolo [5,4-d]pyrimidin-2-yl]benzamide
 36 38 0 0 0
SMALL
GASTEIGER

@<TRIPOS>ATOM
      1 C           4.5985   -1.1642    0.1946 C.ar    1  UNL1        0.0436
      2 C           5.9759   -1.3070    0.0069 C.ar    1  UNL1        0.0292
      3 C           6.4983   -2.5846   -0.2681 C.ar    1  UNL1        0.2920
      4 C           5.6931   -3.7231   -0.3340 C.ar    1  UNL1        0.1178
      5 C           4.3200   -3.5730   -0.1386 C.ar    1  UNL1       -0.0361
      6 C           3.7790   -2.3064    0.1195 C.ar    1  UNL1       -0.0478
      7 C           3.9443    0.1444    0.5107 C.2     1  UNL1        0.2499
      8 O           2.8673    0.1075    1.0935 O.2     1  UNL1       -0.2698
      9 N           4.5863    1.2770    0.0511 N.am    1  UNL1       -0.2606
     10 N           3.3206    6.0198   -0.8284 N.ar    1  UNL1       -0.2054
     11 C           2.2646    6.6914   -0.3450 C.ar    1  UNL1        0.2184
     12 N           1.4827    6.2358    0.6596 N.ar    1  UNL1       -0.2206
     13 C           1.6901    5.0027    1.1851 C.ar    1  UNL1        0.0592
     14 S           4.7190    3.7281   -0.7874 S.2     1  UNL1       -0.0322
     15 C           4.0280    2.5224    0.2109 C.ar    1  UNL1        0.1672
     16 N           3.0401    2.8960    0.9849 N.ar    1  UNL1       -0.2214
     17 C           2.7060    4.2046    0.6821 C.ar    1  UNL1        0.1168
     18 C           3.4836    4.8004   -0.2949 C.ar    1  UNL1        0.1346
     19 N           1.9123    7.8873   -0.9348 N.pl3   1  UNL1       -0.3057
     20 C           2.6872    8.4428   -2.0207 C.3     1  UNL1        0.0030
     21 C           0.9306    8.7227   -0.2728 C.3     1  UNL1        0.0030
     22 N           7.9224   -2.6880   -0.4988 N.pl3   1  UNL1        0.0811
     23 O           8.6609   -2.3637    0.4410 O.2     1  UNL1        0.0415
     24 O           8.2882   -3.0062   -1.6345 O.co2   1  UNL1       -0.5760
     25 CL          6.3013   -5.3138   -0.5982 Cl      1  UNL1       -0.0765
     26 H           6.6508   -0.4598    0.0981 H       1  UNL1        0.0693
     27 H           3.6575   -4.4360   -0.1760 H       1  UNL1        0.0634
     28 H           2.7027   -2.2150    0.2726 H       1  UNL1        0.0626
     29 H           5.3636    1.2238   -0.5879 H       1  UNL1        0.1571
     30 H           1.0117    4.6761    1.9630 H       1  UNL1        0.0853
     31 H           2.0095    8.8346   -2.7909 H       1  UNL1        0.0428
     32 H           3.3077    9.2705   -1.6661 H       1  UNL1        0.0428
     33 H           3.3352    7.7178   -2.5240 H       1  UNL1        0.0428
     34 H          -0.0542    8.2437   -0.2670 H       1  UNL1        0.0428
     35 H           1.2275    8.9487    0.7581 H       1  UNL1        0.0428
     36 H           0.8174    9.6816   -0.7922 H       1  UNL1        0.0428
@<TRIPOS>UNITY_ATOM_ATTR
22 1
charge 1
24 1
charge -1
@<TRIPOS>BOND
     1     1     2   ar
     2     2     3   ar
     3     3     4   ar
     4     4     5   ar
     5     5     6   ar
     6     1     6   ar
     7     7     8    2
     8     7     9   am
     9     1     7    1
    10    18    10   ar
    11    10    11   ar
    12    11    12   ar
    13    12    13   ar
    14    17    13   ar
    15    14    15   ar
    16    15    16   ar
    17    16    17   ar
    18    17    18   ar
    19    14    18   ar
    20    19    20    1
    21    19    21    1
    22    11    19    1
    23     9    15    1
    24    22    23    2
    25    22    24    1
    26     3    22    1
    27     4    25    1
    28     2    26    1
    29     5    27    1
    30     6    28    1
    31     9    29    1
    32    13    30    1
    33    20    31    1
    34    20    32    1
    35    20    33    1
    36    21    34    1
    37    21    35    1
    38    21    36    1
