@<TRIPOS>MOLECULE
mol_742_akc_fcimb2022974910
*****
 43 44 0 0 0
SMALL
GASTEIGER

@<TRIPOS>ATOM
      1 C          -2.0283   -0.1661    1.7420 C.ar    1  UNL1        0.1315
      2 C          -1.2947    0.6926    2.5652 C.ar    1  UNL1       -0.0163
      3 C           0.0835    0.5238    2.6999 C.ar    1  UNL1       -0.0435
      4 C           0.7152   -0.5092    1.9913 C.ar    1  UNL1       -0.0161
      5 C          -0.0069   -1.3659    1.1396 C.ar    1  UNL1        0.1347
      6 C          -1.4007   -1.2088    1.0288 C.ar    1  UNL1        0.1052
      7 O          -3.3856    0.0031    1.6724 O.3     1  UNL1       -0.5059
      8 C           0.8880    1.4088    3.6050 C.3     1  UNL1       -0.0395
      9 O           0.5794   -2.3781    0.4168 O.3     1  UNL1       -0.4943
     10 C           2.0030   -2.3934    0.3623 C.3     1  UNL1        0.0788
     11 C          -2.2354   -2.0546    0.1227 C.2     1  UNL1        0.2045
     12 O          -2.9523   -1.4394   -0.6677 O.2     1  UNL1       -0.2863
     13 C          -2.2213   -3.5653    0.1015 C.ar    1  UNL1        0.0782
     14 C          -1.7694   -4.3640    1.1729 C.ar    1  UNL1        0.0767
     15 C          -2.7070   -4.2515   -1.0530 C.ar    1  UNL1        0.1352
     16 C          -2.6556   -5.6542   -1.1370 C.ar    1  UNL1        0.0223
     17 C          -2.1532   -6.3978   -0.0834 C.ar    1  UNL1        0.1212
     18 C          -1.7201   -5.7678    1.0695 C.ar    1  UNL1       -0.0053
     19 C          -1.4219   -3.8296    2.4986 C.2     1  UNL1        0.3399
     20 O          -2.1525   -3.1159    3.1616 O.2     1  UNL1       -0.2449
     21 O          -0.2065   -4.3036    2.8646 O.3     1  UNL1       -0.4644
     22 O          -3.1527   -3.5332   -2.1392 O.3     1  UNL1       -0.4943
     23 C          -4.2696   -4.0795   -2.8409 C.3     1  UNL1        0.0788
     24 O          -2.0795   -7.7560   -0.1378 O.3     1  UNL1       -0.5066
     25 C           0.2664   -3.8934    4.1496 C.3     1  UNL1        0.0820
     26 H          -1.7945    1.4856    3.1135 H       1  UNL1        0.0657
     27 H           1.7850   -0.6233    2.1315 H       1  UNL1        0.0657
     28 H          -3.6357    0.8336    2.1043 H       1  UNL1        0.2922
     29 H           1.2925    0.8269    4.4388 H       1  UNL1        0.0278
     30 H           1.7144    1.8657    3.0507 H       1  UNL1        0.0278
     31 H           0.2799    2.2198    4.0219 H       1  UNL1        0.0278
     32 H           2.3826   -1.4837   -0.1150 H       1  UNL1        0.0660
     33 H           2.4454   -2.5334    1.3543 H       1  UNL1        0.0660
     34 H           2.3076   -3.2479   -0.2490 H       1  UNL1        0.0660
     35 H          -2.9812   -6.1665   -2.0349 H       1  UNL1        0.0691
     36 H          -1.3597   -6.3755    1.8955 H       1  UNL1        0.0662
     37 H          -3.9574   -4.9074   -3.4870 H       1  UNL1        0.0660
     38 H          -5.0656   -4.4024   -2.1582 H       1  UNL1        0.0660
     39 H          -4.6787   -3.3029   -3.4918 H       1  UNL1        0.0660
     40 H          -2.4085   -8.0613   -0.9992 H       1  UNL1        0.2921
     41 H           0.9458   -3.0486    4.0131 H       1  UNL1        0.0661
     42 H          -0.5387   -3.6246    4.8376 H       1  UNL1        0.0661
     43 H           0.8267   -4.7242    4.5872 H       1  UNL1        0.0661
@<TRIPOS>BOND
     1     1     2   ar
     2     2     3   ar
     3     3     4   ar
     4     4     5   ar
     5     5     6   ar
     6     1     6   ar
     7     1     7    1
     8     3     8    1
     9     5     9    1
    10     9    10    1
    11     6    11    1
    12    11    12    2
    13    11    13    1
    14    14    13   ar
    15    13    15   ar
    16    15    16   ar
    17    16    17   ar
    18    17    18   ar
    19    14    18   ar
    20    14    19    1
    21    19    20    2
    22    19    21    1
    23    15    22    1
    24    22    23    1
    25    17    24    1
    26    21    25    1
    27     2    26    1
    28     4    27    1
    29     7    28    1
    30     8    29    1
    31     8    30    1
    32     8    31    1
    33    10    32    1
    34    10    33    1
    35    10    34    1
    36    16    35    1
    37    18    36    1
    38    23    37    1
    39    23    38    1
    40    23    39    1
    41    24    40    1
    42    25    41    1
    43    25    42    1
    44    25    43    1
