@<TRIPOS>MOLECULE
mol_744_akc_m1573
6-chloro-3-nitro-2-[(phenylsulfonyl)methyl]imidazo[1,2-b]pyridazine
 32 34 0 0 0
SMALL
GASTEIGER

@<TRIPOS>ATOM
      1 N          -0.9086   -1.3224   -0.5845 N.ar    1  UNL1       -0.1481
      2 C          -0.8795    1.1744    0.8124 C.ar    1  UNL1       -0.0143
      3 C          -2.0429    0.5872    0.5098 C.ar    1  UNL1       -0.0196
      4 C          -1.9892   -0.7135   -0.2085 C.ar    1  UNL1        0.1502
      5 N           0.2377   -0.6756   -0.2238 N.ar    1  UNL1       -0.1504
      6 C           0.3269    0.5374    0.4520 C.ar    1  UNL1        0.1613
      7 N           1.5787    0.9117    0.6303 N.ar    1  UNL1       -0.2224
      8 C           2.3536   -0.0909    0.0779 C.ar    1  UNL1        0.1623
      9 C           1.5266   -1.0430   -0.4751 C.ar    1  UNL1        0.3932
     10 C           3.8362    0.0135    0.1080 C.3     1  UNL1        0.1211
     11 S           4.5413   -0.7752    1.5519 S.O2    1  UNL1        0.0027
     12 O           4.0703   -0.1155    2.7578 O.2     1  UNL1       -0.1690
     13 O           4.4097   -2.2123    1.4009 O.2     1  UNL1       -0.1690
     14 C           6.2701   -0.3810    1.3899 C.ar    1  UNL1        0.0886
     15 C           6.7802    0.7569    2.0222 C.ar    1  UNL1       -0.0369
     16 C           8.1240    1.0897    1.8524 C.ar    1  UNL1       -0.0600
     17 C           8.9491    0.2835    1.0661 C.ar    1  UNL1       -0.0616
     18 C           8.4403   -0.8690    0.4642 C.ar    1  UNL1       -0.0600
     19 C           7.0981   -1.2113    0.6299 C.ar    1  UNL1       -0.0369
     20 N           1.8373   -2.1700   -1.2571 N.pl3   1  UNL1        0.1026
     21 O           1.3603   -3.2547   -0.9184 O.2     1  UNL1        0.0432
     22 O           2.6057   -1.9652   -2.2059 O.co2   1  UNL1       -0.5746
     23 CL         -3.4702   -1.5069   -0.6010 Cl      1  UNL1       -0.0602
     24 H          -0.8357    2.1286    1.3255 H       1  UNL1        0.0655
     25 H          -3.0051    1.0183    0.7512 H       1  UNL1        0.0649
     26 H           4.2859   -0.4585   -0.7701 H       1  UNL1        0.0572
     27 H           4.1370    1.0653    0.1311 H       1  UNL1        0.0572
     28 H           6.1463    1.3858    2.6442 H       1  UNL1        0.0636
     29 H           8.5309    1.9756    2.3346 H       1  UNL1        0.0618
     30 H           9.9953    0.5488    0.9307 H       1  UNL1        0.0618
     31 H           9.0935   -1.5023   -0.1321 H       1  UNL1        0.0618
     32 H           6.7133   -2.1180    0.1680 H       1  UNL1        0.0636
@<TRIPOS>UNITY_ATOM_ATTR
20 1
charge 1
22 1
charge -1
@<TRIPOS>BOND
     1     1     5   ar
     2     6     2   ar
     3     2     3   ar
     4     3     4   ar
     5     1     4   ar
     6     5     6   ar
     7     6     7   ar
     8     7     8   ar
     9     8     9   ar
    10     5     9   ar
    11    11    12    2
    12    11    13    2
    13    14    15   ar
    14    15    16   ar
    15    16    17   ar
    16    17    18   ar
    17    18    19   ar
    18    14    19   ar
    19    11    14    1
    20    10    11    1
    21     8    10    1
    22    20    21    2
    23    20    22    1
    24     9    20    1
    25     4    23    1
    26     2    24    1
    27     3    25    1
    28    10    26    1
    29    10    27    1
    30    15    28    1
    31    16    29    1
    32    17    30    1
    33    18    31    1
    34    19    32    1
