@<TRIPOS>MOLECULE
mol_746_akc_jejmech2023115223
*****
 28 29 0 0 0
SMALL
GASTEIGER

@<TRIPOS>ATOM
      1 C           1.8299    1.5346    0.3562 C.ar    1  UNL1        0.0830
      2 C           0.6066    0.9235   -0.1324 C.ar    1  UNL1       -0.0180
      3 C           0.8196   -0.4301   -0.3736 C.ar    1  UNL1       -0.0040
      4 S           2.4569   -0.8807   -0.1312 S.2     1  UNL1       -0.0774
      5 C           2.9039    0.6727    0.3998 C.ar    1  UNL1        0.0810
      6 C          -0.1469   -1.5112   -0.7663 C.3     1  UNL1       -0.0211
      7 C          -1.0709   -1.9136    0.3836 C.3     1  UNL1       -0.0486
      8 C          -1.8076   -0.7784    1.0973 C.3     1  UNL1       -0.0527
      9 C          -0.6776    1.7242   -0.2563 C.3     1  UNL1       -0.0256
     10 C          -1.9271    1.0324   -0.7916 C.3     1  UNL1       -0.0490
     11 C          -2.6576    0.1162    0.1974 C.3     1  UNL1       -0.0528
     12 C           1.9326    2.9063    0.7775 C.1     1  UNL1        0.1018
     13 N           2.0010    4.0115    1.1300 N.1     1  UNL1       -0.1908
     14 N           4.1696    0.9127    0.7991 N.pl3   1  UNL1       -0.3516
     15 H          -0.7210   -1.2218   -1.6500 H       1  UNL1        0.0318
     16 H           0.3940   -2.4126   -1.0893 H       1  UNL1        0.0318
     17 H          -0.4824   -2.4538    1.1372 H       1  UNL1        0.0269
     18 H          -1.8081   -2.6312    0.0029 H       1  UNL1        0.0269
     19 H          -1.1068   -0.1756    1.6859 H       1  UNL1        0.0265
     20 H          -2.4726   -1.2352    1.8419 H       1  UNL1        0.0265
     21 H          -0.4606    2.5630   -0.9326 H       1  UNL1        0.0314
     22 H          -0.9110    2.1686    0.7201 H       1  UNL1        0.0314
     23 H          -1.7160    0.5163   -1.7318 H       1  UNL1        0.0268
     24 H          -2.6440    1.8163   -1.0745 H       1  UNL1        0.0268
     25 H          -3.3731   -0.5018   -0.3590 H       1  UNL1        0.0265
     26 H          -3.2620    0.7554    0.8542 H       1  UNL1        0.0265
     27 H           4.8787    0.1885    0.7385 H       1  UNL1        0.1428
     28 H           4.5030    1.8249    1.0971 H       1  UNL1        0.1428
@<TRIPOS>BOND
     1     1     2   ar
     2     1     5   ar
     3     2     3   ar
     4     3     4   ar
     5     4     5   ar
     6     3     6    1
     7     6     7    1
     8     7     8    1
     9     9    10    1
    10    10    11    1
    11    11     8    1
    12     9     2    1
    13     1    12    1
    14    12    13    3
    15     5    14    1
    16     6    15    1
    17     6    16    1
    18     7    17    1
    19     7    18    1
    20     8    19    1
    21     8    20    1
    22     9    21    1
    23     9    22    1
    24    10    23    1
    25    10    24    1
    26    11    25    1
    27    11    26    1
    28    14    27    1
    29    14    28    1
