@<TRIPOS>MOLECULE
mol_747_akc_jejmech2023115223
*****
 27 29 0 0 0
SMALL
GASTEIGER

@<TRIPOS>ATOM
      1 C          -1.1732   -0.2019   -0.1984 C.ar    1  UNL1        0.0843
      2 C          -0.9720   -1.5120    0.3355 C.ar    1  UNL1       -0.0352
      3 C          -1.3597   -1.6002    1.6498 C.ar    1  UNL1       -0.0210
      4 S          -1.9496   -0.1128    2.2371 S.2     1  UNL1       -0.0764
      5 C          -1.6802    0.7004    0.7287 C.ar    1  UNL1        0.1184
      6 C          -0.8819    0.1248   -1.5602 C.1     1  UNL1        0.1018
      7 N          -0.6108    0.4044   -2.6520 N.1     1  UNL1       -0.1908
      8 N          -2.0524    2.0121    0.6806 N.2     1  UNL1       -0.2465
      9 C          -1.3448    2.8396   -0.0158 C.2     1  UNL1        0.0380
     10 C          -1.7263    4.2400   -0.0552 C.ar    1  UNL1        0.0181
     11 N          -2.7714    6.1596    0.4012 N.ar    1  UNL1       -0.3600
     12 C          -2.7233    4.8268    0.7019 C.ar    1  UNL1        0.0113
     13 C          -1.1599    5.2789   -0.8664 C.ar    1  UNL1        0.0093
     14 C          -1.8336    6.4637   -0.5580 C.ar    1  UNL1        0.0472
     15 C          -1.5417    7.6894   -1.1696 C.ar    1  UNL1       -0.0367
     16 C          -0.5358    7.7073   -2.1393 C.ar    1  UNL1       -0.0458
     17 C           0.1488    6.5416   -2.4704 C.ar    1  UNL1        0.0186
     18 C          -0.1423    5.3236   -1.8447 C.ar    1  UNL1       -0.0380
     19 BR          1.4931    6.6015   -3.8021 Br      1  UNL1       -0.0503
     20 H          -0.5749   -2.3525   -0.2224 H       1  UNL1        0.0636
     21 H          -1.3327   -2.4711    2.2915 H       1  UNL1        0.0694
     22 H          -0.4469    2.5576   -0.5909 H       1  UNL1        0.0836
     23 H          -3.4087    6.8274    0.8136 H       1  UNL1        0.1654
     24 H          -3.3967    4.4000    1.4345 H       1  UNL1        0.0813
     25 H          -2.0798    8.5962   -0.9111 H       1  UNL1        0.0639
     26 H          -0.2983    8.6451   -2.6366 H       1  UNL1        0.0629
     27 H           0.3981    4.4227   -2.1192 H       1  UNL1        0.0635
@<TRIPOS>BOND
     1     1     2   ar
     2     1     5   ar
     3     2     3   ar
     4     3     4   ar
     5     4     5   ar
     6     1     6    1
     7     6     7    3
     8     5     8    1
     9     8     9    2
    10     9    10    1
    11    12    10   ar
    12    10    13   ar
    13    11    12   ar
    14    11    14   ar
    15    13    18   ar
    16    13    14   ar
    17    14    15   ar
    18    15    16   ar
    19    16    17   ar
    20    17    18   ar
    21    17    19    1
    22     2    20    1
    23     3    21    1
    24     9    22    1
    25    11    23    1
    26    12    24    1
    27    15    25    1
    28    16    26    1
    29    18    27    1
