@<TRIPOS>MOLECULE
mol_748_akc_jejmech2022114959
*****
 38 41 0 0 0
SMALL
GASTEIGER

@<TRIPOS>ATOM
      1 C          -0.5357   -2.9438    0.1677 C.ar    1  UNL1        0.0230
      2 C          -0.0821   -1.8135   -0.5602 C.ar    1  UNL1       -0.0494
      3 C           1.2731   -1.4887   -0.6240 C.ar    1  UNL1       -0.0426
      4 C           2.1920   -2.2767    0.0516 C.ar    1  UNL1        0.0430
      5 C           1.7657   -3.3794    0.7853 C.ar    1  UNL1       -0.0173
      6 C           0.4257   -3.7298    0.8500 C.ar    1  UNL1        0.0742
      7 N           0.1086   -4.8161    1.5683 N.ar    1  UNL1       -0.2548
      8 C          -1.1889   -5.1669    1.6448 C.ar    1  UNL1        0.0301
      9 C          -2.2089   -4.4727    1.0301 C.ar    1  UNL1       -0.0204
     10 C          -1.8978   -3.3496    0.2590 C.ar    1  UNL1        0.0589
     11 CL          3.8671   -1.8911   -0.0233 Cl      1  UNL1       -0.0835
     12 N          -2.9305   -2.5818   -0.3283 N.pl3   1  UNL1       -0.2364
     13 N          -4.2276   -2.9653   -0.1950 N.2     1  UNL1       -0.1767
     14 C          -5.0851   -2.3083   -0.9060 C.2     1  UNL1        0.1525
     15 C          -7.0714   -1.5301   -1.7270 C.ar    1  UNL1        0.0434
     16 N          -6.0765   -0.7626   -2.3257 N.am    1  UNL1       -0.2796
     17 C          -4.8275   -1.1836   -1.9167 C.2     1  UNL1        0.2688
     18 C          -6.5317   -2.4975   -0.8811 C.ar    1  UNL1        0.0316
     19 C          -7.3075   -3.4076   -0.1885 C.ar    1  UNL1       -0.0085
     20 C          -8.6850   -3.3555   -0.4022 C.ar    1  UNL1        0.1307
     21 C          -9.2392   -2.3419   -1.2198 C.ar    1  UNL1       -0.0178
     22 C          -8.4315   -1.4179   -1.8978 C.ar    1  UNL1       -0.0364
     23 O          -3.7336   -0.7943   -2.2697 O.2     1  UNL1       -0.2681
     24 O          -9.6015   -4.1793    0.1803 O.3     1  UNL1       -0.4057
     25 C          -9.2833   -5.5561    0.3615 C.3     1  UNL1        0.5752
     26 F          -8.0580   -5.9060   -0.0801 F       1  UNL1       -0.1328
     27 F          -9.3737   -5.8578    1.6740 F       1  UNL1       -0.1328
     28 F         -10.1926   -6.3002   -0.3070 F       1  UNL1       -0.1328
     29 H          -0.7779   -1.1710   -1.0934 H       1  UNL1        0.0625
     30 H           1.5979   -0.6266   -1.2003 H       1  UNL1        0.0632
     31 H           2.4907   -3.9888    1.3192 H       1  UNL1        0.0653
     32 H          -1.3957   -6.0531    2.2374 H       1  UNL1        0.0830
     33 H          -3.2330   -4.8097    1.1422 H       1  UNL1        0.0652
     34 H          -2.6557   -1.9632   -1.0952 H       1  UNL1        0.1744
     35 H          -6.2180   -0.0274   -3.0005 H       1  UNL1        0.1552
     36 H          -6.8331   -4.1171    0.4808 H       1  UNL1        0.0661
     37 H         -10.3217   -2.2830   -1.3347 H       1  UNL1        0.0655
     38 H          -8.8741   -0.6536   -2.5281 H       1  UNL1        0.0637
@<TRIPOS>BOND
     1     1     2   ar
     2     1     6   ar
     3     1    10   ar
     4     2     3   ar
     5     3     4   ar
     6     4     5   ar
     7     5     6   ar
     8     6     7   ar
     9     7     8   ar
    10     8     9   ar
    11     9    10   ar
    12     4    11    1
    13    10    12    1
    14    12    13    1
    15    13    14    2
    16    17    14    1
    17    14    18    1
    18    15    16    1
    19    16    17   am
    20    15    22   ar
    21    15    18   ar
    22    18    19   ar
    23    19    20   ar
    24    20    21   ar
    25    21    22   ar
    26    17    23    2
    27    20    24    1
    28    24    25    1
    29    25    26    1
    30    25    27    1
    31    25    28    1
    32     2    29    1
    33     3    30    1
    34     5    31    1
    35     8    32    1
    36     9    33    1
    37    12    34    1
    38    16    35    1
    39    19    36    1
    40    21    37    1
    41    22    38    1
