@<TRIPOS>MOLECULE
mol_749_akc_pj20231511
*****
 57 60 0 0 0
SMALL
GASTEIGER

@<TRIPOS>ATOM
      1 O           4.4358   -3.9445    1.0567 O.3     1  UNL1       -0.3898
      2 C           5.7976   -3.5328    1.1029 C.3     1  UNL1        0.0841
      3 C           6.2525   -2.9804   -0.2534 C.3     1  UNL1       -0.0081
      4 N           6.2018   -4.0200   -1.3803 N.4     1  UNL1        0.2387
      5 C           4.7781   -4.5272   -1.6256 C.3     1  UNL1       -0.0187
      6 C           4.5780   -5.1385   -3.0211 C.3     1  UNL1        0.0393
      7 N           5.0693   -4.3094   -4.1296 N.3     1  UNL1       -0.2923
      8 C           4.3499   -3.0259   -4.3119 C.3     1  UNL1        0.0007
      9 C           2.9092   -3.1911   -4.8280 C.3     1  UNL1       -0.0240
     10 C           2.0803   -1.8903   -4.9190 C.3     1  UNL1        0.0185
     11 N           2.5781   -0.9177   -5.9143 N.pl3   1  UNL1       -0.2983
     12 C           2.0791   -1.0220   -7.2398 C.ar    1  UNL1        0.0479
     13 C           0.6993   -1.1466   -7.4889 C.ar    1  UNL1       -0.0393
     14 C           0.1899   -1.1708   -8.7919 C.ar    1  UNL1       -0.0599
     15 C           1.0512   -1.0855   -9.8787 C.ar    1  UNL1       -0.0606
     16 C           2.4186   -0.9353   -9.6615 C.ar    1  UNL1       -0.0462
     17 C           2.9288   -0.8716   -8.3556 C.ar    1  UNL1        0.0341
     18 S           4.6787   -0.5719   -8.1612 S.3     1  UNL1       -0.0857
     19 C           4.6908    0.1732   -6.5390 C.ar    1  UNL1        0.0341
     20 C           5.7634    1.0167   -6.2164 C.ar    1  UNL1       -0.0457
     21 C           5.8628    1.5798   -4.9441 C.ar    1  UNL1       -0.0490
     22 C           4.8930    1.3111   -3.9798 C.ar    1  UNL1        0.0566
     23 C           3.8106    0.4733   -4.3150 C.ar    1  UNL1       -0.0276
     24 C           3.6941   -0.1145   -5.5828 C.ar    1  UNL1        0.0484
     25 C           4.9803    1.8729   -2.5833 C.3     1  UNL1        0.4175
     26 F           6.0368    2.7110   -2.3903 F       1  UNL1       -0.1659
     27 F           3.8679    2.5598   -2.2113 F       1  UNL1       -0.1659
     28 F           5.1263    0.8738   -1.6615 F       1  UNL1       -0.1659
     29 C           6.5178   -4.1160   -3.9359 C.3     1  UNL1        0.0393
     30 C           6.9211   -3.4553   -2.6055 C.3     1  UNL1       -0.0187
     31 H           3.8846   -3.2416    1.4510 H       1  UNL1        0.2096
     32 H           5.9004   -2.7628    1.8753 H       1  UNL1        0.0610
     33 H           6.4105   -4.3908    1.3944 H       1  UNL1        0.0610
     34 H           5.6080   -2.1523   -0.5708 H       1  UNL1        0.0837
     35 H           7.2894   -2.6350   -0.1861 H       1  UNL1        0.0837
     36 H           6.7345   -4.8449   -1.0761 H       1  UNL1        0.2035
     37 H           4.0946   -3.6861   -1.4782 H       1  UNL1        0.0827
     38 H           4.5917   -5.3043   -0.8776 H       1  UNL1        0.0827
     39 H           3.5218   -5.3913   -3.1591 H       1  UNL1        0.0479
     40 H           5.0989   -6.1058   -3.0561 H       1  UNL1        0.0479
     41 H           4.3506   -2.4369   -3.3879 H       1  UNL1        0.0427
     42 H           4.9049   -2.4499   -5.0585 H       1  UNL1        0.0427
     43 H           2.9265   -3.6891   -5.8039 H       1  UNL1        0.0293
     44 H           2.3594   -3.8508   -4.1460 H       1  UNL1        0.0293
     45 H           1.0517   -2.1922   -5.1475 H       1  UNL1        0.0468
     46 H           2.0008   -1.4410   -3.9237 H       1  UNL1        0.0468
     47 H          -0.0147   -1.1516   -6.6706 H       1  UNL1        0.0636
     48 H          -0.8839   -1.2322   -8.9550 H       1  UNL1        0.0618
     49 H           0.6581   -1.1058  -10.8925 H       1  UNL1        0.0618
     50 H           3.0814   -0.8423  -10.5196 H       1  UNL1        0.0629
     51 H           6.5219    1.2463   -6.9617 H       1  UNL1        0.0629
     52 H           6.7028    2.2465   -4.7215 H       1  UNL1        0.0623
     53 H           3.0313    0.3360   -3.5742 H       1  UNL1        0.0642
     54 H           7.0097   -5.0957   -4.0049 H       1  UNL1        0.0479
     55 H           6.9343   -3.5325   -4.7664 H       1  UNL1        0.0479
     56 H           7.9918   -3.6022   -2.4194 H       1  UNL1        0.0827
     57 H           6.7136   -2.3809   -2.6417 H       1  UNL1        0.0827
@<TRIPOS>UNITY_ATOM_ATTR
4 1
charge 1
@<TRIPOS>BOND
     1     1     2    1
     2     2     3    1
     3     3     4    1
     4     4     5    1
     5     5     6    1
     6     6     7    1
     7     7     8    1
     8     8     9    1
     9     9    10    1
    10    10    11    1
    11    11    12    1
    12    12    13   ar
    13    13    14   ar
    14    14    15   ar
    15    15    16   ar
    16    16    17   ar
    17    12    17   ar
    18    17    18    1
    19    18    19    1
    20    19    20   ar
    21    20    21   ar
    22    21    22   ar
    23    22    23   ar
    24    23    24   ar
    25    11    24    1
    26    19    24   ar
    27    22    25    1
    28    25    26    1
    29    25    27    1
    30    25    28    1
    31     7    29    1
    32    29    30    1
    33     4    30    1
    34     1    31    1
    35     2    32    1
    36     2    33    1
    37     3    34    1
    38     3    35    1
    39     4    36    1
    40     5    37    1
    41     5    38    1
    42     6    39    1
    43     6    40    1
    44     8    41    1
    45     8    42    1
    46     9    43    1
    47     9    44    1
    48    10    45    1
    49    10    46    1
    50    13    47    1
    51    14    48    1
    52    15    49    1
    53    16    50    1
    54    20    51    1
    55    21    52    1
    56    23    53    1
    57    29    54    1
    58    29    55    1
    59    30    56    1
    60    30    57    1
