@<TRIPOS>MOLECULE
mol_74_akc_jejmech201804033
>73.sdf
 40 43 0 0 0
SMALL
GASTEIGER

@<TRIPOS>ATOM
      1 C           6.0180   -0.9773   -2.1503 C.3     1  UNL1        0.0788
      2 O           5.4925   -0.4649   -0.9329 O.3     1  UNL1       -0.4951
      3 C           4.7330   -1.3191   -0.1807 C.ar    1  UNL1        0.1207
      4 C           4.3828   -2.6295   -0.5229 C.ar    1  UNL1       -0.0108
      5 C           3.6164   -3.4364    0.3437 C.ar    1  UNL1        0.0038
      6 C           3.1877   -2.8618    1.5564 C.ar    1  UNL1       -0.0523
      7 C           3.5289   -1.5542    1.9025 C.ar    1  UNL1       -0.0577
      8 C           4.3012   -0.7890    1.0348 C.ar    1  UNL1       -0.0199
      9 C           3.3162   -4.8433   -0.0005 C.ar    1  UNL1        0.0725
     10 N           3.2102   -5.1461   -1.3110 N.ar    1  UNL1       -0.2451
     11 C           2.9747   -6.4236   -1.6608 C.ar    1  UNL1        0.0904
     12 C           2.8365   -6.7118   -3.0095 C.ar    1  UNL1       -0.0328
     13 C           2.6052   -8.0086   -3.4556 C.ar    1  UNL1       -0.0415
     14 C           2.5289   -9.0034   -2.5086 C.ar    1  UNL1        0.0284
     15 N           2.6535   -8.7731   -1.1872 N.ar    1  UNL1       -0.2528
     16 C           2.8591   -7.5011   -0.7497 C.ar    1  UNL1        0.0969
     17 C           2.9683   -7.1782    0.6177 C.ar    1  UNL1        0.0116
     18 C           3.1874   -5.8301    0.9678 C.ar    1  UNL1       -0.0259
     19 C           2.8545   -8.1825    1.7190 C.ar    1  UNL1       -0.0157
     20 C           3.6101   -8.0529    2.9053 C.ar    1  UNL1       -0.0540
     21 C           3.4665   -8.9417    3.9762 C.ar    1  UNL1       -0.0612
     22 C           2.5826  -10.0086    3.8779 C.ar    1  UNL1       -0.0617
     23 C           1.8408  -10.1801    2.7148 C.ar    1  UNL1       -0.0612
     24 C           1.9667   -9.2706    1.6576 C.ar    1  UNL1       -0.0540
     25 H           6.6494   -1.8545   -1.9740 H       1  UNL1        0.0660
     26 H           5.2143   -1.2022   -2.8588 H       1  UNL1        0.0660
     27 H           6.6483   -0.2007   -2.5941 H       1  UNL1        0.0660
     28 H           4.7110   -3.0631   -1.4636 H       1  UNL1        0.0661
     29 H           2.5720   -3.4261    2.2533 H       1  UNL1        0.0624
     30 H           3.1949   -1.1352    2.8479 H       1  UNL1        0.0619
     31 H           4.5712    0.2284    1.3068 H       1  UNL1        0.0654
     32 H           2.9049   -5.9023   -3.7328 H       1  UNL1        0.0640
     33 H           2.4925   -8.2305   -4.5105 H       1  UNL1        0.0633
     34 H           2.3575  -10.0390   -2.7870 H       1  UNL1        0.0830
     35 H           3.2723   -5.5555    2.0137 H       1  UNL1        0.0646
     36 H           4.3340   -7.2486    3.0182 H       1  UNL1        0.0624
     37 H           4.0481   -8.7965    4.8825 H       1  UNL1        0.0618
     38 H           2.4739  -10.7063    4.7037 H       1  UNL1        0.0618
     39 H           1.1554  -11.0183    2.6241 H       1  UNL1        0.0618
     40 H           1.3479   -9.4299    0.7772 H       1  UNL1        0.0624
@<TRIPOS>BOND
     1     1    25    1
     2     1    26    1
     3     1    27    1
     4     2     1    1
     5     3     2    1
     6     4     3   ar
     7     4    28    1
     8     5     4   ar
     9     6     5   ar
    10     6    29    1
    11     7     6   ar
    12     7    30    1
    13     8     7   ar
    14     8     3   ar
    15     8    31    1
    16     9     5    1
    17    10     9   ar
    18    11    10   ar
    19    12    11   ar
    20    12    32    1
    21    13    12   ar
    22    13    33    1
    23    14    13   ar
    24    14    34    1
    25    15    14   ar
    26    16    15   ar
    27    16    11   ar
    28    17    16   ar
    29    18    17   ar
    30    18     9   ar
    31    18    35    1
    32    19    17    1
    33    20    19   ar
    34    20    36    1
    35    21    20   ar
    36    21    37    1
    37    22    21   ar
    38    22    38    1
    39    23    22   ar
    40    23    39    1
    41    24    23   ar
    42    24    19   ar
    43    24    40    1
