@<TRIPOS>MOLECULE
mol_750_akc_s0223523423002222
*****
 55 58 0 0 0
SMALL
GASTEIGER

@<TRIPOS>ATOM
      1 C          -1.7856    1.3365   -0.2834 C.ar    1  UNL1        0.0231
      2 C          -2.8332    0.4880    0.1120 C.ar    1  UNL1        0.1243
      3 C          -2.5593   -0.8369    0.5181 C.ar    1  UNL1       -0.0190
      4 C          -1.2606   -1.3534    0.4637 C.ar    1  UNL1       -0.0438
      5 C          -0.2616   -0.5040    0.0371 C.ar    1  UNL1        0.0678
      6 C          -0.5032    0.8296   -0.2739 C.ar    1  UNL1        0.1430
      7 C           1.1665   -0.7388   -0.1042 C.2     1  UNL1        0.2315
      8 O           0.6510    1.5379   -0.5199 O.3     1  UNL1       -0.4513
      9 C           1.6903    0.6259   -0.3573 C.2     1  UNL1        0.1763
     10 O          -4.0946    1.0226   -0.0015 O.3     1  UNL1       -0.4866
     11 C           2.9892    0.9070   -0.2233 C.2     1  UNL1       -0.0047
     12 O           1.7599   -1.7849    0.0241 O.2     1  UNL1       -0.2832
     13 C           3.4900    2.2751   -0.0687 C.ar    1  UNL1        0.0237
     14 C           3.9298    4.2796    1.2146 C.ar    1  UNL1       -0.0159
     15 C           3.4883    2.9512    1.1601 C.ar    1  UNL1        0.1275
     16 C           3.9635    2.9339   -1.2158 C.ar    1  UNL1       -0.0092
     17 C           4.4180    4.2567   -1.1511 C.ar    1  UNL1        0.1209
     18 C           4.3948    4.9278    0.0677 C.ar    1  UNL1       -0.0165
     19 O           2.9991    2.4930    2.3582 O.3     1  UNL1       -0.4945
     20 O           4.8476    4.7740   -2.3436 O.3     1  UNL1       -0.4951
     21 C           5.3537    6.1036   -2.3213 C.3     1  UNL1        0.0788
     22 C           3.3339    1.1605    2.7259 C.3     1  UNL1        0.0788
     23 C          -5.0571    0.5809    0.9589 C.3     1  UNL1        0.1291
     24 C          -6.4412    1.1224    0.5668 C.3     1  UNL1        0.0031
     25 N          -6.8526    0.7186   -0.8442 N.4     1  UNL1        0.2376
     26 C          -8.2275    1.2410   -1.2217 C.3     1  UNL1       -0.0316
     27 C          -9.1194    0.0220   -1.1130 C.3     1  UNL1       -0.0077
     28 C          -8.2468   -1.0798   -1.6739 C.3     1  UNL1       -0.0077
     29 C          -6.8620   -0.7742   -1.1290 C.3     1  UNL1       -0.0316
     30 H          -1.9685    2.3665   -0.5720 H       1  UNL1        0.0691
     31 H          -3.3368   -1.5117    0.8601 H       1  UNL1        0.0654
     32 H          -1.0311   -2.3718    0.7612 H       1  UNL1        0.0627
     33 H           3.7153    0.1144   -0.0510 H       1  UNL1        0.0663
     34 H           3.9152    4.8116    2.1604 H       1  UNL1        0.0655
     35 H           3.9706    2.4252   -2.1773 H       1  UNL1        0.0661
     36 H           4.7297    5.9552    0.1664 H       1  UNL1        0.0655
     37 H           4.5517    6.8199   -2.1131 H       1  UNL1        0.0660
     38 H           6.1751    6.2111   -1.6047 H       1  UNL1        0.0660
     39 H           5.7539    6.3259   -3.3151 H       1  UNL1        0.0660
     40 H           2.5361    0.4772    2.4209 H       1  UNL1        0.0660
     41 H           4.3046    0.8367    2.3376 H       1  UNL1        0.0660
     42 H           3.3827    1.1194    3.8190 H       1  UNL1        0.0660
     43 H          -5.1113   -0.5072    1.0212 H       1  UNL1        0.0751
     44 H          -4.7865    0.9732    1.9462 H       1  UNL1        0.0751
     45 H          -7.2162    0.7663    1.2532 H       1  UNL1        0.0848
     46 H          -6.4241    2.2178    0.5622 H       1  UNL1        0.0848
     47 H          -6.1558    1.1533   -1.4698 H       1  UNL1        0.2034
     48 H          -8.1554    1.6006   -2.2537 H       1  UNL1        0.0814
     49 H          -8.5173    2.0593   -0.5567 H       1  UNL1        0.0814
     50 H          -9.3680   -0.1822   -0.0646 H       1  UNL1        0.0319
     51 H         -10.0544    0.1365   -1.6688 H       1  UNL1        0.0319
     52 H          -8.5905   -2.0752   -1.3743 H       1  UNL1        0.0319
     53 H          -8.2426   -1.0449   -2.7693 H       1  UNL1        0.0319
     54 H          -6.6833   -1.3156   -0.1981 H       1  UNL1        0.0814
     55 H          -6.0692   -0.9824   -1.8542 H       1  UNL1        0.0814
@<TRIPOS>UNITY_ATOM_ATTR
25 1
charge 1
@<TRIPOS>BOND
     1     1     2   ar
     2     2     3   ar
     3     3     4   ar
     4     4     5   ar
     5     5     6   ar
     6     1     6   ar
     7     8     9    1
     8     7     9    1
     9     6     8    1
    10     7     5    1
    11     2    10    1
    12     9    11    2
    13     7    12    2
    14    11    13    1
    15    14    15   ar
    16    16    17   ar
    17    17    18   ar
    18    14    18   ar
    19    15    13   ar
    20    13    16   ar
    21    15    19    1
    22    17    20    1
    23    20    21    1
    24    19    22    1
    25    10    23    1
    26    23    24    1
    27    24    25    1
    28    26    27    1
    29    27    28    1
    30    28    29    1
    31    25    26    1
    32    25    29    1
    33     1    30    1
    34     3    31    1
    35     4    32    1
    36    11    33    1
    37    14    34    1
    38    16    35    1
    39    18    36    1
    40    21    37    1
    41    21    38    1
    42    21    39    1
    43    22    40    1
    44    22    41    1
    45    22    42    1
    46    23    43    1
    47    23    44    1
    48    24    45    1
    49    24    46    1
    50    25    47    1
    51    26    48    1
    52    26    49    1
    53    27    50    1
    54    27    51    1
    55    28    52    1
    56    28    53    1
    57    29    54    1
    58    29    55    1
