@<TRIPOS>MOLECULE
mol_751_akc_jexppara2023108498
*****
 43 46 0 0 0
SMALL
GASTEIGER

@<TRIPOS>ATOM
      1 C           0.3065   -0.8415   -0.6011 C.ar    1  UNL1       -0.0092
      2 C           1.5205   -1.5680   -0.7059 C.ar    1  UNL1       -0.0534
      3 C           2.7580   -0.9268   -0.8172 C.ar    1  UNL1       -0.0611
      4 C           2.8231    0.4587   -0.8268 C.ar    1  UNL1       -0.0612
      5 C           1.6509    1.2037   -0.7321 C.ar    1  UNL1       -0.0540
      6 C           0.3990    0.5764   -0.6225 C.ar    1  UNL1       -0.0173
      7 C          -0.7594    1.3635   -0.5353 C.ar    1  UNL1       -0.0540
      8 C          -2.0175    0.7801   -0.4268 C.ar    1  UNL1       -0.0606
      9 C          -2.1324   -0.6036   -0.3975 C.ar    1  UNL1       -0.0525
     10 C          -0.9898   -1.4185   -0.4779 C.ar    1  UNL1        0.0025
     11 C          -1.1971   -2.8874   -0.4157 C.2     1  UNL1        0.0577
     12 N          -2.3849   -3.4031   -0.3389 N.2     1  UNL1       -0.1546
     13 N          -2.3456   -4.7922   -0.2745 N.2     1  UNL1       -0.1235
     14 C          -3.5058   -5.3504   -0.1370 C.ar    1  UNL1        0.1989
     15 N          -4.8330   -4.8892   -0.0259 N.ar    1  UNL1       -0.2939
     16 C          -5.7704   -5.9364    0.0391 C.ar    1  UNL1        0.0622
     17 C          -5.2578   -7.1779    0.0396 C.ar    1  UNL1        0.0036
     18 S          -3.5175   -7.1536   -0.0499 S.2     1  UNL1       -0.0554
     19 C          -5.1873   -3.5500   -0.0008 C.2     1  UNL1        0.0052
     20 C          -7.2168   -5.6905   -0.0020 C.ar    1  UNL1       -0.0006
     21 C          -5.6147   -2.8357    1.0471 C.2     1  UNL1       -0.0820
     22 C          -7.9611   -5.6131    1.1803 C.ar    1  UNL1       -0.0526
     23 C          -9.3254   -5.3174    1.1294 C.ar    1  UNL1       -0.0611
     24 C          -9.9523   -5.1117   -0.0985 C.ar    1  UNL1       -0.0617
     25 C          -9.2209   -5.2083   -1.2814 C.ar    1  UNL1       -0.0611
     26 C          -7.8575   -5.4997   -1.2304 C.ar    1  UNL1       -0.0526
     27 H           1.5297   -2.6543   -0.7071 H       1  UNL1        0.0624
     28 H           3.6688   -1.5153   -0.8960 H       1  UNL1        0.0618
     29 H           3.7833    0.9611   -0.9102 H       1  UNL1        0.0618
     30 H           1.7235    2.2900   -0.7426 H       1  UNL1        0.0624
     31 H          -0.6902    2.4500   -0.5518 H       1  UNL1        0.0624
     32 H          -2.9057    1.4031   -0.3616 H       1  UNL1        0.0618
     33 H          -3.1216   -1.0452   -0.3047 H       1  UNL1        0.0624
     34 H          -0.3172   -3.5492   -0.4269 H       1  UNL1        0.0854
     35 H          -5.8247   -8.1003    0.0515 H       1  UNL1        0.0715
     36 H          -5.0319   -3.0788   -0.9667 H       1  UNL1        0.0808
     37 H          -5.8364   -1.7808    0.9457 H       1  UNL1        0.0549
     38 H          -5.7050   -3.2845    2.0306 H       1  UNL1        0.0549
     39 H          -7.4794   -5.7545    2.1448 H       1  UNL1        0.0624
     40 H          -9.8968   -5.2367    2.0511 H       1  UNL1        0.0618
     41 H         -11.0117   -4.8684   -0.1346 H       1  UNL1        0.0618
     42 H          -9.7088   -5.0464   -2.2390 H       1  UNL1        0.0618
     43 H          -7.2920   -5.5587   -2.1615 H       1  UNL1        0.0624
@<TRIPOS>BOND
     1     1     2   ar
     2     2     3   ar
     3     3     4   ar
     4     4     5   ar
     5     5     6   ar
     6     7     8   ar
     7     8     9   ar
     8     9    10   ar
     9     1     6   ar
    10     1    10   ar
    11     6     7   ar
    12    10    11    1
    13    11    12    2
    14    12    13    1
    15    13    14    2
    16    15    16   ar
    17    16    17   ar
    18    17    18   ar
    19    14    15   ar
    20    14    18   ar
    21    15    19    1
    22    16    20    1
    23    19    21    2
    24    22    23   ar
    25    23    24   ar
    26    24    25   ar
    27    25    26   ar
    28    20    22   ar
    29    20    26   ar
    30     2    27    1
    31     3    28    1
    32     4    29    1
    33     5    30    1
    34     7    31    1
    35     8    32    1
    36     9    33    1
    37    11    34    1
    38    17    35    1
    39    19    36    1
    40    21    37    1
    41    21    38    1
    42    22    39    1
    43    23    40    1
    44    24    41    1
    45    25    42    1
    46    26    43    1
