@<TRIPOS>MOLECULE
mol_752_akc_acsjmedchem2c01932
*****
 48 52 0 0 0
SMALL
GASTEIGER

@<TRIPOS>ATOM
      1 C           1.5294    0.3788   -0.0540 C.ar    1  UNL1        0.0279
      2 C           2.2928    1.5645   -0.0625 C.ar    1  UNL1       -0.0505
      3 C           3.6816    1.4868   -0.0482 C.ar    1  UNL1       -0.0610
      4 C           4.2946    0.2399   -0.0320 C.ar    1  UNL1       -0.0597
      5 C           3.5168   -0.9280   -0.0295 C.ar    1  UNL1       -0.0356
      6 C           2.1271   -0.8851   -0.0363 C.ar    1  UNL1        0.0738
      7 N           1.4138   -2.0233   -0.0294 N.ar    1  UNL1       -0.2445
      8 C           0.0435   -2.0240   -0.0219 C.ar    1  UNL1        0.0978
      9 C          -0.6085   -0.7813    0.0224 C.ar    1  UNL1        0.1000
     10 C           0.1188    0.4111   -0.0443 C.ar    1  UNL1        0.1012
     11 N          -0.7085    1.5091   -0.1045 N.ar    1  UNL1       -0.2271
     12 C          -1.9257    1.0264   -0.0403 C.ar    1  UNL1        0.1387
     13 N          -1.9254   -0.3571    0.1492 N.ar    1  UNL1       -0.2974
     14 C          -3.1064   -1.0565    0.4269 C.ar    1  UNL1        0.0118
     15 C          -4.2895   -0.4197    0.4032 C.ar    1  UNL1       -0.0450
     16 C          -4.3187    0.9996    0.1040 C.ar    1  UNL1       -0.0569
     17 C          -3.1826    1.6930   -0.0912 C.ar    1  UNL1       -0.0188
     18 C          -0.5893   -3.3494   -0.0491 C.ar    1  UNL1        0.0096
     19 C          -0.0601   -4.4044    0.7123 C.ar    1  UNL1       -0.0068
     20 C          -0.6534   -5.6800    0.7493 C.ar    1  UNL1        0.1658
     21 C          -1.8582   -5.9086    0.0505 C.ar    1  UNL1        0.2035
     22 C          -2.3812   -4.8645   -0.7400 C.ar    1  UNL1        0.1658
     23 C          -1.7070   -3.6372   -0.8348 C.ar    1  UNL1       -0.0068
     24 O          -3.5273   -4.8851   -1.4999 O.3     1  UNL1       -0.4913
     25 O          -2.5661   -7.0816    0.0150 O.3     1  UNL1       -0.4885
     26 O          -0.1066   -6.7104    1.4712 O.3     1  UNL1       -0.4913
     27 C           1.2574   -6.6038    1.8625 C.3     1  UNL1        0.0790
     28 C          -2.2181   -8.1600    0.8676 C.3     1  UNL1        0.0791
     29 C          -4.5991   -5.7035   -1.0450 C.3     1  UNL1        0.0790
     30 H           1.7981    2.5332   -0.0682 H       1  UNL1        0.0625
     31 H           4.2798    2.3949   -0.0454 H       1  UNL1        0.0618
     32 H           5.3802    0.1646   -0.0212 H       1  UNL1        0.0618
     33 H           4.0108   -1.8971   -0.0209 H       1  UNL1        0.0639
     34 H          -3.0417   -2.1054    0.6756 H       1  UNL1        0.0813
     35 H          -5.2220   -0.9354    0.6086 H       1  UNL1        0.0632
     36 H          -5.2855    1.4922    0.0589 H       1  UNL1        0.0619
     37 H          -3.1948    2.7579   -0.2941 H       1  UNL1        0.0654
     38 H           0.8416   -4.1986    1.2847 H       1  UNL1        0.0662
     39 H          -2.1082   -2.8834   -1.5107 H       1  UNL1        0.0662
     40 H           1.9044   -6.3584    1.0135 H       1  UNL1        0.0660
     41 H           1.3719   -5.8794    2.6746 H       1  UNL1        0.0660
     42 H           1.5694   -7.5805    2.2455 H       1  UNL1        0.0660
     43 H          -1.2878   -8.6309    0.5367 H       1  UNL1        0.0660
     44 H          -2.1822   -7.8576    1.9190 H       1  UNL1        0.0660
     45 H          -3.0080   -8.9133    0.7820 H       1  UNL1        0.0660
     46 H          -4.4876   -6.7227   -1.4260 H       1  UNL1        0.0660
     47 H          -4.7085   -5.6878    0.0452 H       1  UNL1        0.0660
     48 H          -5.5256   -5.3009   -1.4675 H       1  UNL1        0.0660
@<TRIPOS>BOND
     1     1     2   ar
     2     2     3   ar
     3     3     4   ar
     4     4     5   ar
     5     5     6   ar
     6     7     8   ar
     7     8     9   ar
     8     9    10   ar
     9     1     6   ar
    10     1    10   ar
    11     6     7   ar
    12    11    12   ar
    13     9    13   ar
    14    10    11   ar
    15    14    15   ar
    16    15    16   ar
    17    16    17   ar
    18    12    17   ar
    19    13    14   ar
    20    12    13   ar
    21    19    20   ar
    22    20    21   ar
    23    21    22   ar
    24    22    23   ar
    25    18    19   ar
    26    18    23   ar
    27     8    18    1
    28    22    24    1
    29    21    25    1
    30    20    26    1
    31    26    27    1
    32    25    28    1
    33    24    29    1
    34     2    30    1
    35     3    31    1
    36     4    32    1
    37     5    33    1
    38    14    34    1
    39    15    35    1
    40    16    36    1
    41    17    37    1
    42    19    38    1
    43    23    39    1
    44    27    40    1
    45    27    41    1
    46    27    42    1
    47    28    43    1
    48    28    44    1
    49    28    45    1
    50    29    46    1
    51    29    47    1
    52    29    48    1
