@<TRIPOS>MOLECULE
mol_753_akc_jejmech2023115310
*****
 45 47 0 0 0
SMALL
GASTEIGER

@<TRIPOS>ATOM
      1 C           0.9515   -0.8089   -1.2061 C.ar    1  UNL1       -0.0347
      2 C          -0.4254   -0.9225   -1.2869 C.ar    1  UNL1        0.0282
      3 N          -1.0864   -2.0981   -1.2205 N.ar    1  UNL1       -0.2632
      4 C          -0.3386   -3.2111   -1.0689 C.ar    1  UNL1        0.0282
      5 C           1.0432   -3.2057   -0.9860 C.ar    1  UNL1       -0.0347
      6 C           1.6988   -1.9774   -1.0534 C.ar    1  UNL1        0.0006
      7 C           3.1790   -1.8820   -0.8784 C.2     1  UNL1        0.0678
      8 N           3.6503   -0.8800   -0.1941 N.2     1  UNL1       -0.1516
      9 C           4.0408   -2.9488   -1.5272 C.3     1  UNL1       -0.0200
     10 N           5.0201   -0.9022   -0.0071 N.2     1  UNL1       -0.1259
     11 C           5.4968   -0.2095    0.9798 C.2     1  UNL1        0.1897
     12 S           7.2413   -0.1500    1.1043 S.3     1  UNL1       -0.0749
     13 N           4.9059    0.5566    1.9633 N.am    1  UNL1       -0.2167
     14 C           5.7484    1.3772    2.7011 C.2     1  UNL1        0.2393
     15 C           7.2163    1.1681    2.3481 C.3     1  UNL1        0.0918
     16 C           3.5129    0.5472    2.2280 C.ar    1  UNL1        0.0432
     17 O           5.4087    2.1801    3.5734 O.2     1  UNL1       -0.2736
     18 C           7.9209    2.4779    1.9332 C.3     1  UNL1       -0.0260
     19 C           2.8615   -0.6528    2.5515 C.ar    1  UNL1       -0.0399
     20 C           1.4738   -0.6851    2.7015 C.ar    1  UNL1       -0.0600
     21 C           0.7292    0.4798    2.5299 C.ar    1  UNL1       -0.0616
     22 C           1.3742    1.6851    2.2525 C.ar    1  UNL1       -0.0600
     23 C           2.7649    1.7254    2.1243 C.ar    1  UNL1       -0.0399
     24 C           9.4147    2.2701    1.6491 C.3     1  UNL1       -0.0612
     25 C           7.2588    3.1876    0.7472 C.3     1  UNL1       -0.0612
     26 H           1.4252    0.1661   -1.2505 H       1  UNL1        0.0639
     27 H          -1.0550   -0.0450   -1.4013 H       1  UNL1        0.0830
     28 H          -0.8999   -4.1393   -0.9982 H       1  UNL1        0.0830
     29 H           1.5674   -4.1397   -0.8323 H       1  UNL1        0.0639
     30 H           3.6364   -3.9486   -1.3651 H       1  UNL1        0.0293
     31 H           4.0886   -2.7528   -2.6026 H       1  UNL1        0.0293
     32 H           5.0598   -2.9556   -1.1343 H       1  UNL1        0.0293
     33 H           7.7014    0.7615    3.2400 H       1  UNL1        0.0514
     34 H           7.8561    3.1682    2.7852 H       1  UNL1        0.0311
     35 H           3.4277   -1.5736    2.6625 H       1  UNL1        0.0636
     36 H           0.9727   -1.6230    2.9261 H       1  UNL1        0.0618
     37 H          -0.3543    0.4468    2.6074 H       1  UNL1        0.0618
     38 H           0.7923    2.5937    2.1184 H       1  UNL1        0.0618
     39 H           3.2483    2.6694    1.8877 H       1  UNL1        0.0636
     40 H           9.5894    1.5435    0.8498 H       1  UNL1        0.0233
     41 H           9.8858    3.2101    1.3403 H       1  UNL1        0.0233
     42 H           9.9343    1.9202    2.5472 H       1  UNL1        0.0233
     43 H           6.2277    3.4697    0.9846 H       1  UNL1        0.0233
     44 H           7.7972    4.1104    0.5043 H       1  UNL1        0.0233
     45 H           7.2470    2.5653   -0.1518 H       1  UNL1        0.0233
@<TRIPOS>BOND
     1     1     2   ar
     2     1     6   ar
     3     2     3   ar
     4     3     4   ar
     5     4     5   ar
     6     5     6   ar
     7     6     7    1
     8     7     8    2
     9     7     9    1
    10     8    10    1
    11    10    11    2
    12    12    11    1
    13    11    13    1
    14    12    15    1
    15    13    14   am
    16    14    15    1
    17    13    16    1
    18    14    17    2
    19    15    18    1
    20    23    16   ar
    21    19    16   ar
    22    19    20   ar
    23    20    21   ar
    24    21    22   ar
    25    22    23   ar
    26    18    24    1
    27    18    25    1
    28     1    26    1
    29     2    27    1
    30     4    28    1
    31     5    29    1
    32     9    30    1
    33     9    31    1
    34     9    32    1
    35    15    33    1
    36    18    34    1
    37    19    35    1
    38    20    36    1
    39    21    37    1
    40    22    38    1
    41    23    39    1
    42    24    40    1
    43    24    41    1
    44    24    42    1
    45    25    43    1
    46    25    44    1
    47    25    45    1
