@<TRIPOS>MOLECULE
mol_755_akc_d2md00464j
*****
 32 34 0 0 0
SMALL
GASTEIGER

@<TRIPOS>ATOM
      1 O           7.9973   -0.4086    1.1771 O.3     1  UNL1       -0.4254
      2 C           6.7427   -0.9698    0.8446 C.3     1  UNL1        0.2436
      3 C           5.7780    0.1768    0.7419 C.2     1  UNL1        0.0985
      4 C           6.4326    1.2841    1.0899 C.2     1  UNL1        0.1474
      5 C           7.8259    0.9230    1.3879 C.2     1  UNL1        0.3547
      6 O           8.7050    1.6854    1.7493 O.2     1  UNL1       -0.2438
      7 O           6.8038   -1.6801   -0.3800 O.3     1  UNL1       -0.3531
      8 N           4.4740   -0.0687    0.3242 N.pl3   1  UNL1       -0.3353
      9 CL          5.8803    2.8812    1.1944 Cl      1  UNL1       -0.0743
     10 C           3.5863    0.8846   -0.3396 C.3     1  UNL1        0.0547
     11 C           4.0225    1.3905   -1.6717 C.ar    1  UNL1        0.1002
     12 C           4.2114    2.6870   -2.0947 C.ar    1  UNL1        0.0559
     13 N           4.5983    2.5861   -3.4104 N.ar    1  UNL1       -0.2198
     14 N           4.6505    1.2747   -3.7579 N.ar    1  UNL1       -0.0605
     15 N           4.3078    0.5415   -2.7060 N.ar    1  UNL1       -0.1326
     16 C           4.8995    3.6307   -4.3227 C.ar    1  UNL1        0.0670
     17 C           5.1981    3.3286   -5.6593 C.ar    1  UNL1       -0.0362
     18 C           5.4779    4.3576   -6.5632 C.ar    1  UNL1       -0.0598
     19 C           5.4679    5.6856   -6.1398 C.ar    1  UNL1       -0.0616
     20 C           5.1796    5.9907   -4.8116 C.ar    1  UNL1       -0.0598
     21 C           4.8945    4.9690   -3.9025 C.ar    1  UNL1       -0.0362
     22 H           6.4440   -1.6668    1.6351 H       1  UNL1        0.1125
     23 H           6.6510   -1.0405   -1.0970 H       1  UNL1        0.2139
     24 H           4.3687   -1.0065   -0.0730 H       1  UNL1        0.1464
     25 H           2.6179    0.3881   -0.4775 H       1  UNL1        0.0527
     26 H           3.3830    1.7254    0.3338 H       1  UNL1        0.0527
     27 H           4.0927    3.6267   -1.5814 H       1  UNL1        0.0850
     28 H           5.2096    2.3013   -6.0197 H       1  UNL1        0.0639
     29 H           5.7029    4.1225   -7.6012 H       1  UNL1        0.0618
     30 H           5.6866    6.4841   -6.8448 H       1  UNL1        0.0618
     31 H           5.1774    7.0268   -4.4809 H       1  UNL1        0.0618
     32 H           4.6820    5.2548   -2.8771 H       1  UNL1        0.0639
@<TRIPOS>BOND
     1     1     2    1
     2     1     5    1
     3     2     3    1
     4     3     4    2
     5     4     5    1
     6     5     6    2
     7     2     7    1
     8     3     8    1
     9     4     9    1
    10     8    10    1
    11    10    11    1
    12    15    11   ar
    13    12    11   ar
    14    12    13   ar
    15    13    14   ar
    16    14    15   ar
    17    13    16    1
    18    21    16   ar
    19    17    16   ar
    20    17    18   ar
    21    18    19   ar
    22    19    20   ar
    23    20    21   ar
    24     2    22    1
    25     7    23    1
    26     8    24    1
    27    10    25    1
    28    10    26    1
    29    12    27    1
    30    17    28    1
    31    18    29    1
    32    19    30    1
    33    20    31    1
    34    21    32    1
