@<TRIPOS>MOLECULE
mol_756_akc_jejmech2023115333
*****
 77 80 0 0 0
SMALL
GASTEIGER

@<TRIPOS>ATOM
      1 C          -3.3789   -5.9615   -5.1028 C.ar    1  UNL1        0.0185
      2 C          -4.2169   -6.4604   -6.0986 C.ar    1  UNL1       -0.0476
      3 C          -3.6719   -6.9244   -7.3057 C.ar    1  UNL1       -0.0192
      4 C          -2.2891   -6.9294   -7.5253 C.ar    1  UNL1        0.1240
      5 C          -1.4457   -6.4628   -6.5207 C.ar    1  UNL1        0.0231
      6 C          -2.0071   -5.9723   -5.3346 C.ar    1  UNL1        0.1426
      7 O          -1.1250   -5.4231   -4.3869 O.2     1  UNL1       -0.4216
      8 C          -1.5973   -4.7031   -3.2937 C.ar    1  UNL1        0.3463
      9 C          -3.0513   -4.7801   -2.9974 C.ar    1  UNL1        0.0841
     10 C          -3.8828   -5.3988   -3.8532 C.ar    1  UNL1       -0.0352
     11 O          -0.8261   -4.0493   -2.5996 O.2     1  UNL1       -0.2445
     12 O          -1.9100   -7.3797   -8.7604 O.3     1  UNL1       -0.4918
     13 C          -0.5213   -7.6264   -8.9812 C.3     1  UNL1        0.0896
     14 C          -0.3338   -8.3463  -10.3208 C.3     1  UNL1       -0.0189
     15 C          -0.5081   -7.4809  -11.5743 C.3     1  UNL1       -0.0528
     16 C          -1.9067   -6.9204  -11.7727 C.3     1  UNL1       -0.0652
     17 C          -3.6251   -4.1747   -1.7403 C.2     1  UNL1        0.0910
     18 C          -2.7684   -4.1918   -0.4847 C.3     1  UNL1       -0.0184
     19 N          -4.8196   -3.6411   -1.7362 N.2     1  UNL1       -0.0891
     20 O          -5.1234   -3.0752   -0.4805 O.2     1  UNL1       -0.3936
     21 C          -6.4216   -2.4811   -0.5344 C.3     1  UNL1        0.1179
     22 C          -6.7215   -1.7743    0.7904 C.3     1  UNL1       -0.0161
     23 C          -5.8117   -0.5661    1.0464 C.3     1  UNL1       -0.0498
     24 C          -6.1521    0.1969    2.3357 C.3     1  UNL1       -0.0513
     25 C          -6.0847   -0.6147    3.6331 C.3     1  UNL1       -0.0333
     26 C          -4.7015   -1.1967    3.9197 C.3     1  UNL1        0.0432
     27 N          -4.6915   -1.9979    5.1265 N.ar    1  UNL1       -0.2513
     28 N          -4.6017   -2.3939    7.2462 N.ar    1  UNL1       -0.1291
     29 N          -4.6001   -1.4273    6.3406 N.ar    1  UNL1       -0.0653
     30 C          -4.7747   -3.3534    5.2305 C.ar    1  UNL1        0.0539
     31 C          -4.6963   -3.5922    6.5899 C.ar    1  UNL1        0.1270
     32 C          -4.7498   -4.8589    7.3611 C.3     1  UNL1        0.0147
     33 N          -5.7743   -4.8250    8.4765 N.4     1  UNL1        0.2397
     34 C          -5.7225   -6.0115    9.3938 C.3     1  UNL1       -0.0313
     35 C          -7.2027   -4.7035    8.0051 C.3     1  UNL1       -0.0313
     36 C          -7.8461   -6.0568    8.2661 C.3     1  UNL1       -0.0077
     37 C          -6.7615   -6.9556    8.8309 C.3     1  UNL1       -0.0077
     38 H          -5.2964   -6.4713   -5.9713 H       1  UNL1        0.0626
     39 H          -4.3349   -7.2801   -8.0925 H       1  UNL1        0.0654
     40 H          -0.3684   -6.4334   -6.6412 H       1  UNL1        0.0691
     41 H          -4.9498   -5.4694   -3.6600 H       1  UNL1        0.0633
     42 H           0.0468   -6.6891   -8.9720 H       1  UNL1        0.0696
     43 H          -0.1439   -8.2900   -8.1930 H       1  UNL1        0.0696
     44 H           0.6819   -8.7598  -10.3476 H       1  UNL1        0.0298
     45 H          -1.0294   -9.1923  -10.3799 H       1  UNL1        0.0298
     46 H           0.2176   -6.6592  -11.5709 H       1  UNL1        0.0264
     47 H          -0.2654   -8.1045  -12.4445 H       1  UNL1        0.0264
     48 H          -2.0679   -6.0369  -11.1479 H       1  UNL1        0.0230
     49 H          -2.0428   -6.6148  -12.8161 H       1  UNL1        0.0230
     50 H          -2.6757   -7.6627  -11.5384 H       1  UNL1        0.0230
     51 H          -2.4523   -3.1709   -0.2515 H       1  UNL1        0.0294
     52 H          -3.3507   -4.5878    0.3538 H       1  UNL1        0.0294
     53 H          -1.8893   -4.8294   -0.5867 H       1  UNL1        0.0294
     54 H          -6.4776   -1.7745   -1.3704 H       1  UNL1        0.0723
     55 H          -7.1593   -3.2763   -0.6911 H       1  UNL1        0.0723
     56 H          -7.7672   -1.4430    0.7892 H       1  UNL1        0.0299
     57 H          -6.6006   -2.4959    1.6056 H       1  UNL1        0.0299
     58 H          -4.7619   -0.8789    1.0663 H       1  UNL1        0.0266
     59 H          -5.9069    0.1344    0.2069 H       1  UNL1        0.0266
     60 H          -5.4759    1.0572    2.4205 H       1  UNL1        0.0266
     61 H          -7.1638    0.6121    2.2440 H       1  UNL1        0.0266
     62 H          -6.3731    0.0424    4.4649 H       1  UNL1        0.0283
     63 H          -6.8344   -1.4138    3.6161 H       1  UNL1        0.0283
     64 H          -4.3684   -1.8514    3.1049 H       1  UNL1        0.0509
     65 H          -3.9559   -0.4046    4.0418 H       1  UNL1        0.0509
     66 H          -4.8761   -4.0020    4.3714 H       1  UNL1        0.0847
     67 H          -4.9852   -5.7161    6.7223 H       1  UNL1        0.0883
     68 H          -3.7767   -5.0240    7.8382 H       1  UNL1        0.0883
     69 H          -5.5431   -3.9706    9.0068 H       1  UNL1        0.2037
     70 H          -5.9950   -5.6543   10.3921 H       1  UNL1        0.0814
     71 H          -4.7129   -6.4324    9.4108 H       1  UNL1        0.0814
     72 H          -7.2312   -4.4213    6.9493 H       1  UNL1        0.0814
     73 H          -7.6714   -3.9181    8.6071 H       1  UNL1        0.0814
     74 H          -8.2668   -6.4806    7.3476 H       1  UNL1        0.0319
     75 H          -8.6742   -5.9488    8.9755 H       1  UNL1        0.0319
     76 H          -6.3284   -7.5695    8.0328 H       1  UNL1        0.0319
     77 H          -7.1519   -7.6364    9.5941 H       1  UNL1        0.0319
@<TRIPOS>UNITY_ATOM_ATTR
33 1
charge 1
@<TRIPOS>BOND
     1     1     2   ar
     2     1     6   ar
     3     1    10   ar
     4     2     3   ar
     5     3     4   ar
     6     4     5   ar
     7     5     6   ar
     8     6     7   ar
     9     7     8   ar
    10     8     9   ar
    11     9    10   ar
    12     8    11    2
    13     4    12    1
    14    12    13    1
    15    13    14    1
    16    14    15    1
    17    15    16    1
    18     9    17    1
    19    17    18    1
    20    17    19    2
    21    19    20    1
    22    20    21    1
    23    21    22    1
    24    22    23    1
    25    23    24    1
    26    24    25    1
    27    25    26    1
    28    26    27    1
    29    29    27   ar
    30    27    30   ar
    31    28    29   ar
    32    28    31   ar
    33    30    31   ar
    34    32    33    1
    35    34    33    1
    36    33    35    1
    37    34    37    1
    38    35    36    1
    39    36    37    1
    40    31    32    1
    41     2    38    1
    42     3    39    1
    43     5    40    1
    44    10    41    1
    45    13    42    1
    46    13    43    1
    47    14    44    1
    48    14    45    1
    49    15    46    1
    50    15    47    1
    51    16    48    1
    52    16    49    1
    53    16    50    1
    54    18    51    1
    55    18    52    1
    56    18    53    1
    57    21    54    1
    58    21    55    1
    59    22    56    1
    60    22    57    1
    61    23    58    1
    62    23    59    1
    63    24    60    1
    64    24    61    1
    65    25    62    1
    66    25    63    1
    67    26    64    1
    68    26    65    1
    69    30    66    1
    70    32    67    1
    71    32    68    1
    72    33    69    1
    73    34    70    1
    74    34    71    1
    75    35    72    1
    76    35    73    1
    77    36    74    1
    78    36    75    1
    79    37    76    1
    80    37    77    1
