@<TRIPOS>MOLECULE
mol_757_akc_jfitote2023105499
*****
 35 37 0 0 0
SMALL
GASTEIGER

@<TRIPOS>ATOM
      1 C           1.4578   -1.3100    0.0301 C.ar    1  UNL1        0.2049
      2 C           2.3611   -0.2340    0.0097 C.ar    1  UNL1        0.1657
      3 C           1.9022    1.0864   -0.0068 C.ar    1  UNL1        0.0259
      4 C           0.5340    1.3486    0.0018 C.ar    1  UNL1        0.1349
      5 C          -0.3877    0.2959    0.0212 C.ar    1  UNL1        0.1091
      6 C           0.0728   -1.0274    0.0227 C.ar    1  UNL1        0.1878
      7 O          -0.7930   -2.1088    0.0105 O.2     1  UNL1       -0.4507
      8 C          -1.8461    0.5328    0.0437 C.ar    1  UNL1        0.1967
      9 C          -2.7041   -0.6544   -0.0218 C.ar    1  UNL1        0.0288
     10 C          -2.1568   -1.8765   -0.0582 C.ar    1  UNL1        0.1395
     11 O          -2.3738    1.6351    0.1094 O.2     1  UNL1       -0.2869
     12 O           3.7153   -0.4326   -0.0001 O.3     1  UNL1       -0.5031
     13 O           0.1154    2.6477   -0.0206 O.3     1  UNL1       -0.5058
     14 O           1.7685   -2.6467    0.0568 O.3     1  UNL1       -0.4885
     15 C           3.1352   -3.0339    0.0695 C.3     1  UNL1        0.0791
     16 C          -3.0150   -3.0803   -0.1378 C.ar    1  UNL1        0.0211
     17 C          -4.2258   -3.0562   -0.8553 C.ar    1  UNL1       -0.0059
     18 C          -5.0522   -4.1706   -0.8734 C.ar    1  UNL1        0.1589
     19 C          -4.6900   -5.3368   -0.2104 C.ar    1  UNL1        0.1583
     20 C          -3.4850   -5.4023    0.4758 C.ar    1  UNL1       -0.0159
     21 C          -2.6497   -4.2752    0.5082 C.ar    1  UNL1       -0.0474
     22 O          -5.5591   -6.3904   -0.2644 O.3     1  UNL1       -0.5033
     23 O          -6.2388   -4.1019   -1.5459 O.3     1  UNL1       -0.5033
     24 H           2.6080    1.9108   -0.0260 H       1  UNL1        0.0692
     25 H          -3.7693   -0.4607   -0.0333 H       1  UNL1        0.0693
     26 H           4.1778    0.4203   -0.0571 H       1  UNL1        0.2923
     27 H           0.8649    3.2618   -0.0078 H       1  UNL1        0.2922
     28 H           3.6443   -2.7246   -0.8491 H       1  UNL1        0.0660
     29 H           3.6461   -2.6705    0.9672 H       1  UNL1        0.0660
     30 H           3.1704   -4.1272    0.1028 H       1  UNL1        0.0660
     31 H          -4.5449   -2.1732   -1.4018 H       1  UNL1        0.0662
     32 H          -3.1804   -6.3051    0.9958 H       1  UNL1        0.0655
     33 H          -1.7128   -4.3333    1.0607 H       1  UNL1        0.0626
     34 H          -5.1732   -7.1274    0.2398 H       1  UNL1        0.2923
     35 H          -6.6537   -4.9758   -1.4042 H       1  UNL1        0.2923
@<TRIPOS>BOND
     1     1     2   ar
     2     1     6   ar
     3     2     3   ar
     4     3     4   ar
     5     4     5   ar
     6     7     6   ar
     7     5     6   ar
     8     5     8   ar
     9     7    10   ar
    10     8     9   ar
    11     9    10   ar
    12     8    11    2
    13     2    12    1
    14     4    13    1
    15     1    14    1
    16    14    15    1
    17    10    16    1
    18    16    17   ar
    19    16    21   ar
    20    17    18   ar
    21    18    19   ar
    22    19    20   ar
    23    20    21   ar
    24    19    22    1
    25    18    23    1
    26     3    24    1
    27     9    25    1
    28    12    26    1
    29    13    27    1
    30    15    28    1
    31    15    29    1
    32    15    30    1
    33    17    31    1
    34    20    32    1
    35    21    33    1
    36    22    34    1
    37    23    35    1
