@<TRIPOS>MOLECULE
mol_758_akc_biom13040637
*****
 49 52 0 0 0
SMALL
GASTEIGER

@<TRIPOS>ATOM
      1 C          -1.0565    0.3218   -0.0050 C.ar    1  UNL1        0.0719
      2 C          -1.1783    1.2956   -0.9851 C.ar    1  UNL1       -0.0357
      3 C          -0.3542    2.4247   -1.0274 C.ar    1  UNL1       -0.0597
      4 C           0.6283    2.5964   -0.0585 C.ar    1  UNL1       -0.0611
      5 C           0.7741    1.6376    0.9411 C.ar    1  UNL1       -0.0523
      6 C          -0.0609    0.4960    0.9843 C.ar    1  UNL1        0.0033
      7 C           0.0455   -0.5001    1.9725 C.ar    1  UNL1       -0.0393
      8 C          -0.8225   -1.5984    1.9170 C.ar    1  UNL1       -0.0322
      9 C          -1.7932   -1.6957    0.9180 C.ar    1  UNL1        0.0720
     10 N          -1.8922   -0.7371   -0.0361 N.ar    1  UNL1       -0.2467
     11 C           1.0603   -0.4298    3.0821 C.3     1  UNL1       -0.0390
     12 C          -2.7729   -2.8234    0.8384 C.ar    1  UNL1        0.0038
     13 C          -3.6421   -2.9894   -0.2733 C.ar    1  UNL1       -0.0108
     14 C          -2.8778   -3.7796    1.8716 C.ar    1  UNL1       -0.0523
     15 C          -3.7772   -4.8429    1.8112 C.ar    1  UNL1       -0.0577
     16 C          -4.6070   -4.9755    0.7098 C.ar    1  UNL1       -0.0199
     17 C          -4.5527   -4.0527   -0.3336 C.ar    1  UNL1        0.1212
     18 O          -5.3981   -4.3753   -1.3541 O.3     1  UNL1       -0.4902
     19 C          -5.7440   -3.4199   -2.3445 C.3     1  UNL1        0.1075
     20 C          -5.0635   -3.7270   -3.6792 C.3     1  UNL1        0.0605
     21 N          -5.1530   -5.0927   -4.1840 N.ar    1  UNL1       -0.3060
     22 C          -4.1147   -6.0171   -4.1429 C.ar    1  UNL1        0.1083
     23 C          -6.0687   -5.6108   -5.0709 C.ar    1  UNL1        0.2157
     24 C          -5.4610   -6.6787   -5.6796 C.ar    1  UNL1        0.0769
     25 N          -4.2531   -6.9252   -5.0921 N.ar    1  UNL1       -0.2385
     26 N          -7.3793   -5.1204   -5.3016 N.pl3   1  UNL1        0.0750
     27 O          -7.8466   -4.3283   -4.4770 O.2     1  UNL1       -0.1246
     28 O          -7.9635   -5.5465   -6.3042 O.2     1  UNL1       -0.1246
     29 C          -2.9845   -5.9896   -3.1789 C.3     1  UNL1       -0.0062
     30 H          -1.9426    1.1764   -1.7548 H       1  UNL1        0.0639
     31 H          -0.4780    3.1678   -1.8098 H       1  UNL1        0.0618
     32 H           1.2714    3.4700   -0.0757 H       1  UNL1        0.0618
     33 H           1.5481    1.7909    1.6890 H       1  UNL1        0.0624
     34 H          -0.7186   -2.3673    2.6732 H       1  UNL1        0.0642
     35 H           2.0745   -0.4942    2.6751 H       1  UNL1        0.0278
     36 H           0.9477    0.5025    3.6451 H       1  UNL1        0.0278
     37 H           0.9363   -1.2514    3.7957 H       1  UNL1        0.0278
     38 H          -3.5684   -2.2779   -1.0912 H       1  UNL1        0.0661
     39 H          -2.2620   -3.7230    2.7636 H       1  UNL1        0.0624
     40 H          -3.8271   -5.5653    2.6209 H       1  UNL1        0.0619
     41 H          -5.3042   -5.8085    0.6586 H       1  UNL1        0.0654
     42 H          -6.8308   -3.4743   -2.4508 H       1  UNL1        0.0714
     43 H          -5.5372   -2.3880   -2.0383 H       1  UNL1        0.0714
     44 H          -5.4615   -3.0684   -4.4604 H       1  UNL1        0.0526
     45 H          -3.9958   -3.4938   -3.6003 H       1  UNL1        0.0526
     46 H          -5.8348   -7.3001   -6.4837 H       1  UNL1        0.0869
     47 H          -2.6497   -7.0129   -2.9766 H       1  UNL1        0.0307
     48 H          -2.1409   -5.4255   -3.5839 H       1  UNL1        0.0307
     49 H          -3.2717   -5.5570   -2.2224 H       1  UNL1        0.0307
@<TRIPOS>BOND
     1     1     2   ar
     2     1     6   ar
     3     1    10   ar
     4     2     3   ar
     5     3     4   ar
     6     4     5   ar
     7     5     6   ar
     8     6     7   ar
     9     7     8   ar
    10     8     9   ar
    11     9    10   ar
    12     7    11    1
    13     9    12    1
    14    13    12   ar
    15    12    14   ar
    16    13    17   ar
    17    14    15   ar
    18    15    16   ar
    19    16    17   ar
    20    18    19    1
    21    19    20    1
    22    20    21    1
    23    22    21   ar
    24    21    23   ar
    25    22    25   ar
    26    23    24   ar
    27    24    25   ar
    28    23    26    1
    29    26    27    2
    30    26    28    2
    31    22    29    1
    32    17    18    1
    33     2    30    1
    34     3    31    1
    35     4    32    1
    36     5    33    1
    37     8    34    1
    38    11    35    1
    39    11    36    1
    40    11    37    1
    41    13    38    1
    42    14    39    1
    43    15    40    1
    44    16    41    1
    45    19    42    1
    46    19    43    1
    47    20    44    1
    48    20    45    1
    49    24    46    1
    50    29    47    1
    51    29    48    1
    52    29    49    1
