@<TRIPOS>MOLECULE
mol_759_akc_biom13040637
*****
 49 52 0 0 0
SMALL
GASTEIGER

@<TRIPOS>ATOM
      1 C          -0.8708    0.2112   -0.7055 C.ar    1  UNL1        0.0719
      2 C          -0.8457    0.8648   -1.9302 C.ar    1  UNL1       -0.0357
      3 C          -0.0916    2.0211   -2.1336 C.ar    1  UNL1       -0.0597
      4 C           0.6667    2.5357   -1.0923 C.ar    1  UNL1       -0.0611
      5 C           0.6636    1.8920    0.1457 C.ar    1  UNL1       -0.0523
      6 C          -0.1071    0.7251    0.3618 C.ar    1  UNL1        0.0033
      7 C          -0.1818    0.0413    1.5991 C.ar    1  UNL1       -0.0393
      8 C          -1.0034   -1.0894    1.7037 C.ar    1  UNL1       -0.0322
      9 C          -1.7343   -1.5173    0.5991 C.ar    1  UNL1        0.0719
     10 N          -1.6473   -0.8742   -0.5901 N.ar    1  UNL1       -0.2467
     11 C           0.5680    0.5154    2.8145 C.3     1  UNL1       -0.0390
     12 C          -2.7421   -2.6011    0.6539 C.ar    1  UNL1        0.0006
     13 C          -3.8398   -2.5725   -0.2243 C.ar    1  UNL1       -0.0491
     14 C          -2.6997   -3.6590    1.5798 C.ar    1  UNL1       -0.0491
     15 C          -3.7467   -4.5942    1.6781 C.ar    1  UNL1       -0.0193
     16 C          -4.8635   -4.4823    0.8544 C.ar    1  UNL1        0.1206
     17 C          -4.8816   -3.4952   -0.1261 C.ar    1  UNL1       -0.0193
     18 O          -6.0052   -5.2226    0.9035 O.3     1  UNL1       -0.4902
     19 C          -6.2126   -6.1484    1.9650 C.3     1  UNL1        0.1075
     20 C          -6.6367   -5.4911    3.2860 C.3     1  UNL1        0.0605
     21 N          -7.8336   -4.6617    3.2426 N.ar    1  UNL1       -0.3060
     22 C          -7.8548   -3.2783    3.4046 C.ar    1  UNL1        0.1083
     23 C          -9.1536   -5.0580    3.2239 C.ar    1  UNL1        0.2157
     24 C          -9.9055   -3.9181    3.3617 C.ar    1  UNL1        0.0769
     25 N          -9.0936   -2.8278    3.4734 N.ar    1  UNL1       -0.2385
     26 N          -9.6454   -6.3874    3.1170 N.pl3   1  UNL1        0.0750
     27 O          -8.8231   -7.3122    3.1278 O.2     1  UNL1       -0.1246
     28 O         -10.8719   -6.5209    3.0362 O.2     1  UNL1       -0.1246
     29 C          -6.6623   -2.3994    3.5500 C.3     1  UNL1       -0.0062
     30 H          -1.4435    0.4674   -2.7473 H       1  UNL1        0.0639
     31 H          -0.1054    2.5140   -3.1018 H       1  UNL1        0.0618
     32 H           1.2551    3.4377   -1.2385 H       1  UNL1        0.0618
     33 H           1.2623    2.3186    0.9459 H       1  UNL1        0.0624
     34 H          -1.1051   -1.5936    2.6574 H       1  UNL1        0.0642
     35 H           1.6472    0.4688    2.6381 H       1  UNL1        0.0278
     36 H           0.2799    1.5420    3.0630 H       1  UNL1        0.0278
     37 H           0.3482   -0.1035    3.6911 H       1  UNL1        0.0278
     38 H          -3.9104   -1.7942   -0.9837 H       1  UNL1        0.0625
     39 H          -1.8488   -3.7704    2.2484 H       1  UNL1        0.0625
     40 H          -3.6566   -5.3811    2.4188 H       1  UNL1        0.0654
     41 H          -5.7281   -3.4174   -0.8044 H       1  UNL1        0.0654
     42 H          -6.9962   -6.8222    1.6082 H       1  UNL1        0.0714
     43 H          -5.3308   -6.7837    2.1101 H       1  UNL1        0.0714
     44 H          -6.8035   -6.2554    4.0529 H       1  UNL1        0.0526
     45 H          -5.8209   -4.8743    3.6706 H       1  UNL1        0.0526
     46 H         -10.9837   -3.8252    3.4073 H       1  UNL1        0.0869
     47 H          -6.8668   -1.4194    3.1059 H       1  UNL1        0.0307
     48 H          -6.4425   -2.2471    4.6117 H       1  UNL1        0.0307
     49 H          -5.7725   -2.7962    3.0624 H       1  UNL1        0.0307
@<TRIPOS>BOND
     1     1     2   ar
     2     1     6   ar
     3     1    10   ar
     4     2     3   ar
     5     3     4   ar
     6     4     5   ar
     7     5     6   ar
     8     6     7   ar
     9     7     8   ar
    10     8     9   ar
    11     9    10   ar
    12     7    11    1
    13     9    12    1
    14    13    12   ar
    15    12    14   ar
    16    13    17   ar
    17    14    15   ar
    18    15    16   ar
    19    16    17   ar
    20    18    19    1
    21    19    20    1
    22    20    21    1
    23    22    21   ar
    24    21    23   ar
    25    22    25   ar
    26    23    24   ar
    27    24    25   ar
    28    23    26    1
    29    26    27    2
    30    26    28    2
    31    22    29    1
    32    16    18    1
    33     2    30    1
    34     3    31    1
    35     4    32    1
    36     5    33    1
    37     8    34    1
    38    11    35    1
    39    11    36    1
    40    11    37    1
    41    13    38    1
    42    14    39    1
    43    15    40    1
    44    17    41    1
    45    19    42    1
    46    19    43    1
    47    20    44    1
    48    20    45    1
    49    24    46    1
    50    29    47    1
    51    29    48    1
    52    29    49    1
