@<TRIPOS>MOLECULE
mol_75_akc_1573406414666180226163222
>74.sdf
 44 48 0 0 0
SMALL
GASTEIGER

@<TRIPOS>ATOM
      1 C           1.0240    0.0183    0.0195 C.3     1  UNL1       -0.0396
      2 C           2.5197   -0.0827   -0.0076 C.ar    1  UNL1       -0.0484
      3 C           3.3038    1.0787   -0.0161 C.ar    1  UNL1       -0.0328
      4 C           4.6950    1.0411   -0.0235 C.ar    1  UNL1        0.0725
      5 N           5.3262    2.2213   -0.0455 N.ar    1  UNL1       -0.2459
      6 C           6.6758    2.2475   -0.0386 C.ar    1  UNL1        0.0839
      7 C           7.4310    1.0752    0.0338 C.ar    1  UNL1        0.0598
      8 C           8.8918    1.2956    0.1351 C.2     1  UNL1        0.2356
      9 O           9.6280    0.6486    0.8578 O.2     1  UNL1       -0.2831
     10 C           9.4304    2.4796   -0.6318 C.2     1  UNL1        0.2336
     11 O          10.4296    2.3924   -1.3267 O.2     1  UNL1       -0.2832
     12 C           8.6556    3.7178   -0.4747 C.ar    1  UNL1        0.0347
     13 C           7.2987    3.5883   -0.1263 C.ar    1  UNL1        0.0120
     14 C           6.5874    4.7770    0.0994 C.ar    1  UNL1       -0.0519
     15 C           7.2086    6.0261   -0.0211 C.ar    1  UNL1       -0.0611
     16 C           8.5496    6.1172   -0.3947 C.ar    1  UNL1       -0.0610
     17 C           9.2794    4.9592   -0.6343 C.ar    1  UNL1       -0.0502
     18 C           6.8056   -0.1948    0.0607 C.ar    1  UNL1        0.0043
     19 C           7.6047   -1.4568    0.1792 C.ar    1  UNL1       -0.0164
     20 C           7.2761   -2.4435    1.1314 C.ar    1  UNL1       -0.0518
     21 C           8.0407   -3.6071    1.2922 C.ar    1  UNL1       -0.0309
     22 C           9.2066   -3.7718    0.5423 C.ar    1  UNL1        0.1262
     23 C           9.5696   -2.8146   -0.4068 C.ar    1  UNL1       -0.0309
     24 C           8.7510   -1.6935   -0.6091 C.ar    1  UNL1       -0.0518
     25 N          10.0619   -4.9426    0.7695 N.pl3   1  UNL1        0.0564
     26 O           9.6286   -5.8351    1.5131 O.2     1  UNL1       -0.1261
     27 O          11.1635   -4.9736    0.2030 O.2     1  UNL1       -0.1261
     28 C           5.3681   -0.2055   -0.0048 C.ar    1  UNL1        0.0088
     29 C           4.5573   -1.3682   -0.0642 C.ar    1  UNL1       -0.0517
     30 C           3.1603   -1.3113   -0.0422 C.ar    1  UNL1       -0.0581
     31 H           0.6971    0.5781    0.9019 H       1  UNL1        0.0278
     32 H           0.6631    0.5234   -0.8820 H       1  UNL1        0.0278
     33 H           0.5567   -0.9710    0.0616 H       1  UNL1        0.0278
     34 H           2.8150    2.0502   -0.0157 H       1  UNL1        0.0642
     35 H           5.5348    4.7401    0.3783 H       1  UNL1        0.0624
     36 H           6.6406    6.9337    0.1761 H       1  UNL1        0.0618
     37 H           9.0258    7.0904   -0.4909 H       1  UNL1        0.0618
     38 H          10.3277    5.0180   -0.9177 H       1  UNL1        0.0625
     39 H           6.4123   -2.3157    1.7845 H       1  UNL1        0.0624
     40 H           7.7287   -4.3519    2.0225 H       1  UNL1        0.0640
     41 H          10.4905   -2.9064   -0.9803 H       1  UNL1        0.0640
     42 H           9.0718   -0.9711   -1.3576 H       1  UNL1        0.0624
     43 H           5.0026   -2.3581   -0.1271 H       1  UNL1        0.0624
     44 H           2.5875   -2.2368   -0.0558 H       1  UNL1        0.0620
@<TRIPOS>BOND
     1     1    31    1
     2     1    32    1
     3     1    33    1
     4     2     1    1
     5     3     2   ar
     6     3    34    1
     7     4     3   ar
     8     5     4   ar
     9     6     5   ar
    10     7     6   ar
    11     8     7    1
    12     9     8    2
    13    10     8    1
    14    11    10    2
    15    12    10    1
    16    13    12   ar
    17    13     6    1
    18    14    13   ar
    19    14    35    1
    20    15    14   ar
    21    15    36    1
    22    16    15   ar
    23    16    37    1
    24    17    16   ar
    25    17    12   ar
    26    17    38    1
    27    18     7   ar
    28    19    18    1
    29    20    19   ar
    30    20    39    1
    31    21    20   ar
    32    21    40    1
    33    22    21   ar
    34    23    22   ar
    35    23    41    1
    36    24    23   ar
    37    24    19   ar
    38    24    42    1
    39    25    22    1
    40    26    25    2
    41    27    25    2
    42    28    18   ar
    43    28     4   ar
    44    29    28   ar
    45    29    43    1
    46    30    29   ar
    47    30     2   ar
    48    30    44    1
