@<TRIPOS>MOLECULE
mol_760_akc_2208_2360
*****
 52 55 0 0 0
SMALL
GASTEIGER

@<TRIPOS>ATOM
      1 F          -2.4870   -3.7813   -5.0904 F       1  UNL1       -0.2055
      2 C          -2.7042   -3.1136   -3.9517 C.ar    1  UNL1        0.1234
      3 C          -1.8672   -3.3255   -2.8652 C.ar    1  UNL1       -0.0258
      4 C          -2.0741   -2.6019   -1.6906 C.ar    1  UNL1       -0.0485
      5 C          -3.1141   -1.6605   -1.6073 C.ar    1  UNL1        0.0178
      6 C          -3.9739   -1.4851   -2.6990 C.ar    1  UNL1       -0.0485
      7 C          -3.7583   -2.2095   -3.8766 C.ar    1  UNL1       -0.0258
      8 C          -3.1775   -0.8167   -0.3776 C.2     1  UNL1        0.1666
      9 O          -2.3962   -1.0567    0.5496 O.2     1  UNL1       -0.2918
     10 C          -4.0115    0.4677   -0.3491 C.3     1  UNL1        0.0317
     11 C          -3.3935    1.5278   -1.2536 C.3     1  UNL1       -0.0025
     12 C          -1.9637    1.8882   -0.8601 C.3     1  UNL1       -0.0312
     13 N          -1.6303    1.5124    0.5662 N.4     1  UNL1        0.2365
     14 C          -0.3064    2.1536    0.9515 C.3     1  UNL1       -0.0132
     15 C           0.2484    1.7307    2.3213 C.3     1  UNL1        0.0710
     16 N           0.3664    0.2974    2.5588 N.ar    1  UNL1       -0.2554
     17 C           1.2587   -0.4152    1.7803 C.ar    1  UNL1        0.3300
     18 O           1.8004    0.0604    0.7820 O.2     1  UNL1       -0.2465
     19 N           1.5166   -1.7053    2.1527 N.ar    1  UNL1       -0.3070
     20 C           0.9432   -2.3225    3.2620 C.ar    1  UNL1        0.0556
     21 C           1.2969   -3.6247    3.6063 C.ar    1  UNL1       -0.0375
     22 C           0.7135   -4.2268    4.7251 C.ar    1  UNL1       -0.0598
     23 C          -0.2196   -3.5290    5.4935 C.ar    1  UNL1       -0.0609
     24 C          -0.5713   -2.2235    5.1497 C.ar    1  UNL1       -0.0474
     25 C           0.0145   -1.6261    4.0328 C.ar    1  UNL1        0.0630
     26 C          -0.3049   -0.2371    3.6596 C.ar    1  UNL1        0.2644
     27 O          -1.1323    0.3947    4.3071 O.2     1  UNL1       -0.2668
     28 C          -2.7617    1.7341    1.5362 C.3     1  UNL1       -0.0312
     29 C          -4.0633    1.0618    1.0690 C.3     1  UNL1       -0.0025
     30 H          -1.0545   -4.0422   -2.9421 H       1  UNL1        0.0646
     31 H          -1.4015   -2.7675   -0.8499 H       1  UNL1        0.0625
     32 H          -4.8055   -0.7876   -2.6766 H       1  UNL1        0.0625
     33 H          -4.3995   -2.0702   -4.7436 H       1  UNL1        0.0646
     34 H          -5.0370    0.2286   -0.6534 H       1  UNL1        0.0385
     35 H          -3.4079    1.2257   -2.3063 H       1  UNL1        0.0324
     36 H          -4.0117    2.4349   -1.2067 H       1  UNL1        0.0324
     37 H          -1.2466    1.3554   -1.4949 H       1  UNL1        0.0815
     38 H          -1.8051    2.9666   -0.9746 H       1  UNL1        0.0815
     39 H          -1.4601    0.4855    0.6015 H       1  UNL1        0.2034
     40 H           0.3966    1.8962    0.1518 H       1  UNL1        0.0832
     41 H          -0.4571    3.2360    0.9285 H       1  UNL1        0.0832
     42 H           1.2569    2.1548    2.4126 H       1  UNL1        0.0547
     43 H          -0.3430    2.2106    3.1086 H       1  UNL1        0.0547
     44 H           2.1965   -2.2083    1.5938 H       1  UNL1        0.1704
     45 H           2.0258   -4.1847    3.0263 H       1  UNL1        0.0638
     46 H           0.9894   -5.2421    5.0037 H       1  UNL1        0.0618
     47 H          -0.6684   -4.0005    6.3669 H       1  UNL1        0.0618
     48 H          -1.2894   -1.6788    5.7587 H       1  UNL1        0.0626
     49 H          -2.8841    2.8139    1.6600 H       1  UNL1        0.0815
     50 H          -2.4665    1.3004    2.4915 H       1  UNL1        0.0815
     51 H          -4.8570    1.8206    1.1058 H       1  UNL1        0.0324
     52 H          -4.3626    0.2930    1.7927 H       1  UNL1        0.0324
@<TRIPOS>UNITY_ATOM_ATTR
13 1
charge 1
@<TRIPOS>BOND
     1     1     2    1
     2     2     3   ar
     3     3     4   ar
     4     4     5   ar
     5     5     6   ar
     6     6     7   ar
     7     2     7   ar
     8     5     8    1
     9     8     9    2
    10     8    10    1
    11    10    11    1
    12    11    12    1
    13    12    13    1
    14    13    14    1
    15    14    15    1
    16    15    16    1
    17    16    17   ar
    18    17    18    2
    19    17    19   ar
    20    19    20   ar
    21    20    21   ar
    22    21    22   ar
    23    22    23   ar
    24    23    24   ar
    25    24    25   ar
    26    20    25   ar
    27    25    26   ar
    28    16    26   ar
    29    26    27    2
    30    13    28    1
    31    28    29    1
    32    10    29    1
    33     3    30    1
    34     4    31    1
    35     6    32    1
    36     7    33    1
    37    10    34    1
    38    11    35    1
    39    11    36    1
    40    12    37    1
    41    12    38    1
    42    13    39    1
    43    14    40    1
    44    14    41    1
    45    15    42    1
    46    15    43    1
    47    19    44    1
    48    21    45    1
    49    22    46    1
    50    23    47    1
    51    24    48    1
    52    28    49    1
    53    28    50    1
    54    29    51    1
    55    29    52    1
