@<TRIPOS>MOLECULE
mol_762_akc_jrechem2023100943
*****
 49 53 0 0 0
SMALL
GASTEIGER

@<TRIPOS>ATOM
      1 C          -0.5079   -0.7001   -1.1344 C.ar    1  UNL1       -0.0092
      2 C           0.2294   -1.3239   -2.1742 C.ar    1  UNL1       -0.0534
      3 C           0.8987   -0.5806   -3.1511 C.ar    1  UNL1       -0.0611
      4 C           0.8487    0.8055   -3.1233 C.ar    1  UNL1       -0.0612
      5 C           0.1296    1.4492   -2.1190 C.ar    1  UNL1       -0.0540
      6 C          -0.5469    0.7187   -1.1282 C.ar    1  UNL1       -0.0173
      7 C          -1.2749    1.4013   -0.1406 C.ar    1  UNL1       -0.0540
      8 C          -1.9713    0.7127    0.8473 C.ar    1  UNL1       -0.0606
      9 C          -1.9536   -0.6765    0.8570 C.ar    1  UNL1       -0.0525
     10 C          -1.2378   -1.3819   -0.1165 C.ar    1  UNL1        0.0025
     11 C          -1.3442   -2.8621   -0.1001 C.2     1  UNL1        0.0577
     12 N          -2.3223   -3.4445    0.5198 N.2     1  UNL1       -0.1546
     13 N          -2.3356   -4.8121    0.3022 N.2     1  UNL1       -0.1235
     14 C          -3.5159   -5.3271    0.1653 C.ar    1  UNL1        0.1994
     15 C          -5.2521   -7.1787    0.0476 C.ar    1  UNL1        0.0036
     16 S          -3.5166   -7.1368    0.0595 S.2     1  UNL1       -0.0554
     17 N          -4.8547   -4.8800    0.1065 N.ar    1  UNL1       -0.2867
     18 C          -5.7830   -5.9452    0.0680 C.ar    1  UNL1        0.0628
     19 C          -7.2379   -5.7745   -0.0024 C.ar    1  UNL1       -0.0005
     20 C          -8.0106   -5.8244    1.1678 C.ar    1  UNL1       -0.0512
     21 C          -9.3869   -5.5923    1.1139 C.ar    1  UNL1       -0.0428
     22 C          -9.9979   -5.3436   -0.1136 C.ar    1  UNL1        0.0410
     23 C          -9.2480   -5.3383   -1.2887 C.ar    1  UNL1       -0.0428
     24 C          -7.8684   -5.5535   -1.2338 C.ar    1  UNL1       -0.0512
     25 C          -5.2249   -3.5129   -0.0853 C.ar    1  UNL1        0.0491
     26 C          -4.6046   -2.7207   -1.0662 C.ar    1  UNL1       -0.0378
     27 C          -4.9353   -1.3712   -1.2346 C.ar    1  UNL1       -0.0598
     28 C          -5.9408   -0.7984   -0.4632 C.ar    1  UNL1       -0.0616
     29 C          -6.6023   -1.5702    0.4853 C.ar    1  UNL1       -0.0598
     30 C          -6.2318   -2.9047    0.6842 C.ar    1  UNL1       -0.0378
     31 CL        -11.6881   -5.0291   -0.1767 Cl      1  UNL1       -0.0835
     32 H           0.2959   -2.4058   -2.2466 H       1  UNL1        0.0624
     33 H           1.4564   -1.0893   -3.9337 H       1  UNL1        0.0618
     34 H           1.3636    1.3874   -3.8835 H       1  UNL1        0.0618
     35 H           0.0972    2.5371   -2.1187 H       1  UNL1        0.0624
     36 H          -1.3121    2.4899   -0.1384 H       1  UNL1        0.0624
     37 H          -2.5389    1.2538    1.5989 H       1  UNL1        0.0618
     38 H          -2.5203   -1.2069    1.6200 H       1  UNL1        0.0624
     39 H          -0.6104   -3.4578   -0.6664 H       1  UNL1        0.0854
     40 H          -5.8046   -8.1077   -0.0001 H       1  UNL1        0.0715
     41 H          -7.5374   -6.0017    2.1319 H       1  UNL1        0.0625
     42 H          -9.9707   -5.5922    2.0306 H       1  UNL1        0.0632
     43 H          -9.7264   -5.1524   -2.2465 H       1  UNL1        0.0632
     44 H          -7.2868   -5.5274   -2.1530 H       1  UNL1        0.0625
     45 H          -3.8234   -3.1444   -1.6925 H       1  UNL1        0.0638
     46 H          -4.3938   -0.7679   -1.9586 H       1  UNL1        0.0618
     47 H          -6.2020    0.2480   -0.5951 H       1  UNL1        0.0618
     48 H          -7.3968   -1.1343    1.0853 H       1  UNL1        0.0618
     49 H          -6.7319   -3.4568    1.4727 H       1  UNL1        0.0638
@<TRIPOS>BOND
     1     1     2   ar
     2     1     6   ar
     3     1    10   ar
     4     2     3   ar
     5     3     4   ar
     6     4     5   ar
     7     5     6   ar
     8     6     7   ar
     9     7     8   ar
    10     8     9   ar
    11     9    10   ar
    12    10    11    1
    13    11    12    2
    14    12    13    1
    15    13    14    2
    16    16    14   ar
    17    14    17   ar
    18    15    16   ar
    19    15    18   ar
    20    17    18   ar
    21    18    19    1
    22    19    20   ar
    23    19    24   ar
    24    20    21   ar
    25    21    22   ar
    26    22    23   ar
    27    23    24   ar
    28    17    25    1
    29    25    26   ar
    30    25    30   ar
    31    26    27   ar
    32    27    28   ar
    33    28    29   ar
    34    29    30   ar
    35    22    31    1
    36     2    32    1
    37     3    33    1
    38     4    34    1
    39     5    35    1
    40     7    36    1
    41     8    37    1
    42     9    38    1
    43    11    39    1
    44    15    40    1
    45    20    41    1
    46    21    42    1
    47    23    43    1
    48    24    44    1
    49    26    45    1
    50    27    46    1
    51    28    47    1
    52    29    48    1
    53    30    49    1
