@<TRIPOS>MOLECULE
mol_763_akc_acsinfecdis3c00090
*****
 48 50 0 0 0
SMALL
GASTEIGER

@<TRIPOS>ATOM
      1 C           0.0865   -5.2902    0.8576 C.3     1  UNL1        0.0790
      2 O          -0.3186   -3.9388    1.0381 O.3     1  UNL1       -0.4913
      3 C           0.4687   -3.1385    1.8268 C.ar    1  UNL1        0.1658
      4 C           1.8196   -3.4202    2.0820 C.ar    1  UNL1       -0.0053
      5 C           2.6262   -2.5302    2.8026 C.ar    1  UNL1        0.0271
      6 C           2.0597   -1.3495    3.2930 C.ar    1  UNL1       -0.0053
      7 C           0.7224   -1.0387    3.0346 C.ar    1  UNL1        0.1658
      8 O           0.1259    0.1128    3.4918 O.3     1  UNL1       -0.4913
      9 C           0.9747    1.2521    3.5853 C.3     1  UNL1        0.0790
     10 C          -0.0865   -1.9406    2.3165 C.ar    1  UNL1        0.2035
     11 O          -1.3740   -1.5083    2.0900 O.3     1  UNL1       -0.4885
     12 C          -2.3875   -2.5036    2.0535 C.3     1  UNL1        0.0791
     13 C           4.0474   -2.7790    2.9847 C.ar    1  UNL1        0.1680
     14 C           5.1358   -1.9770    3.2249 C.ar    1  UNL1        0.0130
     15 C           6.2479   -2.8559    3.2559 C.ar    1  UNL1        0.1140
     16 N           5.8416   -4.1223    3.0716 N.ar    1  UNL1       -0.0776
     17 O           4.4722   -4.0691    2.8937 O.2     1  UNL1       -0.3541
     18 C           7.6514   -2.5089    3.4672 C.ar    1  UNL1        0.0073
     19 C           8.5427   -3.4508    4.0046 C.ar    1  UNL1       -0.0070
     20 C           9.8895   -3.1317    4.2558 C.ar    1  UNL1        0.1621
     21 O          10.7764   -4.0323    4.7826 O.3     1  UNL1       -0.4914
     22 C          10.3043   -5.3353    5.1042 C.3     1  UNL1        0.0790
     23 C          10.3469   -1.8370    3.9562 C.ar    1  UNL1        0.1615
     24 O          11.5975   -1.3028    4.1257 O.3     1  UNL1       -0.4915
     25 C          12.5981   -2.0849    4.7589 C.3     1  UNL1        0.0790
     26 C           9.4579   -0.9062    3.3993 C.ar    1  UNL1       -0.0157
     27 C           8.1249   -1.2330    3.1558 C.ar    1  UNL1       -0.0488
     28 H          -0.7062   -5.8017    0.3032 H       1  UNL1        0.0660
     29 H           0.2049   -5.7980    1.8204 H       1  UNL1        0.0660
     30 H           0.9986   -5.3571    0.2567 H       1  UNL1        0.0660
     31 H           2.2804   -4.3181    1.6793 H       1  UNL1        0.0662
     32 H           2.6686   -0.6744    3.8854 H       1  UNL1        0.0662
     33 H           1.5766    1.2105    4.4985 H       1  UNL1        0.0660
     34 H           1.6129    1.3587    2.7010 H       1  UNL1        0.0660
     35 H           0.3385    2.1407    3.6461 H       1  UNL1        0.0660
     36 H          -2.5084   -2.8859    1.0357 H       1  UNL1        0.0660
     37 H          -2.2073   -3.3142    2.7679 H       1  UNL1        0.0660
     38 H          -3.3313   -2.0246    2.3319 H       1  UNL1        0.0660
     39 H           5.1334   -0.9047    3.3468 H       1  UNL1        0.0678
     40 H           8.1550   -4.4391    4.2295 H       1  UNL1        0.0662
     41 H           9.5272   -5.2947    5.8765 H       1  UNL1        0.0660
     42 H           9.9529   -5.8607    4.2096 H       1  UNL1        0.0660
     43 H          11.1468   -5.9033    5.5120 H       1  UNL1        0.0660
     44 H          12.2980   -2.3837    5.7680 H       1  UNL1        0.0660
     45 H          12.8775   -2.9422    4.1383 H       1  UNL1        0.0660
     46 H          13.4890   -1.4573    4.8619 H       1  UNL1        0.0660
     47 H           9.8180    0.0925    3.1568 H       1  UNL1        0.0655
     48 H           7.4789   -0.4793    2.7150 H       1  UNL1        0.0625
@<TRIPOS>BOND
     1     1     2    1
     2     2     3    1
     3     3     4   ar
     4     4     5   ar
     5     5     6   ar
     6     6     7   ar
     7     7     8    1
     8     8     9    1
     9     7    10   ar
    10     3    10   ar
    11    10    11    1
    12    11    12    1
    13     5    13    1
    14    13    14   ar
    15    14    15   ar
    16    15    16   ar
    17    16    17   ar
    18    13    17   ar
    19    15    18    1
    20    18    19   ar
    21    19    20   ar
    22    20    21    1
    23    21    22    1
    24    20    23   ar
    25    23    24    1
    26    24    25    1
    27    23    26   ar
    28    26    27   ar
    29    18    27   ar
    30     1    28    1
    31     1    29    1
    32     1    30    1
    33     4    31    1
    34     6    32    1
    35     9    33    1
    36     9    34    1
    37     9    35    1
    38    12    36    1
    39    12    37    1
    40    12    38    1
    41    14    39    1
    42    19    40    1
    43    22    41    1
    44    22    42    1
    45    22    43    1
    46    25    44    1
    47    25    45    1
    48    25    46    1
    49    26    47    1
    50    27    48    1
