@<TRIPOS>MOLECULE
mol_764_akc_jejmech2023115451
*****
 45 48 0 0 0
SMALL
GASTEIGER

@<TRIPOS>ATOM
      1 O          -0.2161    0.7783    0.8619 O.2     1  UNL1       -0.3572
      2 N          -0.1916   -0.5584    1.1873 N.ar    1  UNL1       -0.0780
      3 C          -0.2647   -1.2366    0.0308 C.ar    1  UNL1        0.1136
      4 C          -0.3291   -0.3301   -1.0609 C.ar    1  UNL1        0.0100
      5 C          -0.2951    0.9186   -0.4868 C.ar    1  UNL1        0.1576
      6 C          -0.2785   -2.6976    0.0086 C.ar    1  UNL1        0.0038
      7 C          -0.9083   -3.4041   -1.0206 C.ar    1  UNL1       -0.0507
      8 C          -0.9662   -4.8069   -0.9967 C.ar    1  UNL1       -0.0400
      9 C          -0.4036   -5.5417    0.0549 C.ar    1  UNL1        0.0300
     10 C           0.2633   -4.8207    1.0575 C.ar    1  UNL1       -0.0400
     11 C           0.3218   -3.4236    1.0412 C.ar    1  UNL1       -0.0507
     12 C          -1.2134   -7.4201    1.3303 C.3     1  UNL1        0.0524
     13 C          -0.8786   -8.9012    1.5948 C.3     1  UNL1       -0.0175
     14 N          -1.0957   -9.7298    0.3493 N.4     1  UNL1        0.2292
     15 C          -0.3475   -9.1869   -0.8476 C.3     1  UNL1       -0.0175
     16 C          -0.7131   -7.7081   -1.0859 C.3     1  UNL1        0.0524
     17 N          -0.4623   -6.9395    0.1467 N.pl3   1  UNL1       -0.3198
     18 C          -0.3007    2.3077   -0.9931 C.3     1  UNL1        0.0908
     19 N          -1.6616    2.7973   -1.1543 N.ar    1  UNL1       -0.2645
     20 C          -2.4808    2.7838   -2.2552 C.ar    1  UNL1        0.4506
     21 N          -3.6333    3.3851   -2.0171 N.ar    1  UNL1       -0.1715
     22 C          -3.5642    3.7988   -0.7147 C.ar    1  UNL1        0.0522
     23 C          -2.3594    3.4450   -0.1559 C.ar    1  UNL1        0.0309
     24 N          -2.1748    2.1761   -3.5260 N.pl3   1  UNL1        0.1195
     25 O          -1.1111    1.5454   -3.6175 O.2     1  UNL1        0.0446
     26 O          -3.0008    2.3041   -4.4351 O.co2   1  UNL1       -0.5735
     27 H          -0.3781   -0.5592   -2.1152 H       1  UNL1        0.0675
     28 H          -1.3890   -2.8784   -1.8433 H       1  UNL1        0.0625
     29 H          -1.4941   -5.2951   -1.8105 H       1  UNL1        0.0636
     30 H           0.7664   -5.3424    1.8681 H       1  UNL1        0.0636
     31 H           0.8444   -2.9085    1.8455 H       1  UNL1        0.0625
     32 H          -2.2910   -7.3104    1.1489 H       1  UNL1        0.0516
     33 H          -0.9731   -6.8540    2.2373 H       1  UNL1        0.0516
     34 H           0.1725   -9.0280    1.8746 H       1  UNL1        0.0829
     35 H          -1.5193   -9.3250    2.3735 H       1  UNL1        0.0829
     36 H          -0.7939  -10.6955    0.5286 H       1  UNL1        0.2015
     37 H          -2.1005   -9.7657    0.1361 H       1  UNL1        0.2015
     38 H          -0.6201   -9.8121   -1.7025 H       1  UNL1        0.0829
     39 H           0.7188   -9.3056   -0.6287 H       1  UNL1        0.0829
     40 H          -1.7690   -7.6330   -1.3742 H       1  UNL1        0.0516
     41 H          -0.0981   -7.3339   -1.9129 H       1  UNL1        0.0516
     42 H           0.1962    2.9736   -0.2766 H       1  UNL1        0.0576
     43 H           0.2463    2.4180   -1.9311 H       1  UNL1        0.0576
     44 H          -4.3855    4.3284   -0.2462 H       1  UNL1        0.0847
     45 H          -1.9524    3.5929    0.8364 H       1  UNL1        0.0827
@<TRIPOS>UNITY_ATOM_ATTR
14 1
charge 1
24 1
charge 1
26 1
charge -1
@<TRIPOS>BOND
     1     1     2   ar
     2     2     3   ar
     3     3     4   ar
     4     4     5   ar
     5     1     5   ar
     6     6     7   ar
     7     7     8   ar
     8     8     9   ar
     9     9    10   ar
    10    10    11   ar
    11     6    11   ar
    12    12    13    1
    13    13    14    1
    14    14    15    1
    15    15    16    1
    16    16    17    1
    17    12    17    1
    18     9    17    1
    19     3     6    1
    20    19    20   ar
    21    20    21   ar
    22    21    22   ar
    23    22    23   ar
    24    19    23   ar
    25    24    25    2
    26    24    26    1
    27    20    24    1
    28    18    19    1
    29     5    18    1
    30     4    27    1
    31     7    28    1
    32     8    29    1
    33    10    30    1
    34    11    31    1
    35    12    32    1
    36    12    33    1
    37    13    34    1
    38    13    35    1
    39    14    36    1
    40    14    37    1
    41    15    38    1
    42    15    39    1
    43    16    40    1
    44    16    41    1
    45    18    42    1
    46    18    43    1
    47    22    44    1
    48    23    45    1
