@<TRIPOS>MOLECULE
mol_765_akc_jejmech2023115451
*****
 51 54 0 0 0
SMALL
GASTEIGER

@<TRIPOS>ATOM
      1 O          -0.9254    0.8597   -0.0509 O.2     1  UNL1       -0.3572
      2 N          -1.3069   -0.4392   -0.3092 N.ar    1  UNL1       -0.0780
      3 C          -0.3591   -1.2278    0.2215 C.ar    1  UNL1        0.1136
      4 C           0.6617   -0.4351    0.8088 C.ar    1  UNL1        0.0100
      5 C           0.2557    0.8630    0.6205 C.ar    1  UNL1        0.1576
      6 C           0.7961    2.1878    0.9907 C.3     1  UNL1        0.0908
      7 N           1.6680    2.7026   -0.0524 N.ar    1  UNL1       -0.2645
      8 C           3.0226    2.5655   -0.2224 C.ar    1  UNL1        0.4506
      9 N           3.4566    3.2294   -1.2772 N.ar    1  UNL1       -0.1715
     10 C           2.3442    3.8167   -1.8172 C.ar    1  UNL1        0.0522
     11 C           1.2258    3.5059   -1.0825 C.ar    1  UNL1        0.0309
     12 N           3.9017    1.7854    0.6139 N.pl3   1  UNL1        0.1195
     13 O           3.3877    1.1315    1.5341 O.2     1  UNL1        0.0446
     14 O           5.1094    1.8038    0.3527 O.co2   1  UNL1       -0.5735
     15 C          -0.4335   -2.6842    0.1462 C.ar    1  UNL1        0.0038
     16 C          -1.1337   -3.3048   -0.8932 C.ar    1  UNL1       -0.0507
     17 C          -1.1461   -4.6979   -1.0110 C.ar    1  UNL1       -0.0400
     18 C          -0.4471   -5.5064   -0.1056 C.ar    1  UNL1        0.0299
     19 C           0.1933   -4.8826    0.9738 C.ar    1  UNL1       -0.0400
     20 C           0.2082   -3.4882    1.0957 C.ar    1  UNL1       -0.0507
     21 C          -0.2680   -7.3610   -1.6514 C.3     1  UNL1        0.0172
     22 N          -0.3218   -6.9027   -0.2539 N.pl3   1  UNL1       -0.3246
     23 C          -1.2662   -7.6410    0.6083 C.3     1  UNL1        0.0523
     24 C          -0.6146   -8.8597    1.2979 C.3     1  UNL1       -0.0161
     25 N           0.5599   -9.4934    0.5723 N.4     1  UNL1        0.2342
     26 C           0.3481   -9.7297   -0.9039 C.3     1  UNL1       -0.0307
     27 C           0.6806   -8.5402   -1.7897 C.3     1  UNL1        0.0032
     28 C           1.8760   -8.8474    0.9272 C.3     1  UNL1       -0.0430
     29 H           1.5656   -0.7694    1.2964 H       1  UNL1        0.0675
     30 H          -0.0215    2.9083    1.1160 H       1  UNL1        0.0576
     31 H           1.3304    2.1734    1.9432 H       1  UNL1        0.0576
     32 H           2.4060    4.4310   -2.7078 H       1  UNL1        0.0847
     33 H           0.1842    3.7768   -1.2031 H       1  UNL1        0.0827
     34 H          -1.6555   -2.7082   -1.6400 H       1  UNL1        0.0625
     35 H          -1.6994   -5.1293   -1.8407 H       1  UNL1        0.0636
     36 H           0.7286   -5.4750    1.7100 H       1  UNL1        0.0636
     37 H           0.7381   -3.0439    1.9351 H       1  UNL1        0.0625
     38 H          -1.2678   -7.6208   -2.0221 H       1  UNL1        0.0465
     39 H           0.1269   -6.5782   -2.3131 H       1  UNL1        0.0465
     40 H          -1.6956   -7.0084    1.3968 H       1  UNL1        0.0516
     41 H          -2.1235   -7.9836    0.0145 H       1  UNL1        0.0516
     42 H          -0.2579   -8.5890    2.2978 H       1  UNL1        0.0830
     43 H          -1.3623   -9.6529    1.4265 H       1  UNL1        0.0830
     44 H           0.6316  -10.4350    0.9762 H       1  UNL1        0.2031
     45 H           1.0048  -10.5662   -1.1654 H       1  UNL1        0.0815
     46 H          -0.6862  -10.0665   -1.0390 H       1  UNL1        0.0815
     47 H           0.6488   -8.8725   -2.8348 H       1  UNL1        0.0332
     48 H           1.7112   -8.2072   -1.6197 H       1  UNL1        0.0332
     49 H           2.0337   -8.9858    2.0004 H       1  UNL1        0.0777
     50 H           2.6666   -9.3596    0.3733 H       1  UNL1        0.0777
     51 H           1.8535   -7.7843    0.6856 H       1  UNL1        0.0777
@<TRIPOS>UNITY_ATOM_ATTR
12 1
charge 1
14 1
charge -1
25 1
charge 1
@<TRIPOS>BOND
     1     1     2   ar
     2     2     3   ar
     3     3     4   ar
     4     4     5   ar
     5     1     5   ar
     6     7     8   ar
     7     8     9   ar
     8     9    10   ar
     9    10    11   ar
    10     7    11   ar
    11    12    13    2
    12    12    14    1
    13     8    12    1
    14     6     7    1
    15     5     6    1
    16    15    16   ar
    17    16    17   ar
    18    17    18   ar
    19    18    19   ar
    20    19    20   ar
    21    15    20   ar
    22    21    22    1
    23    22    23    1
    24    23    24    1
    25    24    25    1
    26    25    26    1
    27    26    27    1
    28    21    27    1
    29    25    28    1
    30    18    22    1
    31     3    15    1
    32     4    29    1
    33     6    30    1
    34     6    31    1
    35    10    32    1
    36    11    33    1
    37    16    34    1
    38    17    35    1
    39    19    36    1
    40    20    37    1
    41    21    38    1
    42    21    39    1
    43    23    40    1
    44    23    41    1
    45    24    42    1
    46    24    43    1
    47    25    44    1
    48    26    45    1
    49    26    46    1
    50    27    47    1
    51    27    48    1
    52    28    49    1
    53    28    50    1
    54    28    51    1
