@<TRIPOS>MOLECULE
mol_766_akc_jejmech2023115451
3-(2-Chloro-3,5-dimethoxyphenyl)-5-((2-nitro-1H-imidazole-1-yl)methyl)isoxazole
 38 40 0 0 0
SMALL
GASTEIGER

@<TRIPOS>ATOM
      1 O           0.5256    0.8816    0.0043 O.2     1  UNL1       -0.3572
      2 N           0.8952   -0.4433    0.0043 N.ar    1  UNL1       -0.0779
      3 C          -0.2327   -1.1629    0.1066 C.ar    1  UNL1        0.1153
      4 C          -1.3545   -0.2862    0.1632 C.ar    1  UNL1        0.0100
      5 C          -0.8270    0.9780    0.0629 C.ar    1  UNL1        0.1576
      6 C          -1.3864    2.3403   -0.0514 C.3     1  UNL1        0.0908
      7 N          -1.6946    2.8954    1.2552 N.ar    1  UNL1       -0.2645
      8 C          -2.8593    2.8587    1.9793 C.ar    1  UNL1        0.4506
      9 N          -2.7621    3.5461    3.1019 N.ar    1  UNL1       -0.1715
     10 C          -1.4855    4.0399    3.1157 C.ar    1  UNL1        0.0522
     11 C          -0.8047    3.6554    1.9846 C.ar    1  UNL1        0.0309
     12 N          -4.0637    2.1608    1.6008 N.pl3   1  UNL1        0.1195
     13 O          -4.0394    1.4959    0.5579 O.2     1  UNL1        0.0446
     14 O          -5.0448    2.2696    2.3474 O.co2   1  UNL1       -0.5735
     15 C          -0.2445   -2.6309    0.0207 C.ar    1  UNL1        0.0290
     16 C           0.7450   -3.4685    0.6001 C.ar    1  UNL1        0.0920
     17 C           0.7044   -4.8561    0.3542 C.ar    1  UNL1        0.1424
     18 C          -0.3516   -5.3797   -0.4148 C.ar    1  UNL1        0.0232
     19 C          -1.3588   -4.5757   -0.9390 C.ar    1  UNL1        0.1243
     20 C          -1.2943   -3.2061   -0.7280 C.ar    1  UNL1       -0.0090
     21 O           1.5342   -5.8661    0.7621 O.3     1  UNL1       -0.4935
     22 C           2.7678   -5.6024    1.4051 C.3     1  UNL1        0.0789
     23 O          -2.3267   -5.2352   -1.6420 O.3     1  UNL1       -0.4950
     24 C          -3.4150   -4.4604   -2.1336 C.3     1  UNL1        0.0788
     25 CL          1.9083   -2.7613    1.6816 Cl      1  UNL1       -0.0791
     26 H          -2.4011   -0.5523    0.2088 H       1  UNL1        0.0675
     27 H          -0.6559    3.0111   -0.5222 H       1  UNL1        0.0576
     28 H          -2.2726    2.3783   -0.6883 H       1  UNL1        0.0576
     29 H          -1.1253    4.6485    3.9347 H       1  UNL1        0.0847
     30 H           0.2060    3.8501    1.6489 H       1  UNL1        0.0827
     31 H          -0.3890   -6.4530   -0.6007 H       1  UNL1        0.0691
     32 H          -2.0490   -2.5580   -1.1619 H       1  UNL1        0.0661
     33 H           3.3958   -4.9207    0.8241 H       1  UNL1        0.0660
     34 H           2.6026   -5.2575    2.4293 H       1  UNL1        0.0660
     35 H           3.3099   -6.5509    1.4788 H       1  UNL1        0.0660
     36 H          -3.9640   -3.9851   -1.3134 H       1  UNL1        0.0660
     37 H          -3.0722   -3.7173   -2.8612 H       1  UNL1        0.0660
     38 H          -4.1039   -5.1362   -2.6491 H       1  UNL1        0.0660
@<TRIPOS>UNITY_ATOM_ATTR
12 1
charge 1
14 1
charge -1
@<TRIPOS>BOND
     1     1     2   ar
     2     2     3   ar
     3     3     4   ar
     4     4     5   ar
     5     1     5   ar
     6     7     8   ar
     7     8     9   ar
     8     9    10   ar
     9    10    11   ar
    10     7    11   ar
    11    12    13    2
    12    12    14    1
    13     8    12    1
    14     6     7    1
    15     5     6    1
    16    15    16   ar
    17    16    17   ar
    18    17    18   ar
    19    18    19   ar
    20    19    20   ar
    21    15    20   ar
    22    21    22    1
    23    17    21    1
    24    23    24    1
    25    19    23    1
    26    16    25    1
    27     3    15    1
    28     4    26    1
    29     6    27    1
    30     6    28    1
    31    10    29    1
    32    11    30    1
    33    18    31    1
    34    20    32    1
    35    22    33    1
    36    22    34    1
    37    22    35    1
    38    24    36    1
    39    24    37    1
    40    24    38    1
