@<TRIPOS>MOLECULE
mol_767_akc_jbioorg2023106593
(9H-fluoren-9-yl)methyl-4-(4-(trifluoromethyl)phenyl)piperazine-1-carboxylate
 56 60 0 0 0
SMALL
GASTEIGER

@<TRIPOS>ATOM
      1 C           0.5033   -1.2202   -0.2195 C.3     1  UNL1        0.0336
      2 C          -0.9027   -0.6985   -0.5822 C.3     1  UNL1        0.0281
      3 N          -1.3113    0.3844    0.3275 N.pl3   1  UNL1       -0.3269
      4 C          -0.3600    1.5087    0.4133 C.3     1  UNL1        0.0281
      5 C           1.0491    0.9879    0.7644 C.3     1  UNL1        0.0336
      6 N           1.4709   -0.1209   -0.0953 N.am    1  UNL1       -0.2645
      7 C           2.6824   -0.0797   -0.7535 C.2     1  UNL1        0.4030
      8 O           3.4020    0.9059   -0.8147 O.2     1  UNL1       -0.2263
      9 O           2.9730   -1.2611   -1.3554 O.3     1  UNL1       -0.4493
     10 C           3.9472   -1.2352   -2.4117 C.3     1  UNL1        0.1048
     11 C           5.4189   -1.0799   -1.9972 C.3     1  UNL1        0.0446
     12 C           5.9521   -2.2309   -1.1487 C.ar    1  UNL1       -0.0290
     13 C           5.5864   -2.5939    0.1383 C.ar    1  UNL1       -0.0573
     14 C           6.2288   -3.6872    0.7235 C.ar    1  UNL1       -0.0614
     15 C           7.2230   -4.3954    0.0282 C.ar    1  UNL1       -0.0612
     16 C           7.6063   -4.0102   -1.2592 C.ar    1  UNL1       -0.0537
     17 C           6.9743   -2.9223   -1.8382 C.ar    1  UNL1       -0.0137
     18 C           7.1876   -2.2890   -3.1217 C.ar    1  UNL1       -0.0137
     19 C           8.0639   -2.6057   -4.1466 C.ar    1  UNL1       -0.0537
     20 C           8.0520   -1.8196   -5.3040 C.ar    1  UNL1       -0.0612
     21 C           7.1758   -0.7296   -5.4199 C.ar    1  UNL1       -0.0614
     22 C           6.2980   -0.4026   -4.3836 C.ar    1  UNL1       -0.0573
     23 C           6.3080   -1.1914   -3.2412 C.ar    1  UNL1       -0.0290
     24 C          -2.4383    0.3187    1.1209 C.ar    1  UNL1        0.0298
     25 C          -2.9272   -0.8957    1.6222 C.ar    1  UNL1       -0.0401
     26 C          -4.0639   -0.9596    2.4416 C.ar    1  UNL1       -0.0484
     27 C          -4.7617    0.2023    2.7839 C.ar    1  UNL1        0.0549
     28 C          -4.2977    1.4224    2.2835 C.ar    1  UNL1       -0.0484
     29 C          -3.1578    1.4724    1.4690 C.ar    1  UNL1       -0.0401
     30 C          -5.9810    0.1582    3.6694 C.3     1  UNL1        0.4174
     31 F          -6.3154   -1.0982    4.0775 F       1  UNL1       -0.1659
     32 F          -5.8244    0.8889    4.8088 F       1  UNL1       -0.1659
     33 F          -7.0905    0.6574    3.0567 F       1  UNL1       -0.1659
     34 H           0.4778   -1.7364    0.7453 H       1  UNL1        0.0481
     35 H           0.8169   -1.9409   -0.9809 H       1  UNL1        0.0481
     36 H          -1.6154   -1.5290   -0.6114 H       1  UNL1        0.0479
     37 H          -0.8793   -0.2870   -1.6000 H       1  UNL1        0.0479
     38 H          -0.3371    2.0222   -0.5553 H       1  UNL1        0.0479
     39 H          -0.6438    2.2471    1.1710 H       1  UNL1        0.0479
     40 H           1.0478    0.5984    1.7896 H       1  UNL1        0.0481
     41 H           1.7705    1.8109    0.7265 H       1  UNL1        0.0481
     42 H           3.8105   -2.1785   -2.9563 H       1  UNL1        0.0707
     43 H           3.6599   -0.4414   -3.1134 H       1  UNL1        0.0707
     44 H           5.6243   -0.1355   -1.4816 H       1  UNL1        0.0431
     45 H           4.8294   -2.0402    0.6846 H       1  UNL1        0.0621
     46 H           5.9602   -3.9932    1.7322 H       1  UNL1        0.0618
     47 H           7.7068   -5.2467    0.5018 H       1  UNL1        0.0618
     48 H           8.3870   -4.5529   -1.7821 H       1  UNL1        0.0624
     49 H           8.7472   -3.4447   -4.0655 H       1  UNL1        0.0624
     50 H           8.7283   -2.0547   -6.1219 H       1  UNL1        0.0618
     51 H           7.1793   -0.1342   -6.3308 H       1  UNL1        0.0618
     52 H           5.6229    0.4421   -4.4803 H       1  UNL1        0.0621
     53 H          -2.4062   -1.8267    1.4145 H       1  UNL1        0.0636
     54 H          -4.3917   -1.9286    2.8153 H       1  UNL1        0.0624
     55 H          -4.8233    2.3468    2.5191 H       1  UNL1        0.0624
     56 H          -2.8582    2.4419    1.0785 H       1  UNL1        0.0636
@<TRIPOS>BOND
     1     1     2    1
     2     2     3    1
     3     3     4    1
     4     4     5    1
     5     5     6    1
     6     1     6    1
     7     7     8    2
     8     7     9    1
     9     6     7   am
    10    11    12    1
    11    12    13   ar
    12    13    14   ar
    13    14    15   ar
    14    15    16   ar
    15    16    17   ar
    16    12    17   ar
    17    17    18    1
    18    18    19   ar
    19    19    20   ar
    20    20    21   ar
    21    21    22   ar
    22    22    23   ar
    23    11    23    1
    24    18    23   ar
    25    10    11    1
    26     9    10    1
    27    24    25   ar
    28    25    26   ar
    29    26    27   ar
    30    27    28   ar
    31    28    29   ar
    32    24    29   ar
    33    30    31    1
    34    30    32    1
    35    30    33    1
    36    27    30    1
    37     3    24    1
    38     1    34    1
    39     1    35    1
    40     2    36    1
    41     2    37    1
    42     4    38    1
    43     4    39    1
    44     5    40    1
    45     5    41    1
    46    10    42    1
    47    10    43    1
    48    11    44    1
    49    13    45    1
    50    14    46    1
    51    15    47    1
    52    16    48    1
    53    19    49    1
    54    20    50    1
    55    21    51    1
    56    22    52    1
    57    25    53    1
    58    26    54    1
    59    28    55    1
    60    29    56    1
