@<TRIPOS>MOLECULE
mol_769_akc_ap_2017_0070
2265
 26 28 0 0 0
SMALL
GASTEIGER

@<TRIPOS>ATOM
      1 S           1.0646    0.0387    0.1207 S.3     1  UNL1       -0.0414
      2 O           1.2694   -1.7863    2.7066 O.co2   1  UNL1       -0.5746
      3 O           0.7444   -3.9218    2.6851 O.2     1  UNL1        0.0432
      4 N           0.2659   -2.1135   -1.3484 N.ar    1  UNL1       -0.3225
      5 N           3.4981    0.5858    2.3236 N.ar    1  UNL1       -0.3410
      6 N           0.1699   -3.8552    0.0289 N.ar    1  UNL1       -0.1699
      7 N           3.3707   -0.5251   -1.1821 N.ar    1  UNL1       -0.2266
      8 N           5.6880    0.3586    2.0269 N.ar    1  UNL1       -0.2165
      9 N           0.8879   -2.8220    2.1355 N.pl3   1  UNL1        0.1034
     10 N           5.6029   -0.3656   -0.2727 N.ar    1  UNL1       -0.2145
     11 C           0.6483   -1.6322   -0.1175 C.ar    1  UNL1        0.1824
     12 C           3.6608    0.1719    1.0300 C.ar    1  UNL1        0.1177
     13 C           2.8178   -0.1190   -0.0190 C.ar    1  UNL1        0.1318
     14 C           0.5894   -2.7311    0.7214 C.ar    1  UNL1        0.3991
     15 C          -0.0103   -3.4475   -1.2068 C.ar    1  UNL1        0.1034
     16 C           5.0268    0.0355    0.8738 C.ar    1  UNL1        0.1817
     17 C           0.1650   -1.3884   -2.5935 C.3     1  UNL1        0.0139
     18 C           4.7430    0.6785    2.8837 C.ar    1  UNL1        0.0963
     19 C           4.7150   -0.6214   -1.2400 C.ar    1  UNL1        0.1197
     20 H          -0.3374   -4.0704   -2.0309 H       1  UNL1        0.1031
     21 H          -0.6022   -0.6178   -2.4861 H       1  UNL1        0.0456
     22 H           1.1350   -0.9446   -2.8271 H       1  UNL1        0.0456
     23 H          -0.1171   -2.0772   -3.3943 H       1  UNL1        0.0456
     24 H           2.6169    0.7593    2.7896 H       1  UNL1        0.1669
     25 H           4.8957    0.9779    3.9127 H       1  UNL1        0.1027
     26 H           5.1289   -0.9457   -2.1904 H       1  UNL1        0.1048
@<TRIPOS>UNITY_ATOM_ATTR
2 1
charge -1
9 1
charge 1
@<TRIPOS>BOND
     1     1    11    1
     2     1    13    1
     3     2     9    1
     4     3     9    2
     5     4    11   ar
     6     4    15   ar
     7     4    17    1
     8     5    12   ar
     9     5    18   ar
    10     5    24    1
    11     6    14   ar
    12     6    15   ar
    13     7    13   ar
    14     7    19   ar
    15     8    16   ar
    16     8    18   ar
    17     9    14    1
    18    10    16   ar
    19    10    19   ar
    20    11    14   ar
    21    12    13   ar
    22    12    16   ar
    23    15    20    1
    24    17    21    1
    25    17    22    1
    26    17    23    1
    27    18    25    1
    28    19    26    1
