@<TRIPOS>MOLECULE
mol_770_akc_jijantimicag201812011
*****
 55 58 0 0 0
SMALL
GASTEIGER

@<TRIPOS>ATOM
      1 C          -4.6889    1.2263    3.9937 C.ar    1  UNL1       -0.0616
      2 C          -4.6925    0.0280    3.2876 C.ar    1  UNL1       -0.0600
      3 C          -4.1539   -0.0302    1.9977 C.ar    1  UNL1       -0.0404
      4 C          -3.5985    1.1059    1.4014 C.ar    1  UNL1        0.0350
      5 C          -3.5957    2.3063    2.1236 C.ar    1  UNL1       -0.0404
      6 C          -4.1435    2.3673    3.4104 C.ar    1  UNL1       -0.0600
      7 N          -3.0522    1.1267    0.0945 N.am    1  UNL1       -0.2669
      8 C          -3.1181    0.1032   -0.8198 C.2     1  UNL1        0.3233
      9 O          -3.5964   -1.0131   -0.6651 O.2     1  UNL1       -0.2489
     10 N          -2.6967    0.4512   -2.1387 N.ar    1  UNL1       -0.2664
     11 C          -1.7665    1.3810   -2.6582 C.ar    1  UNL1        0.1126
     12 C          -1.7968    1.2409   -4.0499 C.ar    1  UNL1       -0.0312
     13 C          -2.7213    0.2483   -4.4052 C.ar    1  UNL1       -0.0429
     14 C          -3.2373   -0.2276   -3.2349 C.ar    1  UNL1        0.0147
     15 C          -0.9179    2.2941   -1.8934 C.2     1  UNL1        0.2652
     16 O          -1.1833    2.6146   -0.7402 O.2     1  UNL1       -0.2682
     17 N           0.1597    2.8085   -2.6032 N.am    1  UNL1       -0.2803
     18 C           1.1224    3.7426   -2.1647 C.ar    1  UNL1        0.0344
     19 C           1.3036    4.1149   -0.8331 C.ar    1  UNL1       -0.0283
     20 C           2.2878    5.0562   -0.4877 C.ar    1  UNL1        0.0388
     21 C           3.0952    5.6212   -1.4797 C.ar    1  UNL1       -0.0495
     22 C           2.9276    5.2454   -2.8090 C.ar    1  UNL1       -0.0593
     23 C           1.9542    4.3048   -3.1502 C.ar    1  UNL1       -0.0404
     24 C           2.5589    5.4122    0.9320 C.2     1  UNL1        0.2483
     25 O           3.6974    5.7479    1.2414 O.2     1  UNL1       -0.2699
     26 C           1.5214    5.5028    3.1832 C.ar    1  UNL1        0.0342
     27 C           2.6755    5.2190    3.9202 C.ar    1  UNL1       -0.0288
     28 C           0.3549    5.8747    3.8571 C.ar    1  UNL1       -0.0404
     29 C           0.3574    6.0176    5.2460 C.ar    1  UNL1       -0.0595
     30 C           1.5126    5.7377    5.9750 C.ar    1  UNL1       -0.0500
     31 C           2.6769    5.3090    5.3215 C.ar    1  UNL1        0.0566
     32 C           3.8955    4.9251    6.1227 C.3     1  UNL1        0.4175
     33 F           4.9143    4.4162    5.3761 F       1  UNL1       -0.1659
     34 F           4.4225    5.9745    6.8125 F       1  UNL1       -0.1659
     35 F           3.6147    3.9726    7.0576 F       1  UNL1       -0.1659
     36 N           1.4666    5.3809    1.7804 N.am    1  UNL1       -0.2815
     37 H          -5.1110    1.2686    4.9942 H       1  UNL1        0.0618
     38 H          -5.1152   -0.8686    3.7350 H       1  UNL1        0.0618
     39 H          -4.1808   -0.9901    1.4925 H       1  UNL1        0.0636
     40 H          -3.1866    3.2132    1.6882 H       1  UNL1        0.0636
     41 H          -4.1481    3.3069    3.9562 H       1  UNL1        0.0618
     42 H          -2.6137    2.0025   -0.1832 H       1  UNL1        0.1566
     43 H          -1.2165    1.8055   -4.7681 H       1  UNL1        0.0640
     44 H          -2.9882   -0.0865   -5.4002 H       1  UNL1        0.0633
     45 H          -3.9936   -0.9862   -3.0621 H       1  UNL1        0.0814
     46 H           0.2480    2.5276   -3.5674 H       1  UNL1        0.1552
     47 H           0.7339    3.6356   -0.0454 H       1  UNL1        0.0644
     48 H           3.8658    6.3433   -1.2151 H       1  UNL1        0.0625
     49 H           3.5613    5.6811   -3.5802 H       1  UNL1        0.0618
     50 H           1.8490    4.0277   -4.1949 H       1  UNL1        0.0636
     51 H           3.5808    4.8821    3.4178 H       1  UNL1        0.0642
     52 H          -0.5594    6.0893    3.3106 H       1  UNL1        0.0636
     53 H          -0.5434    6.3425    5.7609 H       1  UNL1        0.0618
     54 H           1.5013    5.8385    7.0594 H       1  UNL1        0.0623
     55 H           0.5462    5.3907    1.3591 H       1  UNL1        0.1551
@<TRIPOS>BOND
     1     1     2   ar
     2     2     3   ar
     3     3     4   ar
     4     4     5   ar
     5     5     6   ar
     6     1     6   ar
     7     4     7    1
     8     7     8   am
     9     8     9    2
    10     8    10   am
    11    10    11   ar
    12    10    14   ar
    13    11    12   ar
    14    12    13   ar
    15    13    14   ar
    16    11    15    1
    17    15    16    2
    18    15    17   am
    19    17    18    1
    20    18    19   ar
    21    18    23   ar
    22    19    20   ar
    23    20    21   ar
    24    21    22   ar
    25    22    23   ar
    26    20    24    1
    27    24    25    2
    28    27    26   ar
    29    26    28   ar
    30    28    29   ar
    31    29    30   ar
    32    30    31   ar
    33    27    31   ar
    34    32    33    1
    35    32    34    1
    36    32    35    1
    37    24    36   am
    38    36    26    1
    39    31    32    1
    40     1    37    1
    41     2    38    1
    42     3    39    1
    43     5    40    1
    44     6    41    1
    45     7    42    1
    46    12    43    1
    47    13    44    1
    48    14    45    1
    49    17    46    1
    50    19    47    1
    51    21    48    1
    52    22    49    1
    53    23    50    1
    54    27    51    1
    55    28    52    1
    56    29    53    1
    57    30    54    1
    58    36    55    1
