@<TRIPOS>MOLECULE
mol_772_akc_0103_505320230073
*****
 50 52 0 0 0
SMALL
GASTEIGER

@<TRIPOS>ATOM
      1 C           1.9743    2.1304    2.3085 C.ar    1  UNL1       -0.0163
      2 C           1.6512    2.9467    3.3841 C.ar    1  UNL1       -0.0578
      3 C           0.5086    3.7342    3.3254 C.ar    1  UNL1       -0.0546
      4 C          -0.3545    3.7343    2.1990 C.ar    1  UNL1        0.0017
      5 C          -0.0530    2.8684    1.1212 C.ar    1  UNL1        0.1659
      6 C           1.1372    2.0827    1.1877 C.ar    1  UNL1        0.1618
      7 O           1.3919    1.2878    0.0909 O.3     1  UNL1       -0.4914
      8 O          -0.7500    2.6460   -0.0470 O.3     1  UNL1       -0.4818
      9 C          -1.5223    4.6922    2.3206 C.3     1  UNL1       -0.0062
     10 C          -2.7836    4.1519    2.9433 C.2     1  UNL1       -0.0867
     11 C          -3.0280    2.8865    3.3242 C.2     1  UNL1       -0.1023
     12 C          -2.0456    3.1870   -0.2500 C.3     1  UNL1        0.1348
     13 C          -2.7283    2.6992   -1.4871 C.ar    1  UNL1        0.1199
     14 C           2.5584    0.4788    0.1082 C.3     1  UNL1        0.0790
     15 N          -3.4278    2.8563   -3.5558 N.ar    1  UNL1       -0.0650
     16 N          -2.5427    3.3338   -2.6916 N.ar    1  UNL1       -0.1310
     17 C          -3.7308    1.7586   -1.6311 C.ar    1  UNL1        0.0524
     18 N          -4.1978    1.9699   -2.8972 N.ar    1  UNL1       -0.2470
     19 C          -5.3748    1.3990   -3.5321 C.3     1  UNL1        0.0682
     20 C          -6.6369    2.1961   -3.2618 C.ar    1  UNL1       -0.0258
     21 C          -9.0332    3.6542   -2.8695 C.ar    1  UNL1        0.1201
     22 C          -7.9220    4.2650   -3.4487 C.ar    1  UNL1       -0.0196
     23 C          -6.7396    3.5416   -3.6451 C.ar    1  UNL1       -0.0534
     24 C          -7.7579    1.5888   -2.6821 C.ar    1  UNL1       -0.0534
     25 C          -8.9438    2.3132   -2.4883 C.ar    1  UNL1       -0.0196
     26 O         -10.2423    4.2452   -2.6316 O.3     1  UNL1       -0.4951
     27 C         -10.3743    5.6106   -3.0148 C.3     1  UNL1        0.0788
     28 H           2.8812    1.5411    2.3788 H       1  UNL1        0.0655
     29 H           2.2895    2.9757    4.2641 H       1  UNL1        0.0619
     30 H           0.2835    4.3696    4.1810 H       1  UNL1        0.0622
     31 H          -1.2066    5.5416    2.9448 H       1  UNL1        0.0357
     32 H          -1.7420    5.1722    1.3676 H       1  UNL1        0.0357
     33 H          -3.5723    4.8859    3.0960 H       1  UNL1        0.0570
     34 H          -3.9827    2.6107    3.7613 H       1  UNL1        0.0532
     35 H          -2.2949    2.0935    3.2009 H       1  UNL1        0.0532
     36 H          -2.6930    2.9302    0.5891 H       1  UNL1        0.0764
     37 H          -1.9632    4.2700   -0.3637 H       1  UNL1        0.0764
     38 H           3.4661    1.0907    0.1394 H       1  UNL1        0.0660
     39 H           2.5327   -0.2357    0.9374 H       1  UNL1        0.0660
     40 H           2.5776   -0.0966   -0.8222 H       1  UNL1        0.0660
     41 H          -4.1957    1.0705   -0.9417 H       1  UNL1        0.0846
     42 H          -5.1915    1.3494   -4.6115 H       1  UNL1        0.0559
     43 H          -5.4699    0.3717   -3.1630 H       1  UNL1        0.0559
     44 H          -7.9421    5.3026   -3.7663 H       1  UNL1        0.0654
     45 H          -5.8927    4.0472   -4.1120 H       1  UNL1        0.0622
     46 H          -7.7367    0.5423   -2.3844 H       1  UNL1        0.0622
     47 H          -9.8073    1.8257   -2.0431 H       1  UNL1        0.0654
     48 H          -9.6631    6.2431   -2.4731 H       1  UNL1        0.0660
     49 H         -10.2628    5.7283   -4.0980 H       1  UNL1        0.0660
     50 H         -11.3824    5.9416   -2.7466 H       1  UNL1        0.0660
@<TRIPOS>BOND
     1     1     2   ar
     2     2     3   ar
     3     3     4   ar
     4     4     5   ar
     5     5     6   ar
     6     1     6   ar
     7     6     7    1
     8     5     8    1
     9     4     9    1
    10     9    10    1
    11    10    11    2
    12     8    12    1
    13    12    13    1
    14     7    14    1
    15    16    13   ar
    16    13    17   ar
    17    15    16   ar
    18    17    18   ar
    19    15    18   ar
    20    18    19    1
    21    19    20    1
    22    23    20   ar
    23    20    24   ar
    24    21    22   ar
    25    22    23   ar
    26    24    25   ar
    27    21    25   ar
    28    21    26    1
    29    26    27    1
    30     1    28    1
    31     2    29    1
    32     3    30    1
    33     9    31    1
    34     9    32    1
    35    10    33    1
    36    11    34    1
    37    11    35    1
    38    12    36    1
    39    12    37    1
    40    14    38    1
    41    14    39    1
    42    14    40    1
    43    17    41    1
    44    19    42    1
    45    19    43    1
    46    22    44    1
    47    23    45    1
    48    24    46    1
    49    25    47    1
    50    27    48    1
    51    27    49    1
    52    27    50    1
