@<TRIPOS>MOLECULE
mol_773_akc_jbioorg2023106615
11-(butyl(2,6-dinitro-4-(trifluoromethyl)phenyl)amino)undecyl (2-(trimethylammonio) ethyl) phosphate
 89 89 0 0 0
SMALL
GASTEIGER

@<TRIPOS>ATOM
      1 O          -8.3000    7.8815    2.1741 O.3     1  UNL1       -0.3221
      2 P          -7.6074    6.8621    3.2342 P.3     1  UNL1        0.2127
      3 O          -7.7045    5.5037    2.3743 O.3     1  UNL1       -0.3274
      4 O          -6.1758    7.3078    3.3616 O.2     1  UNL1       -0.5172
      5 O          -8.5034    6.7630    4.4397 O.co2   1  UNL1       -0.4373
      6 C          -9.5080    8.5006    2.5562 C.3     1  UNL1        0.0947
      7 C          -9.3721    9.4381    3.7699 C.3     1  UNL1       -0.0064
      8 N          -8.4020   10.6470    3.5946 N.4     1  UNL1        0.2385
      9 C          -8.7921   11.5147    2.4263 C.3     1  UNL1       -0.0417
     10 C          -8.4526   11.4463    4.8873 C.3     1  UNL1       -0.0417
     11 C          -6.9570   10.1624    3.4159 C.3     1  UNL1       -0.0417
     12 C          -6.8938    4.4329    2.8182 C.3     1  UNL1        0.0549
     13 C          -7.2010    3.1974    1.9794 C.3     1  UNL1       -0.0290
     14 C          -7.1122    3.4449    0.4684 C.3     1  UNL1       -0.0510
     15 C          -5.7397    3.9166   -0.0226 C.3     1  UNL1       -0.0530
     16 C          -4.5917    2.9373    0.2411 C.3     1  UNL1       -0.0531
     17 C          -4.7948    1.5388   -0.3454 C.3     1  UNL1       -0.0531
     18 C          -4.8962    1.5437   -1.8723 C.3     1  UNL1       -0.0531
     19 C          -5.3240    0.1986   -2.4541 C.3     1  UNL1       -0.0530
     20 C          -4.3691   -0.9432   -2.1229 C.3     1  UNL1       -0.0516
     21 C          -4.9078   -2.2801   -2.6273 C.3     1  UNL1       -0.0372
     22 C          -4.8394   -2.4242   -4.1552 C.3     1  UNL1        0.0126
     23 N          -4.9947   -3.8461   -4.5687 N.pl3   1  UNL1       -0.3194
     24 C          -3.8770   -4.5202   -5.1106 C.ar    1  UNL1        0.1858
     25 C          -3.8874   -5.3237   -6.2885 C.ar    1  UNL1        0.3011
     26 C          -2.8038   -6.1390   -6.7203 C.ar    1  UNL1        0.0296
     27 C          -1.6067   -6.1743   -6.0153 C.ar    1  UNL1        0.0677
     28 C          -1.5037   -5.3501   -4.9051 C.ar    1  UNL1        0.0296
     29 C          -2.6000   -4.5613   -4.4766 C.ar    1  UNL1        0.3011
     30 C          -0.4492   -7.0535   -6.4138 C.3     1  UNL1        0.4178
     31 F          -0.7077   -7.8272   -7.4996 F       1  UNL1       -0.1659
     32 F           0.6628   -6.3315   -6.7133 F       1  UNL1       -0.1659
     33 F          -0.0904   -7.9047   -5.4155 F       1  UNL1       -0.1659
     34 N          -4.9876   -5.3139   -7.2418 N.pl3   1  UNL1        0.0818
     35 O          -5.2269   -4.2439   -7.8224 O.2     1  UNL1        0.0415
     36 O          -5.5591   -6.3945   -7.4480 O.co2   1  UNL1       -0.5760
     37 N          -2.2735   -3.8253   -3.2741 N.pl3   1  UNL1        0.0818
     38 O          -1.8014   -2.6946   -3.4231 O.2     1  UNL1        0.0415
     39 O          -2.3447   -4.4465   -2.2040 O.co2   1  UNL1       -0.5760
     40 C          -6.3855   -4.2053   -4.9595 C.3     1  UNL1        0.0126
     41 C          -7.3618   -4.2261   -3.7815 C.3     1  UNL1       -0.0375
     42 C          -8.7435   -4.7631   -4.1759 C.3     1  UNL1       -0.0545
     43 C          -9.4935   -3.8448   -5.1315 C.3     1  UNL1       -0.0652
     44 H          -9.8852    9.0521    1.6894 H       1  UNL1        0.0618
     45 H         -10.2536    7.7255    2.7677 H       1  UNL1        0.0618
     46 H         -10.3567    9.8763    3.9760 H       1  UNL1        0.0838
     47 H          -9.0440    8.9317    4.6775 H       1  UNL1        0.0838
     48 H          -9.8354   11.8190    2.5523 H       1  UNL1        0.0778
     49 H          -8.1431   12.3963    2.4172 H       1  UNL1        0.0778
     50 H          -8.6632   10.9531    1.4978 H       1  UNL1        0.0778
     51 H          -8.1562   10.7952    5.7158 H       1  UNL1        0.0778
     52 H          -7.7622   12.2910    4.8048 H       1  UNL1        0.0778
     53 H          -9.4751   11.8075    5.0321 H       1  UNL1        0.0778
     54 H          -6.7175    9.4972    4.2463 H       1  UNL1        0.0778
     55 H          -6.8500    9.7001    2.4345 H       1  UNL1        0.0778
     56 H          -6.3047   11.0413    3.4540 H       1  UNL1        0.0778
     57 H          -5.8393    4.7110    2.7225 H       1  UNL1        0.0564
     58 H          -7.0959    4.2267    3.8747 H       1  UNL1        0.0564
     59 H          -6.5394    2.3765    2.2772 H       1  UNL1        0.0287
     60 H          -8.2251    2.8716    2.2001 H       1  UNL1        0.0287
     61 H          -7.4049    2.5289   -0.0577 H       1  UNL1        0.0266
     62 H          -7.8580    4.1960    0.1798 H       1  UNL1        0.0266
     63 H          -5.8073    4.1248   -1.0963 H       1  UNL1        0.0265
     64 H          -5.4905    4.8791    0.4386 H       1  UNL1        0.0265
     65 H          -3.6665    3.3635   -0.1657 H       1  UNL1        0.0265
     66 H          -4.4317    2.8437    1.3218 H       1  UNL1        0.0265
     67 H          -3.9396    0.9246   -0.0386 H       1  UNL1        0.0265
     68 H          -5.6820    1.0685    0.0929 H       1  UNL1        0.0265
     69 H          -5.6383    2.2775   -2.2028 H       1  UNL1        0.0265
     70 H          -3.9350    1.8482   -2.3029 H       1  UNL1        0.0265
     71 H          -6.3288   -0.0451   -2.0878 H       1  UNL1        0.0265
     72 H          -5.4023    0.3068   -3.5421 H       1  UNL1        0.0265
     73 H          -3.3771   -0.7360   -2.5402 H       1  UNL1        0.0266
     74 H          -4.2437   -1.0294   -1.0381 H       1  UNL1        0.0266
     75 H          -4.3667   -3.0838   -2.1282 H       1  UNL1        0.0280
     76 H          -5.9354   -2.3948   -2.2730 H       1  UNL1        0.0280
     77 H          -5.6459   -1.8236   -4.5966 H       1  UNL1        0.0464
     78 H          -3.9213   -1.9920   -4.5680 H       1  UNL1        0.0464
     79 H          -2.9094   -6.7448   -7.6235 H       1  UNL1        0.0691
     80 H          -0.5703   -5.3319   -4.3364 H       1  UNL1        0.0691
     81 H          -6.7382   -3.5097   -5.7305 H       1  UNL1        0.0464
     82 H          -6.4263   -5.2183   -5.3590 H       1  UNL1        0.0464
     83 H          -6.9502   -4.8639   -2.9898 H       1  UNL1        0.0280
     84 H          -7.4919   -3.2257   -3.3608 H       1  UNL1        0.0280
     85 H          -8.6513   -5.7579   -4.6249 H       1  UNL1        0.0263
     86 H          -9.3413   -4.8794   -3.2640 H       1  UNL1        0.0263
     87 H          -9.0566   -3.8738   -6.1352 H       1  UNL1        0.0230
     88 H         -10.5380   -4.1610   -5.2155 H       1  UNL1        0.0230
     89 H          -9.4806   -2.8092   -4.7788 H       1  UNL1        0.0230
@<TRIPOS>UNITY_ATOM_ATTR
5 1
charge -1
8 1
charge 1
34 1
charge 1
36 1
charge -1
37 1
charge 1
39 1
charge -1
@<TRIPOS>BOND
     1     1     2    1
     2     2     3    1
     3     2     4    2
     4     2     5    1
     5     6     7    1
     6     8     9    1
     7     8    10    1
     8     8    11    1
     9     7     8    1
    10     1     6    1
    11    12    13    1
    12    13    14    1
    13    14    15    1
    14    15    16    1
    15    16    17    1
    16    17    18    1
    17    18    19    1
    18    19    20    1
    19    20    21    1
    20    21    22    1
    21    24    25   ar
    22    25    26   ar
    23    26    27   ar
    24    27    28   ar
    25    28    29   ar
    26    24    29   ar
    27    30    31    1
    28    30    32    1
    29    30    33    1
    30    27    30    1
    31    34    35    2
    32    34    36    1
    33    25    34    1
    34    37    38    2
    35    37    39    1
    36    29    37    1
    37    23    24    1
    38    40    41    1
    39    41    42    1
    40    42    43    1
    41    23    40    1
    42    22    23    1
    43     3    12    1
    44     6    44    1
    45     6    45    1
    46     7    46    1
    47     7    47    1
    48     9    48    1
    49     9    49    1
    50     9    50    1
    51    10    51    1
    52    10    52    1
    53    10    53    1
    54    11    54    1
    55    11    55    1
    56    11    56    1
    57    12    57    1
    58    12    58    1
    59    13    59    1
    60    13    60    1
    61    14    61    1
    62    14    62    1
    63    15    63    1
    64    15    64    1
    65    16    65    1
    66    16    66    1
    67    17    67    1
    68    17    68    1
    69    18    69    1
    70    18    70    1
    71    19    71    1
    72    19    72    1
    73    20    73    1
    74    20    74    1
    75    21    75    1
    76    21    76    1
    77    22    77    1
    78    22    78    1
    79    26    79    1
    80    28    80    1
    81    40    81    1
    82    40    82    1
    83    41    83    1
    84    41    84    1
    85    42    85    1
    86    42    86    1
    87    43    87    1
    88    43    88    1
    89    43    89    1
