@<TRIPOS>MOLECULE
mol_774_akc_0739110220232212779
(E)-2, 3-diacetoxy-1-(4-hydroxy-3-methoxyphenyl)-7-(3,4-dihydroxy-5-methoxyphenyl)-5-heptene
 64 65 0 0 0
SMALL
GASTEIGER

@<TRIPOS>ATOM
      1 C          -0.2616    2.2082    0.3241 C.3     1  UNL1        0.0133
      2 C           0.4181    1.2172   -0.6587 C.3     1  UNL1        0.1439
      3 C           1.4743    0.2703    0.0079 C.3     1  UNL1        0.1434
      4 C           2.8253    0.9361    0.3505 C.3     1  UNL1        0.0061
      5 C           2.8325    1.8089    1.5732 C.2     1  UNL1       -0.0840
      6 C           2.7969    3.1480    1.5142 C.2     1  UNL1       -0.0835
      7 C           2.8999    4.0603    2.6992 C.3     1  UNL1       -0.0092
      8 C           4.2919    4.6336    2.7731 C.ar    1  UNL1       -0.0365
      9 C           5.2841    3.9335    3.4792 C.ar    1  UNL1       -0.0128
     10 C           6.5954    4.3892    3.4711 C.ar    1  UNL1        0.1622
     11 C           6.9272    5.5332    2.7503 C.ar    1  UNL1        0.2008
     12 C           5.9541    6.2429    2.0316 C.ar    1  UNL1        0.1652
     13 C           4.6349    5.7914    2.0497 C.ar    1  UNL1       -0.0126
     14 O           6.4260    7.3382    1.3521 O.3     1  UNL1       -0.4913
     15 C           5.4814    8.0796    0.5900 C.3     1  UNL1        0.0790
     16 O           7.5644    3.7126    4.1560 O.3     1  UNL1       -0.5032
     17 O           8.2272    5.9704    2.7304 O.3     1  UNL1       -0.5009
     18 C          -1.4639    3.0225   -0.1468 C.ar    1  UNL1       -0.0401
     19 C          -1.9638    2.9818   -1.4559 C.ar    1  UNL1       -0.0130
     20 C          -2.9437    3.8851   -1.8772 C.ar    1  UNL1        0.1615
     21 C          -3.4801    4.7829   -0.9461 C.ar    1  UNL1        0.1585
     22 C          -3.0566    4.7997    0.3715 C.ar    1  UNL1       -0.0163
     23 C          -2.0390    3.9335    0.7658 C.ar    1  UNL1       -0.0548
     24 O          -3.4361    4.0166   -3.1487 O.3     1  UNL1       -0.4915
     25 C          -2.8890    3.1645   -4.1481 C.3     1  UNL1        0.0790
     26 O          -4.4249    5.6937   -1.3333 O.3     1  UNL1       -0.5033
     27 O           1.0038    1.9846   -1.7523 O.3     1  UNL1       -0.4575
     28 C           1.3091    1.2966   -2.8885 C.2     1  UNL1        0.3043
     29 C           1.7143    2.2135   -4.0040 C.3     1  UNL1        0.0332
     30 O           1.2024    0.0864   -3.0199 O.2     1  UNL1       -0.2512
     31 O           0.9019   -0.3992    1.1573 O.3     1  UNL1       -0.4575
     32 C           1.5245   -1.5521    1.5510 C.2     1  UNL1        0.3043
     33 C           0.8482   -2.1322    2.7566 C.3     1  UNL1        0.0332
     34 O           2.5178   -2.0323    1.0336 O.2     1  UNL1       -0.2512
     35 H           0.4674    2.9721    0.5964 H       1  UNL1        0.0350
     36 H          -0.5602    1.6760    1.2339 H       1  UNL1        0.0350
     37 H          -0.3795    0.5808   -1.0660 H       1  UNL1        0.0775
     38 H           1.6985   -0.5041   -0.7352 H       1  UNL1        0.0775
     39 H           3.5771    0.1570    0.5300 H       1  UNL1        0.0344
     40 H           3.2024    1.4896   -0.5175 H       1  UNL1        0.0344
     41 H           2.9582    1.3059    2.5306 H       1  UNL1        0.0570
     42 H           2.6977    3.6381    0.5469 H       1  UNL1        0.0572
     43 H           2.1559    4.8619    2.6154 H       1  UNL1        0.0356
     44 H           2.6622    3.5307    3.6311 H       1  UNL1        0.0356
     45 H           5.0205    3.0185    4.0028 H       1  UNL1        0.0658
     46 H           3.8554    6.3005    1.4892 H       1  UNL1        0.0658
     47 H           5.0268    7.4613   -0.1911 H       1  UNL1        0.0660
     48 H           4.7195    8.5267    1.2365 H       1  UNL1        0.0660
     49 H           6.0200    8.8941    0.0957 H       1  UNL1        0.0660
     50 H           7.1564    2.9752    4.6343 H       1  UNL1        0.2923
     51 H           8.2191    6.7601    2.1598 H       1  UNL1        0.2924
     52 H          -1.5572    2.2610   -2.1548 H       1  UNL1        0.0658
     53 H          -3.4876    5.5044    1.0757 H       1  UNL1        0.0655
     54 H          -1.6814    3.9768    1.7953 H       1  UNL1        0.0621
     55 H          -1.7959    3.1163   -4.1123 H       1  UNL1        0.0660
     56 H          -3.3317    2.1669   -4.0715 H       1  UNL1        0.0660
     57 H          -3.1548    3.5840   -5.1232 H       1  UNL1        0.0660
     58 H          -4.5365    5.5469   -2.2929 H       1  UNL1        0.2923
     59 H           2.5546    1.7707   -4.5476 H       1  UNL1        0.0342
     60 H           0.8667    2.3460   -4.6817 H       1  UNL1        0.0342
     61 H           2.0339    3.1884   -3.6275 H       1  UNL1        0.0342
     62 H           1.2061   -3.1533    2.9083 H       1  UNL1        0.0342
     63 H           1.0850   -1.5378    3.6430 H       1  UNL1        0.0342
     64 H          -0.2333   -2.1766    2.6012 H       1  UNL1        0.0342
@<TRIPOS>BOND
     1     3     4    1
     2     4     5    1
     3     5     6    2
     4     6     7    1
     5     8     9   ar
     6     9    10   ar
     7    10    11   ar
     8    11    12   ar
     9    12    13   ar
    10     8    13   ar
    11    14    15    1
    12    12    14    1
    13    10    16    1
    14    11    17    1
    15     7     8    1
    16    18    19   ar
    17    19    20   ar
    18    20    21   ar
    19    21    22   ar
    20    22    23   ar
    21    18    23   ar
    22    24    25    1
    23    20    24    1
    24    21    26    1
    25     1    18    1
    26    28    29    1
    27    28    30    2
    28    27    28    1
    29     2    27    1
    30    32    33    1
    31    32    34    2
    32    31    32    1
    33     3    31    1
    34     1    35    1
    35     1    36    1
    36     2    37    1
    37     3    38    1
    38     4    39    1
    39     4    40    1
    40     5    41    1
    41     6    42    1
    42     7    43    1
    43     7    44    1
    44     9    45    1
    45    13    46    1
    46    15    47    1
    47    15    48    1
    48    15    49    1
    49    16    50    1
    50    17    51    1
    51    19    52    1
    52    22    53    1
    53    23    54    1
    54    25    55    1
    55    25    56    1
    56    25    57    1
    57    26    58    1
    58    29    59    1
    59    29    60    1
    60    29    61    1
    61    33    62    1
    62    33    63    1
    63    33    64    1
    64     2     3    1
    65     2     1    1
