@<TRIPOS>MOLECULE
mol_775_akc_acsjmedchem3c00056
*****
 43 45 0 0 0
SMALL
GASTEIGER

@<TRIPOS>ATOM
      1 C          -1.0069    1.1528   -0.5904 C.3     1  UNL1        0.0525
      2 C          -0.5867    0.8843   -2.0529 C.3     1  UNL1       -0.0175
      3 N           0.4704   -0.1989   -2.0938 N.4     1  UNL1        0.2292
      4 C           0.0379   -1.4664   -1.3939 C.3     1  UNL1       -0.0175
      5 C          -0.4255   -1.1747    0.0511 C.3     1  UNL1        0.0525
      6 N          -1.4494   -0.1137    0.0364 N.pl3   1  UNL1       -0.3180
      7 C          -2.5877   -0.1814    0.8316 C.ar    1  UNL1        0.0606
      8 C          -2.5738   -0.9059    2.0392 C.ar    1  UNL1       -0.0377
      9 C          -3.6982   -1.0052    2.8813 C.ar    1  UNL1       -0.0477
     10 C          -4.8838   -0.3391    2.5667 C.ar    1  UNL1        0.0393
     11 C          -4.9500    0.3708    1.3657 C.ar    1  UNL1       -0.0175
     12 C          -3.8326    0.4110    0.5145 C.ar    1  UNL1        0.1478
     13 N          -4.0674    0.9803   -0.7985 N.pl3   1  UNL1        0.0583
     14 O          -3.8681    0.2496   -1.7821 O.2     1  UNL1       -0.1261
     15 O          -4.3776    2.1762   -0.8502 O.2     1  UNL1       -0.1261
     16 C          -6.1140   -0.3893    3.4135 C.2     1  UNL1        0.2483
     17 O          -7.1749   -0.1168    2.8681 O.2     1  UNL1       -0.2699
     18 N          -5.9346   -0.7084    4.7507 N.am    1  UNL1       -0.2815
     19 C          -6.9333   -0.7403    5.7517 C.ar    1  UNL1        0.0351
     20 C          -9.2029   -0.4536    6.5690 C.ar    1  UNL1       -0.0402
     21 C          -8.2854   -0.4856    5.5135 C.ar    1  UNL1       -0.0390
     22 C          -6.5225   -1.0156    7.0627 C.ar    1  UNL1       -0.0207
     23 C          -7.4402   -0.9909    8.1220 C.ar    1  UNL1        0.0610
     24 C          -8.7822   -0.6924    7.8770 C.ar    1  UNL1        0.0594
     25 CL         -9.9583   -0.5868    9.1360 Cl      1  UNL1       -0.0820
     26 CL         -6.8405   -1.3274    9.7078 Cl      1  UNL1       -0.0820
     27 H          -0.1442    1.5368   -0.0304 H       1  UNL1        0.0516
     28 H          -1.7560    1.9467   -0.5595 H       1  UNL1        0.0516
     29 H          -1.4193    0.5251   -2.6632 H       1  UNL1        0.0829
     30 H          -0.1476    1.7721   -2.5172 H       1  UNL1        0.0829
     31 H           0.6836   -0.4151   -3.0763 H       1  UNL1        0.2015
     32 H           1.3387    0.1532   -1.6724 H       1  UNL1        0.2015
     33 H           0.8942   -2.1461   -1.4088 H       1  UNL1        0.0829
     34 H          -0.7780   -1.8880   -1.9903 H       1  UNL1        0.0829
     35 H           0.4255   -0.8497    0.6630 H       1  UNL1        0.0516
     36 H          -0.8026   -2.1148    0.4685 H       1  UNL1        0.0516
     37 H          -1.6732   -1.4179    2.3728 H       1  UNL1        0.0637
     38 H          -3.6172   -1.6339    3.7642 H       1  UNL1        0.0626
     39 H          -5.8793    0.8629    1.0745 H       1  UNL1        0.0648
     40 H          -4.9934   -0.8444    5.0859 H       1  UNL1        0.1551
     41 H         -10.2462   -0.2276    6.3568 H       1  UNL1        0.0633
     42 H          -8.6671   -0.2896    4.5161 H       1  UNL1        0.0636
     43 H          -5.4809   -1.2421    7.2795 H       1  UNL1        0.0651
@<TRIPOS>UNITY_ATOM_ATTR
3 1
charge 1
@<TRIPOS>BOND
     1     1     2    1
     2     2     3    1
     3     3     4    1
     4     4     5    1
     5     5     6    1
     6     1     6    1
     7     8     9   ar
     8     9    10   ar
     9    10    11   ar
    10    11    12   ar
    11     7     8   ar
    12     7    12   ar
    13     6     7    1
    14    12    13    1
    15    13    14    2
    16    13    15    2
    17    10    16    1
    18    16    17    2
    19    16    18   am
    20    18    19    1
    21    20    21   ar
    22    22    23   ar
    23    23    24   ar
    24    20    24   ar
    25    21    19   ar
    26    19    22   ar
    27    24    25    1
    28    23    26    1
    29     1    27    1
    30     1    28    1
    31     2    29    1
    32     2    30    1
    33     3    31    1
    34     3    32    1
    35     4    33    1
    36     4    34    1
    37     5    35    1
    38     5    36    1
    39     8    37    1
    40     9    38    1
    41    11    39    1
    42    18    40    1
    43    20    41    1
    44    21    42    1
    45    22    43    1
