@<TRIPOS>MOLECULE
mol_776_akc_jexppara2023108555
*****
 59 60 0 0 0
SMALL
GASTEIGER

@<TRIPOS>ATOM
      1 C          -7.9218    2.6882    4.0779 C.ar    1  UNL1        0.0179
      2 C          -6.5467    2.6366    3.8387 C.ar    1  UNL1       -0.0061
      3 C          -5.9744    1.5315    3.1943 C.ar    1  UNL1        0.1622
      4 C          -6.8008    0.4844    2.7531 C.ar    1  UNL1        0.1621
      5 C          -8.1745    0.5295    3.0510 C.ar    1  UNL1       -0.0156
      6 C          -8.7398    1.6242    3.7078 C.ar    1  UNL1       -0.0479
      7 C          -8.5108    3.9020    4.6852 C.2     1  UNL1        0.1503
      8 O          -7.8343    4.8706    4.9987 O.2     1  UNL1       -0.2957
      9 O          -4.6384    1.5090    2.8900 O.3     1  UNL1       -0.4914
     10 C          -3.7669    2.1125    3.8453 C.3     1  UNL1        0.0790
     11 O          -6.4651   -0.6294    2.0312 O.3     1  UNL1       -0.4857
     12 C          -5.1598   -0.7949    1.4683 C.3     1  UNL1        0.1173
     13 C          -5.0149   -0.0906    0.1027 C.3     1  UNL1        0.1086
     14 C          -3.6904   -0.4076   -0.5946 C.3     1  UNL1        0.0723
     15 N          -2.5267    0.1663    0.0459 N.ar    1  UNL1       -0.2489
     16 N          -1.8430   -0.5284    0.9699 N.ar    1  UNL1       -0.0654
     17 N          -0.7435    0.1590    1.2519 N.ar    1  UNL1       -0.1345
     18 C          -0.7377    1.2954    0.4843 C.ar    1  UNL1        0.0828
     19 C          -1.8943    1.3348   -0.2623 C.ar    1  UNL1        0.0487
     20 C           0.4105    2.2405    0.5084 C.3     1  UNL1       -0.0071
     21 C           1.7326    1.6114    0.0485 C.3     1  UNL1       -0.0475
     22 C           1.7091    1.1495   -1.4140 C.3     1  UNL1       -0.0527
     23 C           3.0447    0.5240   -1.8279 C.3     1  UNL1       -0.0530
     24 C           3.0110    0.0502   -3.2836 C.3     1  UNL1       -0.0531
     25 C           4.3396   -0.5855   -3.6990 C.3     1  UNL1       -0.0533
     26 C           4.3015   -1.0634   -5.1513 C.3     1  UNL1       -0.0559
     27 C           5.6228   -1.6912   -5.5675 C.3     1  UNL1       -0.0653
     28 O          -5.1900    1.3292    0.1504 O.3     1  UNL1       -0.3866
     29 H          -5.9437    3.4931    4.1240 H       1  UNL1        0.0662
     30 H          -8.8160   -0.2933    2.7378 H       1  UNL1        0.0655
     31 H          -9.8112    1.6420    3.8950 H       1  UNL1        0.0626
     32 H          -9.6053    3.8952    4.8270 H       1  UNL1        0.1081
     33 H          -3.7858    3.2018    3.7464 H       1  UNL1        0.0660
     34 H          -4.0090    1.8042    4.8686 H       1  UNL1        0.0660
     35 H          -2.7485    1.7794    3.6240 H       1  UNL1        0.0660
     36 H          -4.3726   -0.5672    2.1880 H       1  UNL1        0.0723
     37 H          -5.0640   -1.8735    1.2874 H       1  UNL1        0.0723
     38 H          -5.8265   -0.4539   -0.5394 H       1  UNL1        0.0646
     39 H          -3.5317   -1.4894   -0.6704 H       1  UNL1        0.0536
     40 H          -3.7065   -0.0045   -1.6145 H       1  UNL1        0.0536
     41 H          -2.2821    2.0397   -0.9841 H       1  UNL1        0.0845
     42 H           0.1888    3.1175   -0.1124 H       1  UNL1        0.0329
     43 H           0.5348    2.6086    1.5343 H       1  UNL1        0.0329
     44 H           2.5326    2.3525    0.1764 H       1  UNL1        0.0269
     45 H           1.9835    0.7625    0.6963 H       1  UNL1        0.0269
     46 H           0.9125    0.4112   -1.5611 H       1  UNL1        0.0265
     47 H           1.4846    2.0036   -2.0645 H       1  UNL1        0.0265
     48 H           3.8515    1.2552   -1.6971 H       1  UNL1        0.0265
     49 H           3.2691   -0.3266   -1.1729 H       1  UNL1        0.0265
     50 H           2.2009   -0.6778   -3.4137 H       1  UNL1        0.0265
     51 H           2.7896    0.8999   -3.9404 H       1  UNL1        0.0265
     52 H           5.1503    0.1424   -3.5736 H       1  UNL1        0.0265
     53 H           4.5623   -1.4339   -3.0407 H       1  UNL1        0.0265
     54 H           3.4988   -1.7987   -5.2807 H       1  UNL1        0.0263
     55 H           4.0797   -0.2206   -5.8162 H       1  UNL1        0.0263
     56 H           5.8647   -2.5527   -4.9368 H       1  UNL1        0.0230
     57 H           5.5697   -2.0351   -6.6053 H       1  UNL1        0.0230
     58 H           6.4417   -0.9687   -5.4913 H       1  UNL1        0.0230
     59 H          -4.8136    1.6373    0.9993 H       1  UNL1        0.2100
@<TRIPOS>BOND
     1     1     2   ar
     2     2     3   ar
     3     3     4   ar
     4     4     5   ar
     5     5     6   ar
     6     1     6   ar
     7     7     8    2
     8     1     7    1
     9     9    10    1
    10     3     9    1
    11    15    16   ar
    12    16    17   ar
    13    17    18   ar
    14    18    19   ar
    15    15    19   ar
    16    20    21    1
    17    21    22    1
    18    22    23    1
    19    23    24    1
    20    24    25    1
    21    25    26    1
    22    26    27    1
    23    18    20    1
    24    14    15    1
    25    13    28    1
    26    11    12    1
    27     4    11    1
    28     2    29    1
    29     5    30    1
    30     6    31    1
    31     7    32    1
    32    10    33    1
    33    10    34    1
    34    10    35    1
    35    12    36    1
    36    12    37    1
    37    13    38    1
    38    14    39    1
    39    14    40    1
    40    19    41    1
    41    20    42    1
    42    20    43    1
    43    21    44    1
    44    21    45    1
    45    22    46    1
    46    22    47    1
    47    23    48    1
    48    23    49    1
    49    24    50    1
    50    24    51    1
    51    25    52    1
    52    25    53    1
    53    26    54    1
    54    26    55    1
    55    27    56    1
    56    27    57    1
    57    27    58    1
    58    28    59    1
    59    13    14    1
    60    13    12    1
