@<TRIPOS>MOLECULE
mol_778_akc_md21060333
*****
 35 37 0 0 0
SMALL
GASTEIGER

@<TRIPOS>ATOM
      1 C          -3.9768   -0.7593   -1.2034 C.2     1  UNL1       -0.0073
      2 C          -4.9462    0.3441   -1.3099 C.2     1  UNL1        0.1824
      3 C          -5.0896    1.2088   -0.1232 C.2     1  UNL1       -0.0002
      4 C          -4.1113    1.2098    0.7930 C.2     1  UNL1       -0.0081
      5 C          -2.9152    0.3431    0.6476 C.2     1  UNL1        0.1831
      6 C          -3.0583   -0.8549   -0.2236 C.2     1  UNL1        0.0093
      7 O          -5.6407    0.4720   -2.3093 O.2     1  UNL1       -0.2876
      8 O          -1.8802    0.6316    1.2325 O.2     1  UNL1       -0.2876
      9 C          -6.3357    2.0359   -0.0430 C.3     1  UNL1       -0.0360
     10 C          -2.1646   -2.0984   -0.0589 C.3     1  UNL1        0.0023
     11 C          -3.5525   -3.6084    1.3116 C.3     1  UNL1       -0.0489
     12 C          -3.0654   -3.3951   -0.1234 C.3     1  UNL1       -0.0427
     13 C          -1.4566   -2.3481    1.3258 C.3     1  UNL1       -0.0195
     14 C          -2.3337   -3.3029    2.1183 C.3     1  UNL1       -0.0343
     15 C          -1.1805   -2.1218   -1.2461 C.3     1  UNL1       -0.0549
     16 C           0.0187   -2.6760    1.3097 C.3     1  UNL1       -0.0585
     17 C          -2.0687   -1.9424    2.6630 C.3     1  UNL1       -0.0432
     18 H          -4.0920   -1.5131   -1.9741 H       1  UNL1        0.0660
     19 H          -4.1287    1.8491    1.6681 H       1  UNL1        0.0660
     20 H          -7.2100    1.3824    0.0531 H       1  UNL1        0.0279
     21 H          -6.3265    2.7084    0.8201 H       1  UNL1        0.0279
     22 H          -6.4607    2.6458   -0.9428 H       1  UNL1        0.0279
     23 H          -4.3702   -2.9208    1.5589 H       1  UNL1        0.0268
     24 H          -3.9041   -4.6317    1.4690 H       1  UNL1        0.0268
     25 H          -3.9051   -3.3531   -0.8220 H       1  UNL1        0.0274
     26 H          -2.4524   -4.2584   -0.4152 H       1  UNL1        0.0274
     27 H          -1.8864   -4.1673    2.5896 H       1  UNL1        0.0306
     28 H          -0.4703   -1.2901   -1.1825 H       1  UNL1        0.0238
     29 H          -0.6035   -3.0519   -1.2846 H       1  UNL1        0.0238
     30 H          -1.6960   -2.0432   -2.2103 H       1  UNL1        0.0238
     31 H           0.2042   -3.5965    0.7444 H       1  UNL1        0.0235
     32 H           0.5985   -1.8620    0.8656 H       1  UNL1        0.0235
     33 H           0.4089   -2.8431    2.3196 H       1  UNL1        0.0235
     34 H          -1.4013   -1.8522    3.5172 H       1  UNL1        0.0274
     35 H          -2.8965   -1.2504    2.7253 H       1  UNL1        0.0274
@<TRIPOS>BOND
     1     1     2    1
     2     2     3    1
     3     3     4    2
     4     4     5    1
     5     5     6    1
     6     1     6    2
     7     2     7    2
     8     5     8    2
     9     3     9    1
    10    11    12    1
    11    13    14    1
    12    11    14    1
    13    12    10    1
    14    10    13    1
    15    13    16    1
    16    13    17    1
    17    14    17    1
    18     1    18    1
    19     4    19    1
    20     9    20    1
    21     9    21    1
    22     9    22    1
    23    11    23    1
    24    11    24    1
    25    12    25    1
    26    12    26    1
    27    14    27    1
    28    15    28    1
    29    15    29    1
    30    15    30    1
    31    16    31    1
    32    16    32    1
    33    16    33    1
    34    17    34    1
    35    17    35    1
    36    10    15    1
    37    10     6    1
