@<TRIPOS>MOLECULE
mol_779_akc_jejmech2023115524
*****
 47 50 0 0 0
SMALL
GASTEIGER

@<TRIPOS>ATOM
      1 C          -0.1243    0.5599    0.5751 C.ar    1  UNL1        0.0649
      2 C          -1.3183    1.2357    0.8568 C.ar    1  UNL1       -0.0474
      3 C          -1.2736    2.4924    1.4583 C.ar    1  UNL1       -0.0609
      4 C          -0.0416    3.0648    1.7735 C.ar    1  UNL1       -0.0597
      5 C           1.1434    2.3840    1.4784 C.ar    1  UNL1       -0.0355
      6 C           1.1076    1.1256    0.8716 C.ar    1  UNL1        0.0785
      7 N           2.3169    0.4855    0.5753 N.ar    1  UNL1       -0.2288
      8 C           2.2961   -0.7138    0.0748 C.ar    1  UNL1        0.1438
      9 N           1.1106   -1.4096   -0.1631 N.ar    1  UNL1       -0.2954
     10 C          -0.1312   -0.7870   -0.0127 C.ar    1  UNL1        0.2618
     11 O          -1.2021   -1.3025   -0.3287 O.2     1  UNL1       -0.2669
     12 C           1.0485   -2.8142   -0.5440 C.3     1  UNL1        0.0167
     13 C           3.6194   -1.3336   -0.2414 C.ar    1  UNL1        0.0178
     14 C           4.6677   -1.1721    0.6732 C.ar    1  UNL1       -0.0476
     15 C           3.8631   -1.9875   -1.4552 C.ar    1  UNL1       -0.0476
     16 C           5.1237   -2.5329   -1.7214 C.ar    1  UNL1       -0.0193
     17 C           6.1577   -2.3722   -0.8040 C.ar    1  UNL1        0.1212
     18 C           5.9327   -1.6997    0.3968 C.ar    1  UNL1       -0.0193
     19 O           7.4125   -2.8922   -0.9885 O.3     1  UNL1       -0.4828
     20 C           7.9841   -2.5936   -2.2593 C.3     1  UNL1        0.1655
     21 C           8.1387   -3.8009   -3.1831 C.2     1  UNL1        0.2559
     22 O           8.3731   -3.6393   -4.3796 O.2     1  UNL1       -0.2717
     23 N           8.0028   -5.0168   -2.5525 N.am    1  UNL1       -0.2676
     24 C           8.1559   -6.2658   -3.1564 C.ar    1  UNL1        0.1249
     25 N           7.4671   -7.2665   -2.5702 N.ar    1  UNL1       -0.2401
     26 C           8.9646   -6.4650   -4.2697 C.ar    1  UNL1       -0.0215
     27 C           9.0259   -7.7322   -4.8430 C.ar    1  UNL1       -0.0571
     28 C           8.2716   -8.7592   -4.2953 C.ar    1  UNL1       -0.0435
     29 C           7.5198   -8.4808   -3.1661 C.ar    1  UNL1        0.0297
     30 H          -2.2764    0.7803    0.6167 H       1  UNL1        0.0626
     31 H          -2.1958    3.0213    1.6849 H       1  UNL1        0.0618
     32 H          -0.0007    4.0422    2.2479 H       1  UNL1        0.0618
     33 H           2.1020    2.8346    1.7213 H       1  UNL1        0.0639
     34 H           0.1862   -3.2983   -0.0734 H       1  UNL1        0.0457
     35 H           0.9228   -2.8737   -1.6298 H       1  UNL1        0.0457
     36 H           1.9416   -3.3607   -0.2358 H       1  UNL1        0.0457
     37 H           4.5070   -0.6259    1.6012 H       1  UNL1        0.0626
     38 H           3.0842   -2.0739   -2.2081 H       1  UNL1        0.0626
     39 H           5.2741   -3.0775   -2.6500 H       1  UNL1        0.0654
     40 H           6.7409   -1.5671    1.1109 H       1  UNL1        0.0654
     41 H           7.4405   -1.8071   -2.7994 H       1  UNL1        0.0795
     42 H           8.9957   -2.2145   -2.0764 H       1  UNL1        0.0795
     43 H           7.5261   -5.0393   -1.6582 H       1  UNL1        0.1563
     44 H           9.5603   -5.6630   -4.6914 H       1  UNL1        0.0652
     45 H           9.6507   -7.9058   -5.7145 H       1  UNL1        0.0619
     46 H           8.2720   -9.7498   -4.7357 H       1  UNL1        0.0633
     47 H           6.9115   -9.2515   -2.7008 H       1  UNL1        0.0830
@<TRIPOS>BOND
     1     1     2   ar
     2     1     6   ar
     3     1    10   ar
     4     2     3   ar
     5     3     4   ar
     6     4     5   ar
     7     5     6   ar
     8     6     7   ar
     9     7     8   ar
    10     8     9   ar
    11     9    10   ar
    12    10    11    2
    13     9    12    1
    14     8    13    1
    15    14    13   ar
    16    13    15   ar
    17    14    18   ar
    18    15    16   ar
    19    16    17   ar
    20    17    18   ar
    21    17    19    1
    22    19    20    1
    23    20    21    1
    24    21    22    2
    25    21    23   am
    26    23    24    1
    27    25    24   ar
    28    24    26   ar
    29    25    29   ar
    30    26    27   ar
    31    27    28   ar
    32    28    29   ar
    33     2    30    1
    34     3    31    1
    35     4    32    1
    36     5    33    1
    37    12    34    1
    38    12    35    1
    39    12    36    1
    40    14    37    1
    41    15    38    1
    42    16    39    1
    43    18    40    1
    44    20    41    1
    45    20    42    1
    46    23    43    1
    47    26    44    1
    48    27    45    1
    49    28    46    1
    50    29    47    1
