@<TRIPOS>MOLECULE
mol_77_akc_acsjmedchem6b01447
>76.sdf
 64 70 0 0 0
SMALL
GASTEIGER

@<TRIPOS>ATOM
      1 C          10.6230   -3.2116   -5.4664 C.3     1  UNL1        0.0790
      2 O           9.9903   -2.2596   -6.3052 O.3     1  UNL1       -0.4915
      3 C           8.9647   -1.5066   -5.7972 C.ar    1  UNL1        0.1615
      4 C           8.4567   -1.4722   -4.4896 C.ar    1  UNL1        0.1618
      5 O           9.0591   -2.2260   -3.5150 O.3     1  UNL1       -0.4914
      6 C           8.2021   -2.7030   -2.4822 C.3     1  UNL1        0.0790
      7 C           7.3868   -0.6076   -4.1881 C.ar    1  UNL1       -0.0122
      8 C           6.7900    0.2062   -5.1654 C.ar    1  UNL1       -0.0316
      9 C           7.3187    0.1602   -6.4651 C.ar    1  UNL1       -0.0540
     10 C           8.3855   -0.6850   -6.7716 C.ar    1  UNL1       -0.0160
     11 C           5.6499    1.1387   -4.7703 C.3     1  UNL1        0.0444
     12 C           5.9995    2.5847   -4.9771 C.2     1  UNL1        0.0239
     13 C           5.5471    3.3471   -5.9935 C.2     1  UNL1        0.0171
     14 C           5.9470    4.7861   -5.9178 C.3     1  UNL1       -0.0071
     15 C           6.7778    4.8759   -4.6389 C.3     1  UNL1        0.0154
     16 C           6.7309    3.4738   -4.0894 C.2     1  UNL1        0.1619
     17 O           7.2054    3.1198   -3.0232 O.2     1  UNL1       -0.2923
     18 N           4.7116    2.8361   -6.9702 N.pl3   1  UNL1       -0.3021
     19 C           4.1709    1.6009   -6.7564 C.ar    1  UNL1        0.1310
     20 C           4.5006    0.7837   -5.6779 C.ar    1  UNL1        0.0322
     21 C           3.4510   -0.1507   -5.6534 C.ar    1  UNL1        0.1011
     22 N           2.6417   -0.0331   -6.7203 N.ar    1  UNL1       -0.1643
     23 N           3.1272    1.0035   -7.4264 N.ar    1  UNL1       -0.2175
     24 C           2.5237    1.3676   -8.6557 C.ar    1  UNL1        0.0689
     25 C           1.1897    1.0132   -8.8980 C.ar    1  UNL1       -0.0347
     26 C           0.5683    1.4063  -10.0888 C.ar    1  UNL1       -0.0400
     27 C           1.2886    2.1146  -11.0544 C.ar    1  UNL1        0.0594
     28 CL          0.4594    2.5849  -12.4936 Cl      1  UNL1       -0.0820
     29 C           2.6364    2.4226  -10.8339 C.ar    1  UNL1        0.0613
     30 CL          3.6051    3.2478  -12.0004 Cl      1  UNL1       -0.0820
     31 C           3.2536    2.0524   -9.6322 C.ar    1  UNL1       -0.0164
     32 C           3.0114   -1.0675   -4.6023 C.ar    1  UNL1        0.0275
     33 C           2.5648   -2.3485   -4.8630 C.ar    1  UNL1        0.0120
     34 N           1.5457   -2.5945   -3.9827 N.ar    1  UNL1       -0.3600
     35 C           1.4612   -1.5809   -3.0554 C.ar    1  UNL1        0.0471
     36 C           2.4931   -0.6749   -3.3297 C.ar    1  UNL1        0.0089
     37 C           2.6601    0.4188   -2.4521 C.ar    1  UNL1       -0.0520
     38 C           1.7902    0.5769   -1.3656 C.ar    1  UNL1       -0.0611
     39 C           0.7095   -0.2821   -1.1923 C.ar    1  UNL1       -0.0598
     40 C           0.5203   -1.3750   -2.0398 C.ar    1  UNL1       -0.0378
     41 H          11.2150   -2.7164   -4.6910 H       1  UNL1        0.0660
     42 H           9.9054   -3.9246   -5.0472 H       1  UNL1        0.0660
     43 H          11.3156   -3.7866   -6.0880 H       1  UNL1        0.0660
     44 H           7.9500   -1.9045   -1.7780 H       1  UNL1        0.0660
     45 H           7.2993   -3.1669   -2.8943 H       1  UNL1        0.0660
     46 H           8.7491   -3.4689   -1.9246 H       1  UNL1        0.0660
     47 H           7.0198   -0.5282   -3.1685 H       1  UNL1        0.0658
     48 H           6.9139    0.7865   -7.2570 H       1  UNL1        0.0622
     49 H           8.7754   -0.7039   -7.7871 H       1  UNL1        0.0655
     50 H           5.3635    0.9771   -3.7256 H       1  UNL1        0.0449
     51 H           5.0647    5.4304   -5.8525 H       1  UNL1        0.0330
     52 H           6.5294    5.0855   -6.7921 H       1  UNL1        0.0330
     53 H           7.8123    5.1620   -4.8523 H       1  UNL1        0.0349
     54 H           6.3313    5.5752   -3.9238 H       1  UNL1        0.0349
     55 H           4.2552    3.5293   -7.5635 H       1  UNL1        0.1533
     56 H           0.6112    0.4642   -8.1590 H       1  UNL1        0.0639
     57 H          -0.4782    1.1595  -10.2517 H       1  UNL1        0.0633
     58 H           4.3130    2.2549   -9.4987 H       1  UNL1        0.0654
     59 H           2.7178   -2.9897   -5.7199 H       1  UNL1        0.0814
     60 H           0.8854   -3.3549   -4.0639 H       1  UNL1        0.1654
     61 H           3.4599    1.1360   -2.5954 H       1  UNL1        0.0624
     62 H           1.9418    1.3995   -0.6712 H       1  UNL1        0.0618
     63 H           0.0015   -0.1016   -0.3868 H       1  UNL1        0.0618
     64 H          -0.3360   -2.0304   -1.9200 H       1  UNL1        0.0638
@<TRIPOS>BOND
     1     1    41    1
     2     1    42    1
     3     1    43    1
     4     2     1    1
     5     3     2    1
     6     4     3   ar
     7     5     4    1
     8     6     5    1
     9     6    44    1
    10     6    45    1
    11     6    46    1
    12     7     4   ar
    13     7    47    1
    14     8     7   ar
    15     9     8   ar
    16     9    48    1
    17    10     9   ar
    18    10     3   ar
    19    10    49    1
    20    12    11    1
    21    13    12    2
    22    14    13    1
    23    14    51    1
    24    14    52    1
    25    15    14    1
    26    15    53    1
    27    15    54    1
    28    16    15    1
    29    16    12    1
    30    17    16    2
    31    18    13    1
    32    18    55    1
    33    19    18    1
    34    20    19   ar
    35    20    11    1
    36    21    20   ar
    37    22    21   ar
    38    23    22   ar
    39    23    19   ar
    40    24    23    1
    41    25    24   ar
    42    25    56    1
    43    26    25   ar
    44    26    57    1
    45    27    26   ar
    46    28    27    1
    47    29    27   ar
    48    30    29    1
    49    31    29   ar
    50    31    24   ar
    51    31    58    1
    52    32    21    1
    53    33    32   ar
    54    33    59    1
    55    34    33   ar
    56    34    60    1
    57    35    34   ar
    58    36    35   ar
    59    36    32   ar
    60    37    36   ar
    61    37    61    1
    62    38    37   ar
    63    38    62    1
    64    39    38   ar
    65    39    63    1
    66    40    39   ar
    67    40    35   ar
    68    40    64    1
    69    11    50    1
    70    11     8    1
