@<TRIPOS>MOLECULE
mol_781_akc_cbdv202300523
Molecule
 47 48 0 0 0
SMALL
GASTEIGER
****
Time = Mon Jun 19 08:54:26 2023
@<TRIPOS>ATOM
      1 C           0.7848   -0.3569   -0.3636 C.2     1  UNL1       -0.0765
      2 C           0.0190   -1.6248   -0.1358 C.3     1  UNL1       -0.0317
      3 C          -1.3441   -1.4374    0.5333 C.3     1  UNL1       -0.0443
      4 C          -2.1124   -0.1228    0.2261 C.3     1  UNL1       -0.0165
      5 C          -1.3464    0.8856   -0.6576 C.3     1  UNL1       -0.0297
      6 C           0.1434    0.7959   -0.5922 C.2     1  UNL1       -0.0847
      7 C           2.2812   -0.4656   -0.4103 C.3     1  UNL1       -0.0438
      8 C          -3.6053   -0.3740   -0.2574 C.3     1  UNL1        0.0312
      9 C          -4.3874   -0.9983    0.9215 C.3     1  UNL1       -0.0437
     10 C          -4.2712    0.9732   -0.6151 C.3     1  UNL1       -0.0437
     11 N          -3.5742   -1.3118   -1.4248 N.am    1  UNL1       -0.3202
     12 C          -4.5619   -1.9485   -2.1326 C.2     1  UNL1        0.1472
     13 S          -6.2032   -1.6706   -2.0703 S.2     1  UNL1       -0.0174
     14 N          -4.1273   -2.9398   -2.9936 N.am    1  UNL1       -0.2456
     15 N          -2.7995   -3.3300   -3.1009 N.am    1  UNL1       -0.2311
     16 C          -2.3219   -4.5352   -3.5770 C.2     1  UNL1        0.2602
     17 O          -1.1152   -4.5583   -3.8680 O.2     1  UNL1       -0.2687
     18 C          -3.1090   -5.7899   -3.7807 C.ar    1  UNL1        0.0410
     19 C          -5.0155   -7.2318   -3.6903 C.ar    1  UNL1        0.0283
     20 C          -4.4292   -6.0047   -3.3945 C.ar    1  UNL1       -0.0314
     21 C          -2.4340   -6.8509   -4.4079 C.ar    1  UNL1       -0.0314
     22 C          -3.0974   -8.0443   -4.6446 C.ar    1  UNL1        0.0283
     23 N          -4.3849   -8.2491   -4.3085 N.ar    1  UNL1       -0.2632
     24 H          -0.1124   -2.1239   -1.1047 H       1  UNL1        0.0310
     25 H           0.6089   -2.3095    0.4867 H       1  UNL1        0.0310
     26 H          -1.1917   -1.4795    1.6208 H       1  UNL1        0.0272
     27 H          -1.9472   -2.3247    0.3095 H       1  UNL1        0.0272
     28 H          -2.1973    0.3854    1.2009 H       1  UNL1        0.0324
     29 H          -1.6285    1.8991   -0.3394 H       1  UNL1        0.0311
     30 H          -1.6375    0.7955   -1.7103 H       1  UNL1        0.0311
     31 H           0.7035    1.7047   -0.8032 H       1  UNL1        0.0572
     32 H           2.6797   -0.6652    0.5889 H       1  UNL1        0.0274
     33 H           2.5834   -1.2822   -1.0757 H       1  UNL1        0.0274
     34 H           2.7484    0.4514   -0.7861 H       1  UNL1        0.0274
     35 H          -4.2493   -0.4150    1.8392 H       1  UNL1        0.0250
     36 H          -5.4643   -1.0248    0.7333 H       1  UNL1        0.0250
     37 H          -4.0694   -2.0265    1.1234 H       1  UNL1        0.0250
     38 H          -3.8477    1.4129   -1.5236 H       1  UNL1        0.0250
     39 H          -5.3463    0.8747   -0.7867 H       1  UNL1        0.0250
     40 H          -4.1493    1.6951    0.2007 H       1  UNL1        0.0250
     41 H          -2.6456   -1.5562   -1.7279 H       1  UNL1        0.1483
     42 H          -4.8096   -3.3282   -3.6390 H       1  UNL1        0.1718
     43 H          -2.1183   -2.5892   -3.2429 H       1  UNL1        0.1731
     44 H          -6.0515   -7.4333   -3.4325 H       1  UNL1        0.0830
     45 H          -5.0146   -5.2773   -2.8559 H       1  UNL1        0.0640
     46 H          -1.3948   -6.7617   -4.7134 H       1  UNL1        0.0640
     47 H          -2.5963   -8.8832   -5.1179 H       1  UNL1        0.0830
@<TRIPOS>BOND
     1     1     2    1
     2     1     6    2
     3     1     7    1
     4     2     3    1
     5     2    24    1
     6     2    25    1
     7     3     4    1
     8     3    26    1
     9     3    27    1
    10     4     5    1
    11     5     6    1
    12     5    29    1
    13     5    30    1
    14     6    31    1
    15     7    32    1
    16     7    33    1
    17     7    34    1
    18     8     9    1
    19     8    10    1
    20     8    11    1
    21     9    35    1
    22     9    36    1
    23     9    37    1
    24    10    38    1
    25    10    39    1
    26    10    40    1
    27    11    12    1
    28    11    41    1
    29    12    13    2
    30    12    14    1
    31    14    15    1
    32    14    42    1
    33    15    16   am
    34    15    43    1
    35    16    17    2
    36    16    18    1
    37    18    20   ar
    38    18    21   ar
    39    19    20   ar
    40    19    23   ar
    41    19    44    1
    42    20    45    1
    43    21    22   ar
    44    21    46    1
    45    22    23   ar
    46    22    47    1
    47     4    28    1
    48     4     8    1
