@<TRIPOS>MOLECULE
mol_782_akc_0739110220232224897
*****
 73 77 0 0 0
SMALL
GASTEIGER

@<TRIPOS>ATOM
      1 C          -2.2738    0.9396    0.0999 C.3     1  UNL1       -0.0228
      2 C          -0.8938    1.5699   -0.1705 C.3     1  UNL1       -0.0086
      3 C           0.2807    0.6292    0.0023 C.2     1  UNL1        0.0158
      4 C           0.1775   -0.7107    0.1384 C.2     1  UNL1        0.0240
      5 C          -1.1890   -1.2997    0.1353 C.2     1  UNL1        0.1621
      6 C          -2.2897   -0.4745   -0.4960 C.3     1  UNL1        0.0157
      7 C           1.4189   -1.5937    0.3142 C.3     1  UNL1        0.0471
      8 C           2.7203   -0.8230   -0.0197 C.2     1  UNL1        0.0650
      9 C           2.7154    0.5325   -0.1223 C.2     1  UNL1        0.0157
     10 N           1.5218    1.2246   -0.0006 N.pl3   1  UNL1       -0.3205
     11 C           3.9678   -1.5786   -0.2702 C.2     1  UNL1        0.3375
     12 O           4.8522   -1.2025   -1.0329 O.2     1  UNL1       -0.2452
     13 O           4.0165   -2.7203    0.4532 O.3     1  UNL1       -0.4616
     14 O          -1.4183   -2.3988    0.6429 O.2     1  UNL1       -0.2923
     15 C           1.2902   -2.9500   -0.3994 C.ar    1  UNL1       -0.0350
     16 C           1.0558   -3.0505   -1.7780 C.ar    1  UNL1       -0.0542
     17 C           0.9074   -4.3078   -2.3896 C.ar    1  UNL1       -0.0196
     18 C           1.0335   -5.4836   -1.6451 C.ar    1  UNL1        0.1211
     19 C           1.2767   -5.3908   -0.2758 C.ar    1  UNL1       -0.0196
     20 C           1.3922   -4.1420    0.3425 C.ar    1  UNL1       -0.0542
     21 O           0.9317   -6.7647   -2.1233 O.3     1  UNL1       -0.4858
     22 C           1.0485   -6.9329   -3.5415 C.3     1  UNL1        0.1346
     23 N           1.6408  -10.4907   -4.1163 N.ar    1  UNL1       -0.2470
     24 N           1.7592   -9.9656   -5.3513 N.ar    1  UNL1       -0.0650
     25 N           1.5363   -8.6618   -5.2562 N.ar    1  UNL1       -0.1310
     26 C           1.3155   -8.3511   -3.9351 C.ar    1  UNL1        0.1199
     27 C           1.4147   -9.5100   -3.1903 C.ar    1  UNL1        0.0524
     28 C           1.8889  -11.9082   -3.8897 C.3     1  UNL1        0.0682
     29 C           0.6438  -12.7584   -4.0137 C.ar    1  UNL1       -0.0261
     30 C          -0.0643  -12.8558   -5.2226 C.ar    1  UNL1       -0.0568
     31 C          -1.2372  -13.6135   -5.3031 C.ar    1  UNL1       -0.0614
     32 C          -1.7092  -14.2955   -4.1837 C.ar    1  UNL1       -0.0617
     33 C          -0.9877  -14.2529   -2.9938 C.ar    1  UNL1       -0.0614
     34 C           0.1851  -13.4980   -2.9116 C.ar    1  UNL1       -0.0568
     35 C           3.9037    1.4389   -0.3695 C.3     1  UNL1       -0.0260
     36 C          -2.5567    0.8821    1.6160 C.3     1  UNL1       -0.0591
     37 C          -3.3601    1.8022   -0.5634 C.3     1  UNL1       -0.0591
     38 C           5.1692   -3.5358    0.2044 C.3     1  UNL1        0.0900
     39 C           5.1307   -4.2072   -1.1622 C.3     1  UNL1       -0.0306
     40 H          -0.7612    2.4472    0.4768 H       1  UNL1        0.0331
     41 H          -0.8526    1.9424   -1.2037 H       1  UNL1        0.0331
     42 H          -3.2540   -0.9662   -0.3234 H       1  UNL1        0.0350
     43 H          -2.1203   -0.4571   -1.5805 H       1  UNL1        0.0350
     44 H           1.4710   -1.8025    1.3947 H       1  UNL1        0.0450
     45 H           1.5576    2.2293   -0.1602 H       1  UNL1        0.1516
     46 H           0.9625   -2.1527   -2.3823 H       1  UNL1        0.0622
     47 H           0.6851   -4.3291   -3.4517 H       1  UNL1        0.0654
     48 H           1.3830   -6.2964    0.3165 H       1  UNL1        0.0654
     49 H           1.5766   -4.1102    1.4156 H       1  UNL1        0.0622
     50 H           0.1134   -6.6122   -4.0175 H       1  UNL1        0.0764
     51 H           1.8772   -6.3240   -3.9233 H       1  UNL1        0.0764
     52 H           1.3403   -9.7060   -2.1311 H       1  UNL1        0.0846
     53 H           2.6575  -12.2415   -4.5963 H       1  UNL1        0.0559
     54 H           2.3136  -11.9923   -2.8822 H       1  UNL1        0.0559
     55 H           0.2834  -12.3325   -6.1126 H       1  UNL1        0.0621
     56 H          -1.7889  -13.6643   -6.2391 H       1  UNL1        0.0618
     57 H          -2.6352  -14.8620   -4.2398 H       1  UNL1        0.0618
     58 H          -1.3422  -14.8030   -2.1257 H       1  UNL1        0.0618
     59 H           0.7343  -13.4909   -1.9727 H       1  UNL1        0.0621
     60 H           3.7343    2.0306   -1.2768 H       1  UNL1        0.0290
     61 H           4.0135    2.1355    0.4700 H       1  UNL1        0.0290
     62 H           4.8665    0.9439   -0.4791 H       1  UNL1        0.0290
     63 H          -2.5849    1.8862    2.0508 H       1  UNL1        0.0235
     64 H          -3.5215    0.4019    1.8140 H       1  UNL1        0.0235
     65 H          -1.7910    0.3176    2.1601 H       1  UNL1        0.0235
     66 H          -4.3565    1.3749   -0.4088 H       1  UNL1        0.0235
     67 H          -3.3615    2.8179   -0.1504 H       1  UNL1        0.0235
     68 H          -3.1977    1.8850   -1.6443 H       1  UNL1        0.0235
     69 H           6.0761   -2.9330    0.3253 H       1  UNL1        0.0695
     70 H           5.1872   -4.3050    0.9836 H       1  UNL1        0.0695
     71 H           4.9671   -3.4918   -1.9738 H       1  UNL1        0.0262
     72 H           6.0728   -4.7293   -1.3531 H       1  UNL1        0.0262
     73 H           4.3138   -4.9324   -1.2169 H       1  UNL1        0.0262
@<TRIPOS>BOND
     1     1     2    1
     2     2     3    1
     3     3     4    2
     4     4     5    1
     5     5     6    1
     6     1     6    1
     7     4     7    1
     8     7     8    1
     9     8     9    2
    10     9    10    1
    11     3    10    1
    12    11    12    2
    13    11    13    1
    14     8    11    1
    15     5    14    2
    16    15    16   ar
    17    16    17   ar
    18    17    18   ar
    19    18    19   ar
    20    19    20   ar
    21    15    20   ar
    22    23    24   ar
    23    24    25   ar
    24    25    26   ar
    25    26    27   ar
    26    23    27   ar
    27    28    29    1
    28    29    30   ar
    29    30    31   ar
    30    31    32   ar
    31    32    33   ar
    32    33    34   ar
    33    29    34   ar
    34    23    28    1
    35    22    26    1
    36    21    22    1
    37    18    21    1
    38     7    15    1
    39     9    35    1
    40     1    36    1
    41     1    37    1
    42    38    39    1
    43    13    38    1
    44     2    40    1
    45     2    41    1
    46     6    42    1
    47     6    43    1
    48     7    44    1
    49    10    45    1
    50    16    46    1
    51    17    47    1
    52    19    48    1
    53    20    49    1
    54    22    50    1
    55    22    51    1
    56    27    52    1
    57    28    53    1
    58    28    54    1
    59    30    55    1
    60    31    56    1
    61    32    57    1
    62    33    58    1
    63    34    59    1
    64    35    60    1
    65    35    61    1
    66    35    62    1
    67    36    63    1
    68    36    64    1
    69    36    65    1
    70    37    66    1
    71    37    67    1
    72    37    68    1
    73    38    69    1
    74    38    70    1
    75    39    71    1
    76    39    72    1
    77    39    73    1
