@<TRIPOS>MOLECULE
mol_783_akc_0739110220232224897
*****
 73 77 0 0 0
SMALL
GASTEIGER

@<TRIPOS>ATOM
      1 C          -2.1109    0.9989   -0.0674 C.3     1  UNL1       -0.0228
      2 C          -0.7360    1.5962   -0.4182 C.3     1  UNL1       -0.0086
      3 C           0.4211    0.6876   -0.0986 C.2     1  UNL1        0.0158
      4 C           0.3004   -0.6452    0.0390 C.2     1  UNL1        0.0240
      5 C          -1.0088   -1.3045   -0.2081 C.2     1  UNL1        0.1621
      6 C          -2.1977   -0.4428   -0.5954 C.3     1  UNL1        0.0157
      7 C           1.5151   -1.5082    0.3497 C.3     1  UNL1        0.0471
      8 C           2.8381   -0.7842    0.0184 C.2     1  UNL1        0.0650
      9 C           2.8605    0.5704   -0.0972 C.2     1  UNL1        0.0157
     10 N           1.6651    1.2807    0.0135 N.pl3   1  UNL1       -0.3205
     11 C           3.9669   -1.7218   -0.2273 C.2     1  UNL1        0.3375
     12 O           3.8038   -2.8770   -0.6008 O.2     1  UNL1       -0.2452
     13 O           5.1671   -1.1523    0.0199 O.3     1  UNL1       -0.4616
     14 O          -1.1046   -2.5305   -0.1888 O.2     1  UNL1       -0.2923
     15 C           1.5096   -1.9658    1.8152 C.ar    1  UNL1       -0.0350
     16 C           1.4835   -3.3303    2.1439 C.ar    1  UNL1       -0.0542
     17 C           1.5182   -3.7433    3.4811 C.ar    1  UNL1       -0.0196
     18 C           1.5837   -2.8051    4.5188 C.ar    1  UNL1        0.1211
     19 C           1.5710   -1.4482    4.2013 C.ar    1  UNL1       -0.0196
     20 C           1.5429   -1.0337    2.8669 C.ar    1  UNL1       -0.0542
     21 O           1.6576   -3.3247    5.7838 O.3     1  UNL1       -0.4858
     22 C           2.0819   -2.4118    6.8068 C.3     1  UNL1        0.1346
     23 N           3.2020   -4.4738    9.5801 N.ar    1  UNL1       -0.2470
     24 N           3.5519   -3.2349    9.9774 N.ar    1  UNL1       -0.0650
     25 N           3.1407   -2.3864    9.0465 N.ar    1  UNL1       -0.1310
     26 C           2.5359   -3.1045    8.0435 C.ar    1  UNL1        0.1199
     27 C           2.5289   -4.4380    8.3929 C.ar    1  UNL1        0.0524
     28 C           3.7668   -5.6371   10.2389 C.3     1  UNL1        0.0682
     29 C           2.8926   -6.1955   11.3316 C.ar    1  UNL1       -0.0261
     30 C           2.3585   -7.4882   11.2187 C.ar    1  UNL1       -0.0568
     31 C           1.6456   -8.0559   12.2760 C.ar    1  UNL1       -0.0614
     32 C           1.4536   -7.3376   13.4541 C.ar    1  UNL1       -0.0617
     33 C           1.9566   -6.0434   13.5695 C.ar    1  UNL1       -0.0614
     34 C           2.6705   -5.4732   12.5140 C.ar    1  UNL1       -0.0568
     35 C           4.0430    1.4592   -0.3990 C.3     1  UNL1       -0.0260
     36 C          -2.3422    1.0273    1.4573 C.3     1  UNL1       -0.0591
     37 C          -3.2014    1.8557   -0.7363 C.3     1  UNL1       -0.0591
     38 C           6.3202   -1.9537   -0.2716 C.3     1  UNL1        0.0900
     39 C           6.6817   -2.7820    0.9442 C.3     1  UNL1       -0.0306
     40 H          -0.6110    2.5521    0.1076 H       1  UNL1        0.0331
     41 H          -0.6840    1.8248   -1.4913 H       1  UNL1        0.0331
     42 H          -3.1065   -0.9260   -0.2164 H       1  UNL1        0.0350
     43 H          -2.2479   -0.4486   -1.6917 H       1  UNL1        0.0350
     44 H           1.4444   -2.3881   -0.3030 H       1  UNL1        0.0450
     45 H           1.7137    2.2764   -0.1934 H       1  UNL1        0.1516
     46 H           1.4451   -4.0829    1.3569 H       1  UNL1        0.0622
     47 H           1.5069   -4.8044    3.7147 H       1  UNL1        0.0654
     48 H           1.5848   -0.6782    4.9669 H       1  UNL1        0.0654
     49 H           1.5549    0.0337    2.6559 H       1  UNL1        0.0622
     50 H           2.9348   -1.8192    6.4499 H       1  UNL1        0.0764
     51 H           1.2515   -1.7426    7.0603 H       1  UNL1        0.0764
     52 H           2.1780   -5.3237    7.8848 H       1  UNL1        0.0846
     53 H           3.9537   -6.3872    9.4613 H       1  UNL1        0.0559
     54 H           4.7439   -5.3553   10.6495 H       1  UNL1        0.0559
     55 H           2.5108   -8.0745   10.3149 H       1  UNL1        0.0621
     56 H           1.2513   -9.0650   12.1859 H       1  UNL1        0.0618
     57 H           0.9146   -7.7874   14.2839 H       1  UNL1        0.0618
     58 H           1.8044   -5.4810   14.4873 H       1  UNL1        0.0618
     59 H           3.0685   -4.4656   12.6284 H       1  UNL1        0.0621
     60 H           3.8490    2.0301   -1.3143 H       1  UNL1        0.0290
     61 H           4.1787    2.1754    0.4201 H       1  UNL1        0.0290
     62 H           4.9947    0.9563   -0.5471 H       1  UNL1        0.0290
     63 H          -2.1613    2.0293    1.8630 H       1  UNL1        0.0235
     64 H          -3.3754    0.7558    1.7016 H       1  UNL1        0.0235
     65 H          -1.6858    0.3328    1.9911 H       1  UNL1        0.0235
     66 H          -4.1992    1.4425   -0.5528 H       1  UNL1        0.0235
     67 H          -3.1861    2.8827   -0.3543 H       1  UNL1        0.0235
     68 H          -3.0581    1.9041   -1.8221 H       1  UNL1        0.0235
     69 H           6.1650   -2.5795   -1.1585 H       1  UNL1        0.0695
     70 H           7.1369   -1.2633   -0.5076 H       1  UNL1        0.0695
     71 H           5.8951   -3.5102    1.1643 H       1  UNL1        0.0262
     72 H           7.6212   -3.3167    0.7853 H       1  UNL1        0.0262
     73 H           6.7792   -2.1408    1.8262 H       1  UNL1        0.0262
@<TRIPOS>BOND
     1     1     2    1
     2     2     3    1
     3     3     4    2
     4     4     5    1
     5     5     6    1
     6     1     6    1
     7     4     7    1
     8     7     8    1
     9     8     9    2
    10     9    10    1
    11     3    10    1
    12    11    12    2
    13    11    13    1
    14     8    11    1
    15     5    14    2
    16    15    16   ar
    17    16    17   ar
    18    17    18   ar
    19    18    19   ar
    20    19    20   ar
    21    15    20   ar
    22    23    24   ar
    23    24    25   ar
    24    25    26   ar
    25    26    27   ar
    26    23    27   ar
    27    28    29    1
    28    29    30   ar
    29    30    31   ar
    30    31    32   ar
    31    32    33   ar
    32    33    34   ar
    33    29    34   ar
    34    23    28    1
    35    22    26    1
    36    21    22    1
    37    18    21    1
    38     9    35    1
    39     1    36    1
    40     1    37    1
    41    38    39    1
    42    13    38    1
    43     2    40    1
    44     2    41    1
    45     6    42    1
    46     6    43    1
    47    10    45    1
    48    16    46    1
    49    17    47    1
    50    19    48    1
    51    20    49    1
    52    22    50    1
    53    22    51    1
    54    27    52    1
    55    28    53    1
    56    28    54    1
    57    30    55    1
    58    31    56    1
    59    32    57    1
    60    33    58    1
    61    34    59    1
    62    35    60    1
    63    35    61    1
    64    35    62    1
    65    36    63    1
    66    36    64    1
    67    36    65    1
    68    37    66    1
    69    37    67    1
    70    37    68    1
    71    38    69    1
    72    38    70    1
    73    39    71    1
    74    39    72    1
    75    39    73    1
    76     7    44    1
    77     7    15    1
