@<TRIPOS>MOLECULE
mol_784_akc_jheliyon2023e17801
*****
 32 34 0 0 0
SMALL
GASTEIGER

@<TRIPOS>ATOM
      1 C          -2.4795    0.7168    0.0320 C.2     1  UNL1        0.0115
      2 C          -2.6017   -0.6099    0.0282 C.2     1  UNL1        0.1043
      3 S          -1.2702   -1.6921    0.0189 S.O2    1  UNL1        0.0264
      4 C           0.1700   -0.6787    0.0105 C.ar    1  UNL1        0.1045
      5 C           1.4145   -1.3303   -0.0038 C.ar    1  UNL1       -0.0331
      6 C           2.5868   -0.5788   -0.0128 C.ar    1  UNL1       -0.0246
      7 C           2.5050    0.8075   -0.0094 C.ar    1  UNL1        0.1242
      8 C           1.2730    1.4558    0.0030 C.ar    1  UNL1       -0.0138
      9 C           0.0844    0.7095    0.0139 C.ar    1  UNL1        0.0496
     10 C          -1.1971    1.4454    0.0245 C.2     1  UNL1        0.1898
     11 O          -1.2138    2.6704    0.0248 O.2     1  UNL1       -0.2872
     12 O          -1.2191   -2.4046    1.2812 O.2     1  UNL1       -0.1643
     13 O          -1.2323   -2.4009   -1.2474 O.2     1  UNL1       -0.1643
     14 F           3.6308    1.5319   -0.0188 F       1  UNL1       -0.2055
     15 C          -3.8681   -1.3397    0.0036 C.ar    1  UNL1        0.0003
     16 C          -4.4376   -1.7089   -1.2216 C.ar    1  UNL1       -0.0522
     17 C          -5.5939   -2.4914   -1.2570 C.ar    1  UNL1       -0.0495
     18 C          -6.2085   -2.9086   -0.0683 C.ar    1  UNL1        0.0548
     19 C          -5.6681   -2.4872    1.1567 C.ar    1  UNL1       -0.0495
     20 C          -4.5091   -1.7055    1.1931 C.ar    1  UNL1       -0.0522
     21 C          -7.4105   -3.8229   -0.0915 C.3     1  UNL1        0.4174
     22 F          -7.8033   -4.1744   -1.3478 F       1  UNL1       -0.1659
     23 F          -7.1838   -4.9931    0.5678 F       1  UNL1       -0.1659
     24 F          -8.5027   -3.2656    0.4995 F       1  UNL1       -0.1659
     25 H          -3.3580    1.3570    0.0314 H       1  UNL1        0.0675
     26 H           1.4684   -2.4186   -0.0087 H       1  UNL1        0.0638
     27 H           3.5591   -1.0633   -0.0233 H       1  UNL1        0.0647
     28 H           1.2548    2.5437    0.0034 H       1  UNL1        0.0654
     29 H          -3.9629   -1.4295   -2.1613 H       1  UNL1        0.0624
     30 H          -5.9959   -2.7985   -2.2220 H       1  UNL1        0.0623
     31 H          -6.1350   -2.7936    2.0926 H       1  UNL1        0.0623
     32 H          -4.0937   -1.4242    2.1598 H       1  UNL1        0.0624
@<TRIPOS>BOND
     1     1     2    2
     2     2     3    1
     3     3     4    1
     4     4     5   ar
     5     5     6   ar
     6     6     7   ar
     7     7     8   ar
     8     8     9   ar
     9     4     9   ar
    10     9    10    1
    11     1    10    1
    12    10    11    2
    13     3    12    2
    14     3    13    2
    15     7    14    1
    16    16    17   ar
    17    17    18   ar
    18    18    19   ar
    19    19    20   ar
    20    15    16   ar
    21    15    20   ar
    22     2    15    1
    23    18    21    1
    24    21    22    1
    25    21    23    1
    26    21    24    1
    27     1    25    1
    28     5    26    1
    29     6    27    1
    30     8    28    1
    31    16    29    1
    32    17    30    1
    33    19    31    1
    34    20    32    1
