@<TRIPOS>MOLECULE
mol_785_akc_d3md00243h
(E)-4-[2-(5-nitrofurfurylene)hydrazinyl]-2-(4-fluorophenyl)quinazoline
 40 43 0 0 0
SMALL
GASTEIGER

@<TRIPOS>ATOM
      1 C           2.5295    0.7068    0.0277 C.ar    1  UNL1       -0.0610
      2 C           2.5006   -0.6790    0.0766 C.ar    1  UNL1       -0.0597
      3 C           1.2727   -1.3466    0.0913 C.ar    1  UNL1       -0.0356
      4 C           0.0619   -0.6650    0.0538 C.ar    1  UNL1        0.0767
      5 N          -1.0698   -1.3746    0.0764 N.ar    1  UNL1       -0.2271
      6 C          -2.2304   -0.7030    0.0048 C.ar    1  UNL1        0.1624
      7 N          -2.3263    0.6293   -0.1122 N.ar    1  UNL1       -0.2105
      8 C          -1.1823    1.3426   -0.1174 C.ar    1  UNL1        0.1496
      9 C           0.0823    0.7324   -0.0216 C.ar    1  UNL1        0.0418
     10 C           1.3299    1.4121   -0.0281 C.ar    1  UNL1       -0.0492
     11 C          -3.4875   -1.4815    0.0528 C.ar    1  UNL1        0.0194
     12 C          -3.4815   -2.8880    0.1685 C.ar    1  UNL1       -0.0483
     13 C          -4.6714   -3.6225    0.2261 C.ar    1  UNL1       -0.0258
     14 C          -5.8884   -2.9595    0.1668 C.ar    1  UNL1        0.1234
     15 C          -5.9384   -1.5783    0.0486 C.ar    1  UNL1       -0.0258
     16 C          -4.7470   -0.8472   -0.0073 C.ar    1  UNL1       -0.0483
     17 F          -7.0281   -3.6604    0.2268 F       1  UNL1       -0.2055
     18 N          -1.2445    2.7618   -0.3307 N.pl3   1  UNL1       -0.2203
     19 N          -2.4605    3.3721   -0.5495 N.2     1  UNL1       -0.1856
     20 O          -4.9311    3.0177   -3.1353 O.2     1  UNL1       -0.3992
     21 C          -4.3397    3.5339   -2.0136 C.ar    1  UNL1        0.1545
     22 C          -3.0850    2.9664   -1.6132 C.2     1  UNL1        0.0880
     23 C          -5.1179    4.5606   -1.5058 C.ar    1  UNL1       -0.0078
     24 C          -6.2385    4.6943   -2.3678 C.ar    1  UNL1        0.0595
     25 C          -6.0708    3.7292   -3.3318 C.ar    1  UNL1        0.4380
     26 N          -6.8514    3.3709   -4.4723 N.pl3   1  UNL1        0.1186
     27 O          -7.8921    4.0152   -4.6483 O.2     1  UNL1        0.0446
     28 O          -6.4367    2.4543   -5.1928 O.co2   1  UNL1       -0.5735
     29 H           3.4789    1.2366    0.0207 H       1  UNL1        0.0618
     30 H           3.4276   -1.2466    0.0999 H       1  UNL1        0.0618
     31 H           1.2624   -2.4343    0.1241 H       1  UNL1        0.0639
     32 H           1.3734    2.4969   -0.0885 H       1  UNL1        0.0625
     33 H          -2.5359   -3.4266    0.2175 H       1  UNL1        0.0625
     34 H          -4.6512   -4.7037    0.3183 H       1  UNL1        0.0646
     35 H          -6.8993   -1.0760    0.0031 H       1  UNL1        0.0646
     36 H          -4.8070    0.2369   -0.0948 H       1  UNL1        0.0625
     37 H          -0.7058    3.2137    0.4088 H       1  UNL1        0.1760
     38 H          -2.6724    2.1812   -2.2723 H       1  UNL1        0.0883
     39 H          -4.8857    5.1494   -0.6272 H       1  UNL1        0.0658
     40 H          -7.0535    5.4021   -2.2994 H       1  UNL1        0.0722
@<TRIPOS>UNITY_ATOM_ATTR
26 1
charge 1
28 1
charge -1
@<TRIPOS>BOND
     1     1     2   ar
     2     2     3   ar
     3     3     4   ar
     4     4     5   ar
     5     5     6   ar
     6     6     7   ar
     7     7     8   ar
     8     8     9   ar
     9     4     9   ar
    10     9    10   ar
    11     1    10   ar
    12    11    12   ar
    13    12    13   ar
    14    13    14   ar
    15    14    15   ar
    16    15    16   ar
    17    11    16   ar
    18    14    17    1
    19     6    11    1
    20    18    19    1
    21    20    21   ar
    22    21    22    1
    23    21    23   ar
    24    23    24   ar
    25    24    25   ar
    26    20    25   ar
    27    26    27    2
    28    26    28    1
    29    25    26    1
    30    19    22    2
    31     8    18    1
    32     1    29    1
    33     2    30    1
    34     3    31    1
    35    10    32    1
    36    12    33    1
    37    13    34    1
    38    15    35    1
    39    16    36    1
    40    18    37    1
    41    22    38    1
    42    23    39    1
    43    24    40    1
