@<TRIPOS>MOLECULE
mol_786_akc_jintimp2023110750
2-{[(5-bromo-1H-indol-3-yl)-methylene]amino}-5,6,7,8-tetrahydro-4H-cyclohepta[b]thiophene-3-carbonitrile
 40 43 0 0 0
SMALL
GASTEIGER

@<TRIPOS>ATOM
      1 S          -2.5011    0.8900   -0.5856 S.2     1  UNL1       -0.0727
      2 C          -2.1980   -1.6150   -0.2025 C.ar    1  UNL1        0.0877
      3 C          -3.1915   -0.6871   -0.4816 C.ar    1  UNL1        0.1189
      4 C          -0.9266    0.3545   -0.2384 C.ar    1  UNL1       -0.0037
      5 C          -0.8761   -1.0194   -0.0659 C.ar    1  UNL1       -0.0177
      6 C           0.3960   -1.7863    0.2149 C.3     1  UNL1       -0.0256
      7 C           1.5778   -1.2954   -0.6246 C.3     1  UNL1       -0.0490
      8 C           2.2791   -0.0492   -0.0750 C.3     1  UNL1       -0.0524
      9 C           1.3892    0.9943    0.5996 C.3     1  UNL1       -0.0486
     10 C           0.1663    1.3908   -0.2175 C.3     1  UNL1       -0.0211
     11 C          -2.4620   -3.0157   -0.0719 C.1     1  UNL1        0.1021
     12 N          -2.6799   -4.1545    0.0460 N.1     1  UNL1       -0.1908
     13 N          -4.5305   -0.6675   -0.6715 N.2     1  UNL1       -0.2465
     14 C          -5.3659   -1.5628   -0.2790 C.2     1  UNL1        0.0380
     15 C          -7.1211    0.1726   -0.6469 C.ar    1  UNL1        0.0113
     16 C          -6.7539   -1.1124   -0.2740 C.ar    1  UNL1        0.0181
     17 C          -7.9470   -1.7435    0.2117 C.ar    1  UNL1        0.0093
     18 C          -8.3137   -3.0515    0.5976 C.ar    1  UNL1       -0.0380
     19 C          -9.5796   -3.2594    1.1662 C.ar    1  UNL1        0.0186
     20 C         -10.4435   -2.1998    1.4310 C.ar    1  UNL1       -0.0458
     21 C         -10.1118   -0.9049    1.0380 C.ar    1  UNL1       -0.0367
     22 C          -8.8929   -0.7238    0.3796 C.ar    1  UNL1        0.0472
     23 N          -8.3835    0.4103   -0.2010 N.ar    1  UNL1       -0.3600
     24 BR        -10.1438   -5.0210    1.5731 Br      1  UNL1       -0.0503
     25 H           0.2395   -2.8458   -0.0202 H       1  UNL1        0.0314
     26 H           0.6295   -1.7350    1.2851 H       1  UNL1        0.0314
     27 H           1.2498   -1.1023   -1.6546 H       1  UNL1        0.0268
     28 H           2.3259   -2.0947   -0.6909 H       1  UNL1        0.0268
     29 H           3.0396   -0.3616    0.6513 H       1  UNL1        0.0265
     30 H           2.8293    0.4250   -0.8982 H       1  UNL1        0.0265
     31 H           1.0866    0.6444    1.5945 H       1  UNL1        0.0269
     32 H           1.9993    1.8909    0.7683 H       1  UNL1        0.0269
     33 H           0.4608    1.6273   -1.2472 H       1  UNL1        0.0318
     34 H          -0.2301    2.3182    0.2179 H       1  UNL1        0.0318
     35 H          -5.1225   -2.5456    0.1539 H       1  UNL1        0.0836
     36 H          -6.5344    0.9646   -1.0973 H       1  UNL1        0.0813
     37 H          -7.6427   -3.8871    0.4263 H       1  UNL1        0.0635
     38 H         -11.3964   -2.3695    1.9273 H       1  UNL1        0.0629
     39 H         -10.7818   -0.0721    1.2281 H       1  UNL1        0.0639
     40 H          -8.8634    1.2977   -0.2601 H       1  UNL1        0.1654
@<TRIPOS>BOND
     1     1     4   ar
     2     5     2   ar
     3     2     3   ar
     4     1     3   ar
     5     4     5   ar
     6     5     6    1
     7     6     7    1
     8     7     8    1
     9     8     9    1
    10     9    10    1
    11     4    10    1
    12    11    12    3
    13     2    11    1
    14    15    16   ar
    15    16    17   ar
    16    17    18   ar
    17    18    19   ar
    18    19    20   ar
    19    20    21   ar
    20    21    22   ar
    21    17    22   ar
    22    22    23   ar
    23    15    23   ar
    24    19    24    1
    25    14    16    1
    26    13    14    2
    27    13     3    1
    28     6    25    1
    29     6    26    1
    30     7    27    1
    31     7    28    1
    32     8    29    1
    33     8    30    1
    34     9    31    1
    35     9    32    1
    36    10    33    1
    37    10    34    1
    38    14    35    1
    39    15    36    1
    40    18    37    1
    41    20    38    1
    42    21    39    1
    43    23    40    1
