@<TRIPOS>MOLECULE
mol_787_akc_slct202302415
*****
 24 25 0 0 0
SMALL
GASTEIGER

@<TRIPOS>ATOM
      1 C           1.1198   -0.7614   -0.5576 C.2     1  UNL1        0.2577
      2 N           0.0437   -1.2554   -1.2308 N.am    1  UNL1       -0.2425
      3 C          -0.8269   -0.3724   -1.7817 C.2     1  UNL1        0.2832
      4 S          -0.2818    1.2662   -1.4755 S.3     1  UNL1       -0.0260
      5 C           1.0904    0.7248   -0.5827 C.2     1  UNL1        0.0795
      6 O          -1.8404   -0.6567   -2.3950 O.2     1  UNL1       -0.2622
      7 O           1.9703   -1.4430   -0.0090 O.2     1  UNL1       -0.2692
      8 C           2.0175    1.4607    0.0439 C.2     1  UNL1       -0.0357
      9 C           2.0332    2.9233    0.1098 C.ar    1  UNL1       -0.0238
     10 C           1.3703    3.5824    1.1499 C.ar    1  UNL1       -0.0540
     11 C           2.7097    3.6706   -0.8583 C.ar    1  UNL1       -0.0540
     12 C           2.7144    5.0671   -0.7929 C.ar    1  UNL1       -0.0496
     13 C           2.0406    5.7369    0.2400 C.ar    1  UNL1        0.0548
     14 C           1.3737    4.9785    1.2146 C.ar    1  UNL1       -0.0496
     15 C           2.0147    7.2450    0.3073 C.3     1  UNL1        0.4174
     16 F           2.6995    7.8481   -0.7045 F       1  UNL1       -0.1659
     17 F           0.7494    7.7461    0.2502 F       1  UNL1       -0.1659
     18 F           2.5549    7.7261    1.4612 F       1  UNL1       -0.1659
     19 H          -0.1164   -2.2463   -1.3017 H       1  UNL1        0.1587
     20 H           2.8301    0.9721    0.5782 H       1  UNL1        0.0636
     21 H           0.8438    3.0161    1.9153 H       1  UNL1        0.0624
     22 H           3.2353    3.1750   -1.6719 H       1  UNL1        0.0624
     23 H           3.2455    5.6323   -1.5579 H       1  UNL1        0.0623
     24 H           0.8481    5.4758    2.0292 H       1  UNL1        0.0623
@<TRIPOS>BOND
     1     1     2   am
     2     2     3   am
     3     3     4    1
     4     4     5    1
     5     1     5    1
     6     3     6    2
     7     1     7    2
     8     5     8    2
     9     8     9    1
    10    10     9   ar
    11     9    11   ar
    12    11    12   ar
    13    12    13   ar
    14    13    14   ar
    15    10    14   ar
    16    13    15    1
    17    15    16    1
    18    15    17    1
    19    15    18    1
    20     2    19    1
    21     8    20    1
    22    10    21    1
    23    11    22    1
    24    12    23    1
    25    14    24    1
