@<TRIPOS>MOLECULE
mol_788_akc_ph16081113
*****
 66 69 0 0 0
SMALL
GASTEIGER

@<TRIPOS>ATOM
      1 C          -2.1420    2.8312    2.3808 C.ar    1  UNL1       -0.0092
      2 C          -3.3885    2.3252    2.7845 C.ar    1  UNL1        0.1620
      3 C          -3.6609    0.9627    2.5780 C.ar    1  UNL1        0.1615
      4 C          -2.6913    0.1554    1.9619 C.ar    1  UNL1       -0.0157
      5 C          -1.4521    0.6714    1.5710 C.ar    1  UNL1       -0.0509
      6 C          -1.1665    2.0171    1.7809 C.ar    1  UNL1       -0.0212
      7 C           0.1431    2.6215    1.4863 C.2     1  UNL1       -0.0496
      8 C           0.9837    2.2721    0.5028 C.2     1  UNL1        0.0007
      9 C           2.2403    3.0472    0.3690 C.2     1  UNL1        0.2372
     10 O           2.5228    3.9849    1.1047 O.2     1  UNL1       -0.2708
     11 N           3.0414    2.6161   -0.6508 N.am    1  UNL1       -0.3061
     12 C           4.3331    3.2217   -0.8516 C.3     1  UNL1        0.0575
     13 C           4.7025    3.1236   -2.2800 C.ar    1  UNL1        0.1003
     14 N           5.1482    1.9501   -2.8080 N.ar    1  UNL1       -0.1326
     15 C           4.7292    4.0944   -3.2575 C.ar    1  UNL1        0.0562
     16 N           5.4546    3.5311   -4.2989 N.ar    1  UNL1       -0.2128
     17 N           5.5392    2.1856   -4.0494 N.ar    1  UNL1       -0.0603
     18 O          -4.3468    3.1035    3.3771 O.3     1  UNL1       -0.4914
     19 O          -4.7898    0.2557    2.9026 O.3     1  UNL1       -0.4915
     20 C          -5.8137    0.9009    3.6443 C.3     1  UNL1        0.0790
     21 C          -4.0663    4.4811    3.5900 C.3     1  UNL1        0.0790
     22 C           6.1384    4.2121   -5.3224 C.ar    1  UNL1        0.1518
     23 C           6.1253    5.7014   -5.3451 C.ar    1  UNL1        0.3631
     24 C           7.3482    3.7694   -5.7426 C.ar    1  UNL1       -0.0185
     25 C           8.2724    4.0950   -4.6270 C.ar    1  UNL1        0.0197
     26 C           8.2027    5.4142   -4.1632 C.ar    1  UNL1        0.1409
     27 O           7.2636    6.2920   -4.7663 O.2     1  UNL1       -0.4206
     28 C           8.9666    3.1581   -3.8863 C.ar    1  UNL1       -0.0493
     29 C           9.5823    3.5649   -2.6907 C.ar    1  UNL1       -0.0399
     30 C           9.5578    4.9028   -2.2227 C.ar    1  UNL1        0.0332
     31 C           8.8694    5.8327   -3.0168 C.ar    1  UNL1        0.0024
     32 O           5.1801    6.3490   -5.7731 O.2     1  UNL1       -0.2428
     33 N          10.0996    5.2366   -0.9819 N.pl3   1  UNL1       -0.3303
     34 C           9.7296    6.4846   -0.2927 C.3     1  UNL1        0.0093
     35 C           8.2808    6.4599    0.1794 C.3     1  UNL1       -0.0494
     36 C          11.3542    4.6067   -0.5403 C.3     1  UNL1        0.0093
     37 C          12.5667    5.3728   -1.0509 C.3     1  UNL1       -0.0494
     38 H          -1.8984    3.8791    2.5278 H       1  UNL1        0.0661
     39 H          -2.9025   -0.9005    1.8034 H       1  UNL1        0.0655
     40 H          -0.7220   -0.0009    1.1298 H       1  UNL1        0.0625
     41 H           0.4107    3.4493    2.1462 H       1  UNL1        0.0625
     42 H           0.7714    1.4795   -0.1981 H       1  UNL1        0.0669
     43 H           2.8435    1.7540   -1.1411 H       1  UNL1        0.1494
     44 H           4.3287    4.2665   -0.5228 H       1  UNL1        0.0528
     45 H           5.0573    2.6799   -0.2329 H       1  UNL1        0.0528
     46 H           4.4643    5.1419   -3.2403 H       1  UNL1        0.0850
     47 H          -5.4420    1.2736    4.6047 H       1  UNL1        0.0660
     48 H          -6.2931    1.6876    3.0536 H       1  UNL1        0.0660
     49 H          -6.5823    0.1537    3.8665 H       1  UNL1        0.0660
     50 H          -3.1897    4.6159    4.2326 H       1  UNL1        0.0660
     51 H          -3.9475    5.0078    2.6374 H       1  UNL1        0.0660
     52 H          -4.9235    4.9195    4.1087 H       1  UNL1        0.0660
     53 H           7.7937    4.1859   -6.6516 H       1  UNL1        0.0648
     54 H           8.9479    2.1054   -4.1535 H       1  UNL1        0.0625
     55 H          10.0104    2.7784   -2.0762 H       1  UNL1        0.0636
     56 H           8.7750    6.8725   -2.7243 H       1  UNL1        0.0673
     57 H          10.3550    6.6150    0.5998 H       1  UNL1        0.0461
     58 H           9.9299    7.3586   -0.9221 H       1  UNL1        0.0461
     59 H           8.0999    5.6048    0.8396 H       1  UNL1        0.0245
     60 H           8.0509    7.3752    0.7343 H       1  UNL1        0.0245
     61 H           7.5724    6.3920   -0.6505 H       1  UNL1        0.0245
     62 H          11.3787    4.5809    0.5563 H       1  UNL1        0.0461
     63 H          11.4394    3.5605   -0.8489 H       1  UNL1        0.0461
     64 H          12.5926    6.3901   -0.6449 H       1  UNL1        0.0245
     65 H          13.4880    4.8667   -0.7415 H       1  UNL1        0.0245
     66 H          12.5656    5.4439   -2.1415 H       1  UNL1        0.0245
@<TRIPOS>BOND
     1     1     2   ar
     2     1     6   ar
     3     2     3   ar
     4     3     4   ar
     5     4     5   ar
     6     5     6   ar
     7     6     7    1
     8     7     8    2
     9     8     9    1
    10     9    10    2
    11     9    11   am
    12    11    12    1
    13    12    13    1
    14    14    13   ar
    15    13    15   ar
    16    14    17   ar
    17    15    16   ar
    18    16    17   ar
    19     2    18    1
    20     3    19    1
    21    19    20    1
    22    18    21    1
    23    16    22    1
    24    23    22   ar
    25    22    24   ar
    26    23    27   ar
    27    24    25   ar
    28    26    27   ar
    29    25    28   ar
    30    26    25   ar
    31    26    31   ar
    32    28    29   ar
    33    29    30   ar
    34    30    31   ar
    35    23    32    2
    36    30    33    1
    37    33    34    1
    38    34    35    1
    39    33    36    1
    40    36    37    1
    41     1    38    1
    42     4    39    1
    43     5    40    1
    44     7    41    1
    45     8    42    1
    46    11    43    1
    47    12    44    1
    48    12    45    1
    49    15    46    1
    50    20    47    1
    51    20    48    1
    52    20    49    1
    53    21    50    1
    54    21    51    1
    55    21    52    1
    56    24    53    1
    57    28    54    1
    58    29    55    1
    59    31    56    1
    60    34    57    1
    61    34    58    1
    62    35    59    1
    63    35    60    1
    64    35    61    1
    65    36    62    1
    66    36    63    1
    67    37    64    1
    68    37    65    1
    69    37    66    1
