@<TRIPOS>MOLECULE
mol_789_akc_jalgal2023103241
76317957
 73 76 0 0 0
SMALL
GASTEIGER

@<TRIPOS>ATOM
      1 S           3.1714    1.2221   -2.3396 S.2     1  UNL1       -0.0779
      2 O          -0.2759   -3.8911   -0.4362 O.2     1  UNL1       -0.4726
      3 O          -3.8681    2.1298    0.0326 O.2     1  UNL1       -0.4727
      4 O           2.8081   -2.5930   -0.8606 O.2     1  UNL1       -0.2733
      5 O          -3.7857   -2.2170    1.2399 O.2     1  UNL1       -0.2733
      6 O          -0.7855    3.4855   -1.8174 O.2     1  UNL1       -0.2685
      7 N          -2.5362   -1.0250   -0.2649 N.am    1  UNL1       -0.3018
      8 N           0.0067   -1.9154    0.6948 N.2     1  UNL1       -0.2365
      9 N           2.8471   -1.0120    0.8029 N.am    1  UNL1       -0.3044
     10 N          -2.6920    1.0538    1.6689 N.2     1  UNL1       -0.2365
     11 N           1.7347    1.4421   -0.2088 N.ar    1  UNL1       -0.2375
     12 N          -0.5814    2.7536    0.3510 N.am    1  UNL1       -0.2989
     13 C          -1.9208   -2.1800   -0.9047 C.3     1  UNL1        0.1010
     14 C           1.1850   -2.7678    0.9689 C.3     1  UNL1        0.1661
     15 C          -1.5415   -1.8459   -2.3653 C.3     1  UNL1       -0.0196
     16 C           0.7918   -4.1467    0.4710 C.3     1  UNL1        0.1295
     17 C          -0.6875   -2.6343   -0.1377 C.2     1  UNL1        0.2073
     18 C           3.7181   -0.0684    0.1012 C.3     1  UNL1        0.0743
     19 C           4.5693    0.7150    1.1357 C.3     1  UNL1       -0.0196
     20 C          -3.8693    0.2037    1.3624 C.3     1  UNL1        0.1661
     21 C           2.3620   -2.1514    0.1949 C.2     1  UNL1        0.2418
     22 C          -4.6728    0.9864    0.3296 C.3     1  UNL1        0.1295
     23 C           5.4864    1.7591    0.4600 C.3     1  UNL1       -0.0513
     24 C          -3.3900   -1.1389    0.8054 C.2     1  UNL1        0.2419
     25 C          -2.7859   -1.4435   -3.1650 C.3     1  UNL1       -0.0605
     26 C          -0.4859   -0.7385   -2.4644 C.3     1  UNL1       -0.0605
     27 C           0.2616   -5.0319    1.5972 C.3     1  UNL1       -0.0252
     28 C           2.8163    0.8583   -0.6945 C.ar    1  UNL1        0.0996
     29 C           5.3923   -0.2688    1.9808 C.3     1  UNL1       -0.0604
     30 C          -2.8256    2.0778    0.8880 C.2     1  UNL1        0.2068
     31 C          -1.8622    3.2441    0.8176 C.3     1  UNL1        0.0961
     32 C          -6.0067    1.4742    0.8706 C.3     1  UNL1       -0.0252
     33 C           6.3412    2.5450    1.4449 C.3     1  UNL1       -0.0650
     34 C           1.1109    2.1940   -1.2069 C.ar    1  UNL1        0.1328
     35 C          -1.7152    3.8878    2.1887 C.3     1  UNL1       -0.0380
     36 C          -0.1576    2.8777   -0.9466 C.2     1  UNL1        0.2635
     37 C           1.7672    2.1989   -2.4208 C.ar    1  UNL1        0.0079
     38 H          -2.6406   -3.0081   -0.8855 H       1  UNL1        0.0598
     39 H           1.4292   -2.7687    2.0344 H       1  UNL1        0.0679
     40 H          -1.1173   -2.7452   -2.8296 H       1  UNL1        0.0318
     41 H           1.5995   -4.6683   -0.0523 H       1  UNL1        0.0757
     42 H           4.3725   -0.6365   -0.5724 H       1  UNL1        0.0572
     43 H           3.8916    1.2521    1.8160 H       1  UNL1        0.0320
     44 H          -4.4364    0.0056    2.2776 H       1  UNL1        0.0679
     45 H          -2.0662   -0.1338   -0.3593 H       1  UNL1        0.1495
     46 H          -4.8397    0.4287   -0.5990 H       1  UNL1        0.0757
     47 H           2.2626   -0.6185    1.5334 H       1  UNL1        0.1494
     48 H           4.8797    2.4870   -0.0902 H       1  UNL1        0.0266
     49 H           6.1388    1.2677   -0.2720 H       1  UNL1        0.0266
     50 H          -3.2228   -0.5116   -2.7885 H       1  UNL1        0.0233
     51 H          -3.5521   -2.2231   -3.1077 H       1  UNL1        0.0233
     52 H          -2.5361   -1.2891   -4.2189 H       1  UNL1        0.0233
     53 H          -0.8576    0.2047   -2.0556 H       1  UNL1        0.0233
     54 H          -0.2046   -0.5570   -3.5057 H       1  UNL1        0.0233
     55 H           0.4268   -1.0070   -1.9245 H       1  UNL1        0.0233
     56 H          -0.5880   -4.5615    2.1076 H       1  UNL1        0.0266
     57 H           1.0402   -5.2404    2.3362 H       1  UNL1        0.0266
     58 H          -0.1053   -5.9821    1.1940 H       1  UNL1        0.0266
     59 H           4.7587   -1.0282    2.4492 H       1  UNL1        0.0233
     60 H           5.9111    0.2428    2.7959 H       1  UNL1        0.0233
     61 H           6.1356   -0.7823    1.3621 H       1  UNL1        0.0233
     62 H          -2.2527    3.9829    0.1102 H       1  UNL1        0.0593
     63 H          -5.8660    2.0958    1.7610 H       1  UNL1        0.0266
     64 H          -6.6597    0.6340    1.1233 H       1  UNL1        0.0266
     65 H          -6.5092    2.1008    0.1270 H       1  UNL1        0.0266
     66 H           6.8481    3.3674    0.9307 H       1  UNL1        0.0230
     67 H           7.1140    1.9150    1.8946 H       1  UNL1        0.0230
     68 H           5.7263    2.9699    2.2446 H       1  UNL1        0.0230
     69 H          -0.0526    2.0972    0.9308 H       1  UNL1        0.1498
     70 H          -2.6816    4.2433    2.5610 H       1  UNL1        0.0252
     71 H          -1.0273    4.7387    2.1426 H       1  UNL1        0.0252
     72 H          -1.3140    3.1813    2.9250 H       1  UNL1        0.0252
     73 H           1.4804    2.7018   -3.3350 H       1  UNL1        0.0717
@<TRIPOS>BOND
     1     1    28   ar
     2     1    37   ar
     3     2    16    1
     4     2    17    1
     5     3    22    1
     6     3    30    1
     7     4    21    2
     8     5    24    2
     9     6    36    2
    10     7    13    1
    11     7    24   am
    12     7    45    1
    13     8    14    1
    14     8    17    2
    15     9    18    1
    16     9    21   am
    17     9    47    1
    18    10    20    1
    19    10    30    2
    20    11    28   ar
    21    11    34   ar
    22    12    31    1
    23    12    36   am
    24    12    69    1
    25    13    15    1
    26    13    17    1
    27    13    38    1
    28    14    16    1
    29    14    21    1
    30    14    39    1
    31    15    25    1
    32    15    26    1
    33    15    40    1
    34    16    27    1
    35    16    41    1
    36    18    19    1
    37    18    28    1
    38    18    42    1
    39    19    23    1
    40    19    29    1
    41    19    43    1
    42    20    22    1
    43    20    24    1
    44    20    44    1
    45    22    32    1
    46    22    46    1
    47    23    33    1
    48    23    48    1
    49    23    49    1
    50    25    50    1
    51    25    51    1
    52    25    52    1
    53    26    53    1
    54    26    54    1
    55    26    55    1
    56    27    56    1
    57    27    57    1
    58    27    58    1
    59    29    59    1
    60    29    60    1
    61    29    61    1
    62    30    31    1
    63    31    35    1
    64    31    62    1
    65    32    63    1
    66    32    64    1
    67    32    65    1
    68    33    66    1
    69    33    67    1
    70    33    68    1
    71    34    36    1
    72    34    37   ar
    73    35    70    1
    74    35    71    1
    75    35    72    1
    76    37    73    1
