@<TRIPOS>MOLECULE
mol_78_akc_jejmech201607014
>77.sdf
 27 28 0 0 0
SMALL
GASTEIGER

@<TRIPOS>ATOM
      1 N           3.4776    1.3355   -1.6927 N.am    1  UNL1       -0.3394
      2 C           4.6145    0.6062   -1.6094 C.2     1  UNL1        0.1473
      3 S           5.2722   -0.1551   -2.9274 S.2     1  UNL1       -0.0174
      4 N           5.2101    0.5818   -0.3788 N.am    1  UNL1       -0.2186
      5 N           4.6754    1.2529    0.6807 N.2     1  UNL1       -0.1885
      6 C           5.4519    1.5944    1.6699 C.2     1  UNL1        0.0533
      7 C           6.9335    1.5424    1.7781 C.ar    1  UNL1        0.0024
      8 C           7.6980    1.8255    0.6336 C.ar    1  UNL1       -0.0498
      9 C           9.0859    1.8247    0.6986 C.ar    1  UNL1       -0.0252
     10 C           9.7124    1.5922    1.9140 C.ar    1  UNL1        0.1311
     11 F          11.0537    1.6121    1.9485 F       1  UNL1       -0.2049
     12 C           8.9804    1.3646    3.0899 C.ar    1  UNL1        0.0179
     13 C           9.6516    1.1815    4.3126 C.ar    1  UNL1       -0.0513
     14 C           8.9470    0.9739    5.4958 C.ar    1  UNL1       -0.0611
     15 C           7.5604    0.9284    5.4689 C.ar    1  UNL1       -0.0611
     16 C           6.8776    1.0938    4.2589 C.ar    1  UNL1       -0.0533
     17 C           7.5638    1.3313    3.0402 C.ar    1  UNL1       -0.0065
     18 H           2.9439    1.3878   -2.5474 H       1  UNL1        0.1440
     19 H           3.0963    1.6848   -0.8215 H       1  UNL1        0.1440
     20 H           6.0681    0.0499   -0.2693 H       1  UNL1        0.1762
     21 H           4.9300    2.0269    2.5397 H       1  UNL1        0.0851
     22 H           7.2234    2.0780   -0.3115 H       1  UNL1        0.0625
     23 H           9.6836    2.0258   -0.1852 H       1  UNL1        0.0646
     24 H          10.7401    1.2111    4.3487 H       1  UNL1        0.0624
     25 H           9.4824    0.8485    6.4332 H       1  UNL1        0.0618
     26 H           7.0050    0.7641    6.3898 H       1  UNL1        0.0618
     27 H           5.7928    1.0349    4.2929 H       1  UNL1        0.0624
@<TRIPOS>BOND
     1     1    18    1
     2     1    19    1
     3     2     1    1
     4     3     2    2
     5     4     2    1
     6     4    20    1
     7     5     4    1
     8     6     5    2
     9     6    21    1
    10     7     6    1
    11     8     7   ar
    12     8    22    1
    13     9     8   ar
    14     9    23    1
    15    10     9   ar
    16    11    10    1
    17    12    10   ar
    18    13    12   ar
    19    13    24    1
    20    14    13   ar
    21    14    25    1
    22    15    14   ar
    23    15    26    1
    24    16    15   ar
    25    16    27    1
    26    17    16   ar
    27    17     7   ar
    28    17    12   ar
