@<TRIPOS>MOLECULE
mol_790_akc_jalgal2023103241
46237174
 119 119 0 0 0
SMALL
GASTEIGER

@<TRIPOS>ATOM
      1 O           7.1181   -2.0617   -1.3175 O.2     1  UNL1       -0.2735
      2 O           5.4668   -3.7514    3.2164 O.2     1  UNL1       -0.2737
      3 O           8.8645    1.5543   -3.3249 O.2     1  UNL1       -0.2753
      4 O           1.9585   -3.0559    1.3538 O.2     1  UNL1       -0.2735
      5 O           0.1429   -7.0570    4.1612 O.2     1  UNL1       -0.2736
      6 O          13.7217    2.6179   -8.0427 O.2     1  UNL1       -0.2977
      7 O          -4.0131   -4.1305    4.0611 O.2     1  UNL1       -0.2740
      8 N           7.1200   -1.4997    0.9030 N.am    1  UNL1       -0.2912
      9 N           9.2166    0.0479   -1.5950 N.am    1  UNL1       -0.2925
     10 N           4.4863   -1.9812    2.1846 N.am    1  UNL1       -0.3022
     11 N           1.7894   -4.1142    3.3992 N.am    1  UNL1       -0.2917
     12 N          -1.2650   -5.3459    3.5969 N.am    1  UNL1       -0.2911
     13 N          -4.7781   -5.9503    5.0911 N.am    1  UNL1       -0.3278
     14 C           7.8916    0.2135   -0.8733 C.3     1  UNL1        0.1043
     15 C           6.6627   -2.8701    1.2820 C.3     1  UNL1        0.1042
     16 C           6.7788    1.0784   -1.5415 C.3     1  UNL1       -0.0195
     17 C           7.7938   -3.8653    1.7234 C.3     1  UNL1       -0.0195
     18 C           7.3232   -1.2023   -0.4541 C.2     1  UNL1        0.2367
     19 C           3.3372   -2.0830    3.1041 C.3     1  UNL1        0.1019
     20 C           5.5161   -2.9001    2.3386 C.2     1  UNL1        0.2344
     21 C          10.9300    0.3468   -3.4461 C.3     1  UNL1        0.0330
     22 C           2.7452   -0.7130    3.5087 C.3     1  UNL1       -0.0197
     23 C           9.5624    0.6884   -2.7964 C.2     1  UNL1        0.2188
     24 C           6.1549    0.4648   -2.8003 C.3     1  UNL1       -0.0605
     25 C           5.6419    1.4271   -0.5660 C.3     1  UNL1       -0.0605
     26 C          10.9331    0.5816   -4.9843 C.3     1  UNL1       -0.0422
     27 C           8.7607   -4.2371    0.6012 C.3     1  UNL1       -0.0605
     28 C           8.5928   -3.4382    2.9612 C.3     1  UNL1       -0.0605
     29 C           7.4306   -0.5659    1.9782 C.3     1  UNL1        0.0040
     30 C          10.1506   -0.8428   -0.9095 C.3     1  UNL1        0.0039
     31 C           2.2917   -3.1152    2.5429 C.2     1  UNL1        0.2365
     32 C          12.3097    0.3430   -5.6325 C.3     1  UNL1       -0.0520
     33 C          12.0403    1.1372   -2.7368 C.3     1  UNL1       -0.0541
     34 C           3.7344    0.0416    4.4149 C.3     1  UNL1       -0.0605
     35 C           2.3456    0.2011    2.3501 C.3     1  UNL1       -0.0605
     36 C           1.1927   -5.3407    2.7889 C.3     1  UNL1        0.0993
     37 C          12.2930    0.1266   -7.1525 C.3     1  UNL1       -0.0464
     38 C          -0.0179   -5.9832    3.5668 C.2     1  UNL1        0.2362
     39 C           2.2980   -4.2555    4.7583 C.3     1  UNL1        0.0040
     40 C          11.7298    1.2737   -7.9846 C.3     1  UNL1        0.0055
     41 C           2.2850   -6.4170    2.6251 C.3     1  UNL1       -0.0379
     42 C          -2.3625   -5.9585    4.4330 C.3     1  UNL1        0.1056
     43 C          -1.9391   -6.2602    5.9056 C.3     1  UNL1       -0.0005
     44 C          -1.6533   -4.4031    2.5555 C.3     1  UNL1        0.0040
     45 C          12.5106    2.5628   -7.8265 C.2     1  UNL1        0.1303
     46 C          -3.7612   -5.2519    4.4925 C.2     1  UNL1        0.2313
     47 C          -1.1407   -5.1892    6.6168 C.ar    1  UNL1       -0.0451
     48 C          11.7457    3.7718   -7.3576 C.3     1  UNL1       -0.0061
     49 C          -1.4023   -3.8250    6.4450 C.ar    1  UNL1       -0.0585
     50 C          -0.1154   -5.5760    7.4902 C.ar    1  UNL1       -0.0585
     51 C          -0.6225   -2.8643    7.0910 C.ar    1  UNL1       -0.0615
     52 C           0.6609   -4.6153    8.1438 C.ar    1  UNL1       -0.0615
     53 C           0.4115   -3.2633    7.9344 C.ar    1  UNL1       -0.0617
     54 H           8.1887    0.7595    0.0273 H       1  UNL1        0.0599
     55 H           6.1967   -3.3181    0.3933 H       1  UNL1        0.0599
     56 H           7.2235    2.0442   -1.8081 H       1  UNL1        0.0318
     57 H           7.2973   -4.8089    1.9946 H       1  UNL1        0.0318
     58 H           3.7463   -2.4924    4.0288 H       1  UNL1        0.0597
     59 H          11.1027   -0.7286   -3.3162 H       1  UNL1        0.0391
     60 H           1.8411   -0.9047    4.1005 H       1  UNL1        0.0318
     61 H           4.3100   -1.6433    1.2434 H       1  UNL1        0.1495
     62 H           5.4694   -0.3531   -2.5557 H       1  UNL1        0.0233
     63 H           5.5733    1.2244   -3.3360 H       1  UNL1        0.0233
     64 H           6.9025    0.0728   -3.4934 H       1  UNL1        0.0233
     65 H           6.0292    1.7909    0.3890 H       1  UNL1        0.0233
     66 H           5.0197    2.2280   -0.9830 H       1  UNL1        0.0233
     67 H           4.9899    0.5683   -0.3746 H       1  UNL1        0.0233
     68 H          10.1960   -0.0957   -5.4345 H       1  UNL1        0.0272
     69 H          10.5976    1.5997   -5.2138 H       1  UNL1        0.0272
     70 H           9.4550   -3.4241    0.3849 H       1  UNL1        0.0233
     71 H           9.3615   -5.1065    0.8976 H       1  UNL1        0.0233
     72 H           8.2264   -4.5089   -0.3134 H       1  UNL1        0.0233
     73 H           7.9436   -3.2728    3.8262 H       1  UNL1        0.0233
     74 H           9.3065   -4.2216    3.2436 H       1  UNL1        0.0233
     75 H           9.1707   -2.5280    2.7818 H       1  UNL1        0.0233
     76 H           8.4993   -0.3347    1.9598 H       1  UNL1        0.0429
     77 H           6.8596    0.3520    1.8367 H       1  UNL1        0.0429
     78 H           7.1753   -0.9779    2.9574 H       1  UNL1        0.0429
     79 H          10.1073   -0.6514    0.1669 H       1  UNL1        0.0429
     80 H           9.8649   -1.8735   -1.1233 H       1  UNL1        0.0429
     81 H          11.1871   -0.7101   -1.2083 H       1  UNL1        0.0429
     82 H          12.9741    1.1868   -5.4108 H       1  UNL1        0.0266
     83 H          12.7715   -0.5421   -5.1801 H       1  UNL1        0.0266
     84 H          12.8273    0.4525   -2.4000 H       1  UNL1        0.0237
     85 H          12.5156    1.8772   -3.3865 H       1  UNL1        0.0237
     86 H          11.6740    1.6773   -1.8577 H       1  UNL1        0.0237
     87 H           4.6315    0.3468    3.8644 H       1  UNL1        0.0233
     88 H           3.2730    0.9443    4.8297 H       1  UNL1        0.0233
     89 H           4.0527   -0.5813    5.2579 H       1  UNL1        0.0233
     90 H           1.6374   -0.2867    1.6756 H       1  UNL1        0.0233
     91 H           1.8581    1.1038    2.7402 H       1  UNL1        0.0233
     92 H           3.2136    0.5310    1.7697 H       1  UNL1        0.0233
     93 H           0.8584   -5.1205    1.7719 H       1  UNL1        0.0594
     94 H          13.3242   -0.0725   -7.4748 H       1  UNL1        0.0269
     95 H          11.7209   -0.7812   -7.3770 H       1  UNL1        0.0269
     96 H           3.3639   -4.5024    4.7196 H       1  UNL1        0.0429
     97 H           2.1622   -3.3146    5.2972 H       1  UNL1        0.0429
     98 H           1.7799   -5.0514    5.2920 H       1  UNL1        0.0429
     99 H          11.7713    1.0103   -9.0493 H       1  UNL1        0.0341
    100 H          10.6764    1.4441   -7.7447 H       1  UNL1        0.0341
    101 H           1.8729   -7.3208    2.1618 H       1  UNL1        0.0252
    102 H           3.1080   -6.0559    2.0017 H       1  UNL1        0.0252
    103 H           2.7061   -6.7152    3.5928 H       1  UNL1        0.0252
    104 H          -2.5767   -6.9226    3.9464 H       1  UNL1        0.0600
    105 H          -2.8058   -6.4757    6.5413 H       1  UNL1        0.0336
    106 H          -1.3688   -7.1976    5.9140 H       1  UNL1        0.0336
    107 H          -0.8259   -4.0936    1.9228 H       1  UNL1        0.0429
    108 H          -2.3974   -4.8897    1.9126 H       1  UNL1        0.0429
    109 H          -2.0629   -3.5004    3.0064 H       1  UNL1        0.0429
    110 H          10.7760    3.8175   -7.8602 H       1  UNL1        0.0306
    111 H          11.6051    3.7128   -6.2762 H       1  UNL1        0.0306
    112 H          12.3016    4.6798   -7.6067 H       1  UNL1        0.0306
    113 H          -2.1992   -3.4780    5.7932 H       1  UNL1        0.0620
    114 H           0.1056   -6.6290    7.6463 H       1  UNL1        0.0620
    115 H          -4.6741   -6.8597    5.5195 H       1  UNL1        0.1450
    116 H          -5.6600   -5.4669    5.2110 H       1  UNL1        0.1450
    117 H          -0.8224   -1.8130    6.9237 H       1  UNL1        0.0618
    118 H           1.4672   -4.9299    8.8001 H       1  UNL1        0.0618
    119 H           1.0246   -2.5123    8.4299 H       1  UNL1        0.0618
@<TRIPOS>BOND
     1     1    18    2
     2     2    20    2
     3     3    23    2
     4     4    31    2
     5     5    38    2
     6     6    45    2
     7     7    46    2
     8    15     8    1
     9     8    18   am
    10     8    29    1
    11    14     9    1
    12     9    23   am
    13     9    30    1
    14    19    10    1
    15    10    20   am
    16    10    61    1
    17    11    31   am
    18    11    39    1
    19    12    38   am
    20    42    12    1
    21    12    44    1
    22    13    46   am
    23    13   115    1
    24    13   116    1
    25    14    16    1
    26    14    18    1
    27    14    54    1
    28    15    17    1
    29    15    20    1
    30    15    55    1
    31    16    24    1
    32    16    25    1
    33    16    56    1
    34    17    27    1
    35    17    28    1
    36    17    57    1
    37    19    22    1
    38    19    31    1
    39    19    58    1
    40    21    23    1
    41    21    26    1
    42    21    33    1
    43    21    59    1
    44    22    34    1
    45    22    35    1
    46    22    60    1
    47    24    62    1
    48    24    63    1
    49    24    64    1
    50    25    65    1
    51    25    66    1
    52    25    67    1
    53    26    32    1
    54    26    68    1
    55    26    69    1
    56    27    70    1
    57    27    71    1
    58    27    72    1
    59    28    73    1
    60    28    74    1
    61    28    75    1
    62    29    76    1
    63    29    77    1
    64    29    78    1
    65    30    79    1
    66    30    80    1
    67    30    81    1
    68    32    37    1
    69    32    82    1
    70    32    83    1
    71    33    84    1
    72    33    85    1
    73    33    86    1
    74    34    87    1
    75    34    88    1
    76    34    89    1
    77    35    90    1
    78    35    91    1
    79    35    92    1
    80    36    41    1
    81    36    93    1
    82    37    40    1
    83    37    94    1
    84    37    95    1
    85    39    96    1
    86    39    97    1
    87    39    98    1
    88    40    45    1
    89    40    99    1
    90    40   100    1
    91    41   101    1
    92    41   102    1
    93    41   103    1
    94    42    43    1
    95    42    46    1
    96    42   104    1
    97    43    47    1
    98    43   105    1
    99    43   106    1
   100    44   107    1
   101    44   108    1
   102    44   109    1
   103    45    48    1
   104    47    49   ar
   105    47    50   ar
   106    48   110    1
   107    48   111    1
   108    48   112    1
   109    49    51   ar
   110    49   113    1
   111    50    52   ar
   112    50   114    1
   113    51    53   ar
   114    51   117    1
   115    52    53   ar
   116    52   118    1
   117    53   119    1
   118    36    38    1
   119    36    11    1
