@<TRIPOS>MOLECULE
mol_791_akc_jalgal2023103241
769.sdf
 126 127 0 0 0
SMALL
GASTEIGER

@<TRIPOS>ATOM
      1 O           9.5641   11.2704    4.7501 O.3     1  UNL1       -0.4590
      2 O           8.5030   11.3296    2.7418 O.2     1  UNL1       -0.2486
      3 O           6.4633   11.4098    5.3391 O.3     1  UNL1       -0.3897
      4 H           6.7113   10.7239    6.0024 H       1  UNL1        0.2099
      5 O           9.0233    7.9390    7.1020 O.2     1  UNL1       -0.2737
      6 O          10.6029    5.6210    3.8952 O.2     1  UNL1       -0.2735
      7 O           7.5636    6.2273   -1.6745 O.2     1  UNL1       -0.2715
      8 O           5.7387    6.7260    1.2787 O.3     1  UNL1       -0.4503
      9 O           5.8508    8.6492    0.0848 O.2     1  UNL1       -0.2487
     10 O           4.0892   10.1200    6.0450 O.2     1  UNL1       -0.2735
     11 O           7.1292   13.9607    2.2891 O.2     1  UNL1       -0.2751
     12 N           7.9350    9.3879    5.7772 N.am    1  UNL1       -0.2988
     13 H           8.5174   10.0071    6.3403 H       1  UNL1        0.1496
     14 N           8.3627    5.9775    3.8735 N.am    1  UNL1       -0.2912
     15 N           8.9500    6.2905    0.1503 N.am    1  UNL1       -0.2869
     16 N           5.6178    8.9438    4.2066 N.am    1  UNL1       -0.2893
     17 N           6.2423   13.3491    4.3614 N.am    1  UNL1       -0.3032
     18 H           6.4932   13.2757    5.3379 H       1  UNL1        0.1495
     19 C           8.6454   10.8771    3.8641 C.2     1  UNL1        0.3305
     20 C           7.6746    9.9156    4.3977 C.3     1  UNL1        0.1463
     21 H           7.7328    8.9785    3.9717 H       1  UNL1        0.0641
     22 C           6.3929   10.7673    3.8403 C.3     1  UNL1        0.0811
     23 H           6.6127   11.5328    3.1237 H       1  UNL1        0.0614
     24 C           4.6249   10.2087    2.9697 C.3     1  UNL1       -0.0367
     25 H           4.0015    9.3444    3.3548 H       1  UNL1        0.0255
     26 H           4.5474    9.7797    1.9858 H       1  UNL1        0.0255
     27 H           3.7376   10.7822    3.2615 H       1  UNL1        0.0255
     28 C           8.3361    8.0557    6.0823 C.2     1  UNL1        0.2345
     29 C           7.8567    6.6730    5.2355 C.3     1  UNL1        0.1042
     30 H           7.0931    7.2315    4.7345 H       1  UNL1        0.0599
     31 C           6.9496    5.7830    6.1902 C.3     1  UNL1       -0.0195
     32 H           6.6552    6.4517    7.0121 H       1  UNL1        0.0318
     33 C           5.6022    5.1811    5.7095 C.3     1  UNL1       -0.0605
     34 H           5.6198    4.7891    4.6939 H       1  UNL1        0.0233
     35 H           5.2415    4.3871    6.3659 H       1  UNL1        0.0233
     36 H           4.7698    5.8782    5.8054 H       1  UNL1        0.0233
     37 C           7.7479    4.6622    6.8090 C.3     1  UNL1       -0.0605
     38 H           8.4624    5.0715    7.5236 H       1  UNL1        0.0233
     39 H           8.2671    4.0814    6.0451 H       1  UNL1        0.0233
     40 H           7.0799    3.9905    7.3592 H       1  UNL1        0.0233
     41 C           7.4003    5.9339    2.9047 C.3     1  UNL1        0.0040
     42 H           6.3878    5.8052    3.2350 H       1  UNL1        0.0429
     43 H           7.4624    6.8815    2.4689 H       1  UNL1        0.0429
     44 H           7.7428    5.2752    2.1378 H       1  UNL1        0.0429
     45 C           9.6393    5.7783    3.2527 C.2     1  UNL1        0.2365
     46 C           9.7781    5.7699    1.4301 C.3     1  UNL1        0.1025
     47 H           9.9026    4.7064    1.1944 H       1  UNL1        0.0597
     48 C          11.1923    6.4300    1.1321 C.3     1  UNL1       -0.0243
     49 H          11.9997    5.6970    1.1789 H       1  UNL1        0.0288
     50 H          11.4891    7.1698    1.8656 H       1  UNL1        0.0288
     51 C          11.1889    7.1627   -0.1980 C.3     1  UNL1       -0.0350
     52 H          12.0888    6.9660   -0.7933 H       1  UNL1        0.0281
     53 H          11.2013    8.2500   -0.0591 H       1  UNL1        0.0281
     54 C           9.9237    6.7356   -0.8875 C.3     1  UNL1        0.0156
     55 H           9.5257    7.5598   -1.4995 H       1  UNL1        0.0465
     56 H          10.1413    5.9031   -1.5691 H       1  UNL1        0.0465
     57 C           7.6708    6.0762   -0.4371 C.2     1  UNL1        0.2573
     58 C           6.2741    5.7564    0.2926 C.3     1  UNL1        0.1810
     59 H           5.5383    5.7982   -0.5276 H       1  UNL1        0.0835
     60 C           6.0716    4.3153    0.9314 C.3     1  UNL1        0.0018
     61 H           6.4353    4.2161    1.9475 H       1  UNL1        0.0339
     62 C           4.5734    4.0975    1.1978 C.3     1  UNL1       -0.0586
     63 H           4.4341    3.1755    1.7750 H       1  UNL1        0.0234
     64 H           4.0432    4.0036    0.2503 H       1  UNL1        0.0234
     65 H           4.1339    4.9071    1.7885 H       1  UNL1        0.0234
     66 C           6.5995    3.0521    0.2522 C.3     1  UNL1       -0.0495
     67 H           6.3162    2.2263    0.9230 H       1  UNL1        0.0266
     68 H           6.0563    2.9094   -0.6805 H       1  UNL1        0.0266
     69 C           8.0782    2.8289    0.0039 C.3     1  UNL1       -0.0649
     70 H           8.6868    2.8978    0.9108 H       1  UNL1        0.0230
     71 H           8.4786    3.4858   -0.7685 H       1  UNL1        0.0230
     72 H           8.1910    1.7994   -0.3611 H       1  UNL1        0.0230
     73 C           5.9337    8.0601    1.1555 C.2     1  UNL1        0.3288
     74 C           6.5472    8.7676    2.4956 C.3     1  UNL1        0.1250
     75 H           6.4974    9.7724    2.0834 H       1  UNL1        0.0619
     76 C           8.4672    8.7710    2.1637 C.3     1  UNL1       -0.0177
     77 H           8.5330    7.8822    1.5776 H       1  UNL1        0.0319
     78 C           9.2450    9.6410    1.0883 C.3     1  UNL1       -0.0605
     79 H          10.3248    9.5998    1.3418 H       1  UNL1        0.0233
     80 H           9.0687   10.7043    0.9623 H       1  UNL1        0.0233
     81 H           9.1612    9.2275    0.0874 H       1  UNL1        0.0233
     82 C           9.6086    8.5193    3.2830 C.3     1  UNL1       -0.0605
     83 H           9.2712    7.8900    4.0611 H       1  UNL1        0.0233
     84 H          10.5218    8.0824    2.9498 H       1  UNL1        0.0233
     85 H          10.0410    9.3465    3.8306 H       1  UNL1        0.0233
     86 C           4.9161    7.8452    4.7863 C.3     1  UNL1        0.0041
     87 H           5.1403    7.8595    5.8602 H       1  UNL1        0.0429
     88 H           3.8316    7.9118    4.6894 H       1  UNL1        0.0429
     89 H           5.2177    6.9799    4.2333 H       1  UNL1        0.0429
     90 C           4.7174   10.3577    5.0022 C.2     1  UNL1        0.2366
     91 C           4.8205   12.2301    4.1911 C.3     1  UNL1        0.1019
     92 H           4.0836   12.7600    4.8221 H       1  UNL1        0.0597
     93 C           4.3680   12.6084    2.4996 C.3     1  UNL1       -0.0197
     94 H           4.6288   13.6644    2.4234 H       1  UNL1        0.0318
     95 C           2.8445   12.5530    2.2046 C.3     1  UNL1       -0.0605
     96 H           2.6726   12.6990    1.1320 H       1  UNL1        0.0233
     97 H           2.3357   11.6094    2.4341 H       1  UNL1        0.0233
     98 H           2.3306   13.3492    2.7397 H       1  UNL1        0.0233
     99 C           5.1101   12.0060    1.2046 C.3     1  UNL1       -0.0605
    100 H           4.6241   12.3475    0.2892 H       1  UNL1        0.0233
    101 H           5.0722   10.9481    0.9841 H       1  UNL1        0.0233
    102 H           6.1747   12.2132    1.1512 H       1  UNL1        0.0233
    103 C           7.3753   13.6151    3.4485 C.2     1  UNL1        0.2228
    104 C           9.0877   13.5056    3.9034 C.3     1  UNL1        0.0781
    105 C           9.6381   14.9052    4.0726 C.3     1  UNL1       -0.0480
    106 H           8.9331   15.5799    4.5407 H       1  UNL1        0.0241
    107 H           9.8674   15.3085    3.0742 H       1  UNL1        0.0241
    108 H          10.5920   14.8753    4.6142 H       1  UNL1        0.0241
    109 C          10.2026   12.9846    2.7545 C.3     1  UNL1       -0.0480
    110 H          11.1878   13.4532    2.8848 H       1  UNL1        0.0241
    111 H          10.5200   11.9255    2.7890 H       1  UNL1        0.0241
    112 H           9.8544   13.1594    1.7305 H       1  UNL1        0.0241
    113 C           9.1835   12.5732    5.1332 C.3     1  UNL1        0.1165
    114 H           8.1833   12.4880    5.5010 H       1  UNL1        0.0744
    115 C           9.8533   12.7793    6.4618 C.3     1  UNL1       -0.0138
    116 H          10.9445   12.7863    6.3954 H       1  UNL1        0.0301
    117 H           9.6279   11.8733    7.0602 H       1  UNL1        0.0301
    118 C           9.2661   13.9493    7.2209 C.3     1  UNL1       -0.0388
    119 H           8.1730   13.8680    7.2967 H       1  UNL1        0.0275
    120 H           9.4881   14.8880    6.7131 H       1  UNL1        0.0275
    121 C           9.8709   13.9202    8.5923 C.3     1  UNL1        0.0090
    122 H          10.9660   13.9160    8.5134 H       1  UNL1        0.0397
    123 H           9.5850   13.0201    9.1491 H       1  UNL1        0.0397
    124 C           9.5016   15.1415    9.4184 C.1     1  UNL1       -0.1056
    125 C           9.1848   16.1891   10.1270 C.1     1  UNL1       -0.1192
    126 H           8.9269   17.0448   10.7077 H       1  UNL1        0.1228
@<TRIPOS>BOND
     1     1   113    1
     2     3    22    1
     3     4     3    1
     4     8    58    1
     5    12    20    1
     6    12    28   am
     7    14    29    1
     8    15    46    1
     9    16    90   am
    10    17   103   am
    11    19     1    1
    12    20    19    1
    13    22    23    1
    14    24    26    1
    15    24    22    1
    16    25    24    1
    17    27    24    1
    18    29    28    1
    19    31    32    1
    20    31    33    1
    21    33    34    1
    22    33    35    1
    23    36    33    1
    24    37    31    1
    25    37    39    1
    26    38    37    1
    27    40    37    1
    28    41    44    1
    29    42    41    1
    30    43    41    1
    31    45    46    1
    32    45    14   am
    33    48    46    1
    34    51    48    1
    35    54    51    1
    36    54    15    1
    37    57    15   am
    38    58    57    1
    39    60    61    1
    40    60    62    1
    41    62    64    1
    42    62    63    1
    43    65    62    1
    44    66    67    1
    45    66    60    1
    46    68    66    1
    47    69    71    1
    48    69    66    1
    49    70    69    1
    50    72    69    1
    51    73     8    1
    52    74    73    1
    53    74    16    1
    54    77    76    1
    55    78    80    1
    56    78    79    1
    57    78    76    1
    58    81    78    1
    59    82    85    1
    60    82    83    1
    61    82    76    1
    62    84    82    1
    63    86    89    1
    64    86    87    1
    65    88    86    1
    66    90    91    1
    67    91    17    1
    68    93    99    1
    69    93    95    1
    70    94    93    1
    71    95    98    1
    72    96    95    1
    73    97    95    1
    74    99   100    1
    75   101    99    1
    76   102    99    1
    77   103   104    1
    78   104   113    1
    79   105   108    1
    80   105   107    1
    81   106   105    1
    82   109   111    1
    83   110   109    1
    84   112   109    1
    85   115   117    1
    86   115   116    1
    87   115   118    1
    88   118   121    1
    89   118   120    1
    90   119   118    1
    91   121   122    1
    92   121   124    1
    93   123   121    1
    94   124   125    3
    95   125   126    1
    96    13    12    1
    97    41    14    1
    98    86    16    1
    99    17    18    1
   100    19     2    2
   101    28     5    2
   102     6    45    2
   103    46    47    1
   104    48    49    1
   105    48    50    1
   106    52    51    1
   107    53    51    1
   108    54    56    1
   109    55    54    1
   110    57     7    2
   111    58    59    1
   112    58    60    1
   113     9    73    2
   114    74    75    1
   115    76    74    1
   116    90    10    2
   117    91    92    1
   118    93    91    1
   119    11   103    2
   120   104   105    1
   121   109   104    1
   122   113   114    1
   123   113   115    1
   124    20    22    1
   125    20    21    1
   126    29    31    1
   127    29    30    1
