@<TRIPOS>MOLECULE
mol_792_akc_jalgal2023103241
44627702
 47 47 0 0 0
SMALL
GASTEIGER

@<TRIPOS>ATOM
      1 CL          2.7714   -3.0448   -0.4521 Cl      1  UNL1       -0.0831
      2 CL          5.4651   -2.4494   -1.3197 Cl      1  UNL1       -0.0831
      3 CL          3.2927   -2.5083   -3.2309 Cl      1  UNL1       -0.0831
      4 S           3.2078    9.8070    1.1085 S.2     1  UNL1       -0.0787
      5 O          -0.5468    6.3382    1.5355 O.2     1  UNL1       -0.2705
      6 N           1.7043    6.1856    1.8439 N.am    1  UNL1       -0.3025
      7 N           4.2479    7.4548    1.3536 N.ar    1  UNL1       -0.2504
      8 C           1.9245    7.8266    3.7336 C.3     1  UNL1       -0.0221
      9 C           1.8708    7.5949    2.1955 C.3     1  UNL1        0.0743
     10 C           0.5791    7.5384    4.4022 C.3     1  UNL1       -0.0606
     11 C           3.0371    7.0374    4.4363 C.3     1  UNL1       -0.0606
     12 C           3.1324    8.1368    1.5466 C.ar    1  UNL1        0.0987
     13 C           3.5704   -0.4404   -1.2929 C.3     1  UNL1        0.0064
     14 C           2.5585   -0.0787   -0.1733 C.3     1  UNL1       -0.0280
     15 C           0.4753    5.6559    1.5595 C.2     1  UNL1        0.2403
     16 C           3.7275   -1.9863   -1.5576 C.3     1  UNL1        0.1935
     17 C           3.3025    0.3880   -2.5638 C.3     1  UNL1       -0.0583
     18 C           0.3905    4.1693    1.3390 C.2     1  UNL1        0.0112
     19 C           2.5324    1.3895    0.1757 C.2     1  UNL1       -0.0836
     20 C           1.4410    3.4634    0.8796 C.2     1  UNL1       -0.0542
     21 C           1.4332    2.0426    0.5885 C.2     1  UNL1       -0.0653
     22 C           4.8638    9.6219    0.7232 C.ar    1  UNL1       -0.0045
     23 C           5.2369    8.3070    0.8961 C.ar    1  UNL1        0.0351
     24 C          -0.9670    3.5594    1.5917 C.3     1  UNL1       -0.0348
     25 H           2.1336    8.8914    3.9083 H       1  UNL1        0.0317
     26 H           1.0143    8.1487    1.7891 H       1  UNL1        0.0572
     27 H           0.2987    6.4845    4.3162 H       1  UNL1        0.0233
     28 H           0.6208    7.7849    5.4687 H       1  UNL1        0.0233
     29 H          -0.2130    8.1469    3.9537 H       1  UNL1        0.0233
     30 H           4.0261    7.3263    4.0672 H       1  UNL1        0.0233
     31 H           3.0288    7.2381    5.5132 H       1  UNL1        0.0233
     32 H           2.9213    5.9582    4.2968 H       1  UNL1        0.0233
     33 H           2.5327    5.6086    1.9078 H       1  UNL1        0.1497
     34 H           4.5400   -0.0739   -0.9241 H       1  UNL1        0.0342
     35 H           1.5536   -0.4108   -0.4613 H       1  UNL1        0.0311
     36 H           2.8432   -0.6037    0.7466 H       1  UNL1        0.0311
     37 H           3.3479    1.4627   -2.3609 H       1  UNL1        0.0234
     38 H           4.0602    0.1919   -3.3299 H       1  UNL1        0.0234
     39 H           2.3110    0.1757   -2.9778 H       1  UNL1        0.0234
     40 H           3.4764    1.9276    0.0896 H       1  UNL1        0.0572
     41 H           2.3815    3.9691    0.6634 H       1  UNL1        0.0622
     42 H           0.5047    1.4929    0.7038 H       1  UNL1        0.0615
     43 H           5.4651   10.4582    0.3966 H       1  UNL1        0.0709
     44 H           6.2315    7.9182    0.7147 H       1  UNL1        0.0835
     45 H          -1.3681    3.1204    0.6710 H       1  UNL1        0.0279
     46 H          -0.9026    2.7783    2.3568 H       1  UNL1        0.0279
     47 H          -1.7051    4.2853    1.9455 H       1  UNL1        0.0279
@<TRIPOS>BOND
     1     1    16    1
     2     2    16    1
     3     3    16    1
     4     4    12   ar
     5     4    22   ar
     6     5    15    2
     7     6     9    1
     8     6    15   am
     9     6    33    1
    10     7    12   ar
    11     7    23   ar
    12     8     9    1
    13     8    10    1
    14     8    11    1
    15     8    25    1
    16     9    12    1
    17     9    26    1
    18    10    27    1
    19    10    28    1
    20    10    29    1
    21    11    30    1
    22    11    31    1
    23    11    32    1
    24    13    17    1
    25    13    34    1
    26    14    19    1
    27    14    35    1
    28    14    36    1
    29    15    18    1
    30    17    37    1
    31    17    38    1
    32    17    39    1
    33    18    20    2
    34    18    24    1
    35    19    21    2
    36    19    40    1
    37    20    21    1
    38    20    41    1
    39    21    42    1
    40    22    23   ar
    41    22    43    1
    42    23    44    1
    43    24    45    1
    44    24    46    1
    45    24    47    1
    46    13    16    1
    47    13    14    1
