@<TRIPOS>MOLECULE
mol_794_akc_preprints2023081856v1
*****
 45 47 0 0 0
SMALL
GASTEIGER

@<TRIPOS>ATOM
      1 C          -0.6871    1.1538   -0.1481 C.3     1  UNL1        0.0790
      2 O           0.6778    1.5308    0.0320 O.3     1  UNL1       -0.4914
      3 C           0.9364    2.3483    1.1101 C.ar    1  UNL1        0.1632
      4 C           2.1789    2.2005    1.7671 C.ar    1  UNL1        0.1762
      5 O           2.9976    1.2199    1.2526 O.3     1  UNL1       -0.4832
      6 C           4.4032    1.4677    1.2731 C.3     1  UNL1        0.1078
      7 C           5.1205    0.8651    0.0955 C.2     1  UNL1       -0.0542
      8 C           4.5819    0.2212   -0.9462 C.2     1  UNL1       -0.0995
      9 C           2.4249    2.9983    2.8997 C.ar    1  UNL1        0.0637
     10 BR          3.8721    2.7608    4.1179 Br      1  UNL1       -0.0464
     11 C           1.5172    4.0045    3.2760 C.ar    1  UNL1       -0.0368
     12 C           0.3289    4.2049    2.5740 C.ar    1  UNL1       -0.0203
     13 C          -0.6050    5.2557    3.0101 C.2     1  UNL1       -0.0539
     14 C          -1.4523    5.8871    2.1812 C.2     1  UNL1       -0.0540
     15 C          -2.3617    6.9494    2.5730 C.2     1  UNL1       -0.0248
     16 C          -3.2504    6.7930    3.5679 C.2     1  UNL1       -0.0909
     17 C          -2.3732    8.2212    1.8238 C.ar    1  UNL1       -0.0148
     18 C          -1.5872    9.3008    2.2832 C.ar    1  UNL1       -0.0504
     19 C          -1.4947   10.4848    1.5407 C.ar    1  UNL1       -0.0156
     20 C          -2.1857   10.5444    0.3515 C.ar    1  UNL1        0.1663
     21 O          -2.1806   11.5928   -0.5151 O.3     1  UNL1       -0.4526
     22 C          -2.9836   11.0592   -1.5882 C.3     1  UNL1        0.2332
     23 O          -3.5387    9.7591   -1.2981 O.3     1  UNL1       -0.4526
     24 C          -2.9597    9.5003   -0.0951 C.ar    1  UNL1        0.1668
     25 C          -3.0816    8.3251    0.6200 C.ar    1  UNL1       -0.0084
     26 C           0.0356    3.3450    1.5129 C.ar    1  UNL1       -0.0091
     27 H          -0.7397    0.4823   -1.0103 H       1  UNL1        0.0660
     28 H          -1.3304    2.0077   -0.3821 H       1  UNL1        0.0660
     29 H          -1.0626    0.6136    0.7278 H       1  UNL1        0.0660
     30 H           4.6308    2.5399    1.2740 H       1  UNL1        0.0742
     31 H           4.8189    0.9866    2.1639 H       1  UNL1        0.0742
     32 H           6.2047    0.9809    0.1205 H       1  UNL1        0.0600
     33 H           5.2108   -0.1718   -1.7389 H       1  UNL1        0.0533
     34 H           3.5093    0.0750   -1.0291 H       1  UNL1        0.0533
     35 H           1.7410    4.6340    4.1358 H       1  UNL1        0.0636
     36 H          -0.5604    5.5361    4.0600 H       1  UNL1        0.0624
     37 H          -1.4558    5.6690    1.1149 H       1  UNL1        0.0624
     38 H          -3.9502    7.5788    3.8377 H       1  UNL1        0.0541
     39 H          -3.3163    5.8673    4.1321 H       1  UNL1        0.0541
     40 H          -1.0265    9.2088    3.2095 H       1  UNL1        0.0625
     41 H          -0.8802   11.3098    1.8775 H       1  UNL1        0.0655
     42 H          -3.8046   11.7554   -1.7930 H       1  UNL1        0.1166
     43 H          -2.3582   10.9788   -2.4854 H       1  UNL1        0.1166
     44 H          -3.6814    7.5090    0.2380 H       1  UNL1        0.0661
     45 H          -0.9039    3.4743    0.9886 H       1  UNL1        0.0661
@<TRIPOS>BOND
     1     1     2    1
     2     2     3    1
     3     3     4   ar
     4     4     5    1
     5     5     6    1
     6     6     7    1
     7     7     8    2
     8     4     9   ar
     9     9    10    1
    10     9    11   ar
    11    11    12   ar
    12    12    13    1
    13    13    14    2
    14    14    15    1
    15    15    16    2
    16    15    17    1
    17    17    18   ar
    18    18    19   ar
    19    19    20   ar
    20    20    21    1
    21    21    22    1
    22    22    23    1
    23    23    24    1
    24    20    24   ar
    25    24    25   ar
    26    17    25   ar
    27    12    26   ar
    28     3    26   ar
    29     1    27    1
    30     1    28    1
    31     1    29    1
    32     6    30    1
    33     6    31    1
    34     7    32    1
    35     8    33    1
    36     8    34    1
    37    11    35    1
    38    13    36    1
    39    14    37    1
    40    16    38    1
    41    16    39    1
    42    18    40    1
    43    19    41    1
    44    22    42    1
    45    22    43    1
    46    25    44    1
    47    26    45    1
