@<TRIPOS>MOLECULE
mol_795_akc_ufudi2023494
*****
 56 58 0 0 0
SMALL
GASTEIGER

@<TRIPOS>ATOM
      1 C           6.0994   -0.9901    1.4669 C.ar    1  UNL1       -0.0340
      2 C           7.2827   -1.6885    1.7399 C.ar    1  UNL1       -0.0415
      3 C           8.0575   -2.1855    0.6902 C.ar    1  UNL1        0.0411
      4 C           7.6579   -2.0053   -0.6343 C.ar    1  UNL1       -0.0415
      5 C           6.4793   -1.3127   -0.9150 C.ar    1  UNL1       -0.0340
      6 C           5.7188   -0.7880    0.1363 C.ar    1  UNL1        0.1056
      7 S           4.2030    0.0725   -0.2273 S.O2    1  UNL1        0.0609
      8 CL          9.5145   -3.0336    1.0318 Cl      1  UNL1       -0.0835
      9 O           3.7582   -0.3755   -1.5297 O.2     1  UNL1       -0.1528
     10 O           3.3446   -0.0347    0.9322 O.2     1  UNL1       -0.1528
     11 N           4.6940    1.6824   -0.3738 N.3     1  UNL1       -0.1736
     12 C           5.0115    3.9291    0.6067 C.3     1  UNL1        0.0294
     13 C           5.0694    2.4110    0.8630 C.3     1  UNL1        0.0364
     14 C           5.6118    2.0245   -1.4962 C.3     1  UNL1        0.0364
     15 C           5.5119    3.5261   -1.7905 C.3     1  UNL1        0.0294
     16 N           5.7520    4.3522   -0.5982 N.am    1  UNL1       -0.2950
     17 C           6.4420    5.5581   -0.7815 C.2     1  UNL1        0.2467
     18 O           7.1035    5.7837   -1.7946 O.2     1  UNL1       -0.2700
     19 C           6.4296    6.6154    0.2664 C.ar    1  UNL1        0.0371
     20 C           7.5995    7.3517    0.5095 C.ar    1  UNL1       -0.0462
     21 C           5.2722    6.9319    0.9776 C.ar    1  UNL1       -0.0462
     22 C           5.3315    7.8228    2.0471 C.ar    1  UNL1       -0.0192
     23 C           6.5433    8.4259    2.3961 C.ar    1  UNL1        0.1206
     24 C           7.6529    8.2651    1.5699 C.ar    1  UNL1       -0.0192
     25 O           6.7213    9.1432    3.5569 O.3     1  UNL1       -0.4907
     26 C           5.9533    8.5863    4.6397 C.3     1  UNL1        0.1022
     27 C           6.5757    8.8922    6.0103 C.3     1  UNL1        0.0325
     28 N           5.7511    8.3814    7.1276 N.3     1  UNL1       -0.3051
     29 C           5.6233    6.9204    7.1318 C.3     1  UNL1       -0.0129
     30 C           6.2969    8.8158    8.4156 C.3     1  UNL1       -0.0129
     31 H           5.4912   -0.6222    2.2849 H       1  UNL1        0.0637
     32 H           7.5896   -1.8466    2.7709 H       1  UNL1        0.0633
     33 H           8.2550   -2.4079   -1.4496 H       1  UNL1        0.0633
     34 H           6.1604   -1.1906   -1.9488 H       1  UNL1        0.0637
     35 H           3.9666    4.2255    0.4517 H       1  UNL1        0.0478
     36 H           5.3942    4.4363    1.4943 H       1  UNL1        0.0478
     37 H           4.3793    2.1742    1.6787 H       1  UNL1        0.0459
     38 H           6.0814    2.1251    1.1704 H       1  UNL1        0.0459
     39 H           6.6414    1.7709   -1.2160 H       1  UNL1        0.0459
     40 H           5.3497    1.4673   -2.4001 H       1  UNL1        0.0459
     41 H           4.5000    3.7696   -2.1377 H       1  UNL1        0.0478
     42 H           6.2048    3.7847   -2.5972 H       1  UNL1        0.0478
     43 H           8.4813    7.1967   -0.1099 H       1  UNL1        0.0626
     44 H           4.3198    6.4742    0.7326 H       1  UNL1        0.0626
     45 H           4.4266    8.0046    2.6192 H       1  UNL1        0.0654
     46 H           8.5723    8.8068    1.7764 H       1  UNL1        0.0654
     47 H           4.9401    9.0026    4.6003 H       1  UNL1        0.0709
     48 H           5.9117    7.4974    4.5270 H       1  UNL1        0.0709
     49 H           7.5992    8.4997    6.0538 H       1  UNL1        0.0460
     50 H           6.6646    9.9843    6.0924 H       1  UNL1        0.0460
     51 H           6.5871    6.4209    7.2831 H       1  UNL1        0.0391
     52 H           4.9408    6.6038    7.9292 H       1  UNL1        0.0391
     53 H           5.1813    6.5393    6.2072 H       1  UNL1        0.0391
     54 H           7.2367    8.3049    8.6576 H       1  UNL1        0.0391
     55 H           6.4795    9.8951    8.4273 H       1  UNL1        0.0391
     56 H           5.5770    8.6089    9.2152 H       1  UNL1        0.0391
@<TRIPOS>BOND
     1     1     2   ar
     2     1     6   ar
     3     2     3   ar
     4     3     4   ar
     5     4     5   ar
     6     5     6   ar
     7     6     7    1
     8     3     8    1
     9     7     9    2
    10     7    10    2
    11     7    11    1
    12    13    11    1
    13    11    14    1
    14    12    13    1
    15    12    16    1
    16    14    15    1
    17    15    16    1
    18    16    17   am
    19    17    18    2
    20    17    19    1
    21    20    19   ar
    22    19    21   ar
    23    20    24   ar
    24    21    22   ar
    25    22    23   ar
    26    23    24   ar
    27    23    25    1
    28    25    26    1
    29    26    27    1
    30    27    28    1
    31    28    29    1
    32    28    30    1
    33     1    31    1
    34     2    32    1
    35     4    33    1
    36     5    34    1
    37    12    35    1
    38    12    36    1
    39    13    37    1
    40    13    38    1
    41    14    39    1
    42    14    40    1
    43    15    41    1
    44    15    42    1
    45    20    43    1
    46    21    44    1
    47    22    45    1
    48    24    46    1
    49    26    47    1
    50    26    48    1
    51    27    49    1
    52    27    50    1
    53    29    51    1
    54    29    52    1
    55    29    53    1
    56    30    54    1
    57    30    55    1
    58    30    56    1
