@<TRIPOS>MOLECULE
mol_796_akc_ufudi2023494
*****
 54 56 0 0 0
SMALL
GASTEIGER

@<TRIPOS>ATOM
      1 C          -5.0065   -0.5324   -2.4971 C.ar    1  UNL1       -0.0326
      2 C          -6.0321   -1.0516   -3.2870 C.ar    1  UNL1       -0.0246
      3 C          -7.1623   -1.5922   -2.6798 C.ar    1  UNL1        0.1235
      4 C          -7.2881   -1.6311   -1.2941 C.ar    1  UNL1       -0.0246
      5 C          -6.2665   -1.1174   -0.4958 C.ar    1  UNL1       -0.0326
      6 C          -5.1353   -0.5550   -1.1025 C.ar    1  UNL1        0.1057
      7 S          -3.8038    0.0544   -0.0861 S.O2    1  UNL1        0.0609
      8 F          -8.1419   -2.0926   -3.4432 F       1  UNL1       -0.2055
      9 O          -3.8925   -0.6275    1.1894 O.2     1  UNL1       -0.1528
     10 O          -2.5928   -0.0011   -0.8839 O.2     1  UNL1       -0.1528
     11 N          -4.2084    1.6622    0.1507 N.3     1  UNL1       -0.1736
     12 C          -3.9750    4.0640   -0.4353 C.3     1  UNL1        0.0266
     13 C          -4.0829    2.6243   -0.9855 C.3     1  UNL1        0.0363
     14 C          -5.4017    1.9653    0.9881 C.3     1  UNL1        0.0363
     15 C          -5.2324    3.3654    1.6006 C.3     1  UNL1        0.0266
     16 N          -5.0667    4.3424    0.5140 N.pl3   1  UNL1       -0.3273
     17 C          -5.9131    5.4199    0.4044 C.ar    1  UNL1        0.0300
     18 C          -6.3750    5.8874   -0.8336 C.ar    1  UNL1       -0.0372
     19 C          -6.3605    6.0901    1.5489 C.ar    1  UNL1       -0.0372
     20 C          -7.1855    7.2080    1.4653 C.ar    1  UNL1       -0.0182
     21 C          -7.5417    7.7197    0.2191 C.ar    1  UNL1        0.1207
     22 C          -7.1938    7.0205   -0.9299 C.ar    1  UNL1       -0.0182
     23 O          -8.1687    8.9317    0.0517 O.3     1  UNL1       -0.4907
     24 C          -7.7483    9.8762    1.0509 C.3     1  UNL1        0.1022
     25 C          -7.8247   11.3205    0.5428 C.3     1  UNL1        0.0325
     26 N          -7.4628   12.2995    1.5902 N.3     1  UNL1       -0.3051
     27 C          -6.0760   12.1646    2.0480 C.3     1  UNL1       -0.0129
     28 C          -7.6800   13.6658    1.1133 C.3     1  UNL1       -0.0129
     29 H          -4.1132   -0.1279   -2.9674 H       1  UNL1        0.0638
     30 H          -5.9538   -1.0502   -4.3699 H       1  UNL1        0.0647
     31 H          -8.1744   -2.0726   -0.8485 H       1  UNL1        0.0647
     32 H          -6.3515   -1.1676    0.5879 H       1  UNL1        0.0638
     33 H          -3.0226    4.1697    0.1015 H       1  UNL1        0.0477
     34 H          -3.9410    4.7789   -1.2645 H       1  UNL1        0.0477
     35 H          -3.1869    2.4072   -1.5793 H       1  UNL1        0.0459
     36 H          -4.9623    2.5425   -1.6353 H       1  UNL1        0.0459
     37 H          -6.3036    1.9418    0.3623 H       1  UNL1        0.0459
     38 H          -5.5212    1.2395    1.7945 H       1  UNL1        0.0459
     39 H          -4.3491    3.3924    2.2507 H       1  UNL1        0.0477
     40 H          -6.1109    3.5687    2.2224 H       1  UNL1        0.0477
     41 H          -6.1098    5.3665   -1.7491 H       1  UNL1        0.0637
     42 H          -6.0213    5.7843    2.5353 H       1  UNL1        0.0637
     43 H          -7.4891    7.6923    2.3880 H       1  UNL1        0.0655
     44 H          -7.5193    7.3734   -1.9041 H       1  UNL1        0.0655
     45 H          -8.3904    9.7610    1.9324 H       1  UNL1        0.0709
     46 H          -6.7058    9.6779    1.3234 H       1  UNL1        0.0709
     47 H          -7.1951   11.4347   -0.3496 H       1  UNL1        0.0460
     48 H          -8.8566   11.4985    0.2125 H       1  UNL1        0.0460
     49 H          -5.3550   12.3427    1.2419 H       1  UNL1        0.0391
     50 H          -5.8734   12.8753    2.8570 H       1  UNL1        0.0391
     51 H          -5.8759   11.1779    2.4769 H       1  UNL1        0.0391
     52 H          -6.9658   13.9475    0.3311 H       1  UNL1        0.0391
     53 H          -8.6933   13.7901    0.7177 H       1  UNL1        0.0391
     54 H          -7.5785   14.3723    1.9450 H       1  UNL1        0.0391
@<TRIPOS>BOND
     1     1     2   ar
     2     1     6   ar
     3     2     3   ar
     4     3     4   ar
     5     4     5   ar
     6     5     6   ar
     7     6     7    1
     8     3     8    1
     9     7     9    2
    10     7    10    2
    11     7    11    1
    12    13    11    1
    13    11    14    1
    14    12    13    1
    15    12    16    1
    16    14    15    1
    17    15    16    1
    18    18    17   ar
    19    17    19   ar
    20    18    22   ar
    21    19    20   ar
    22    20    21   ar
    23    21    22   ar
    24    21    23    1
    25    23    24    1
    26    24    25    1
    27    25    26    1
    28    26    27    1
    29    26    28    1
    30    16    17    1
    31     1    29    1
    32     2    30    1
    33     4    31    1
    34     5    32    1
    35    12    33    1
    36    12    34    1
    37    13    35    1
    38    13    36    1
    39    14    37    1
    40    14    38    1
    41    15    39    1
    42    15    40    1
    43    18    41    1
    44    19    42    1
    45    20    43    1
    46    22    44    1
    47    24    45    1
    48    24    46    1
    49    25    47    1
    50    25    48    1
    51    27    49    1
    52    27    50    1
    53    27    51    1
    54    28    52    1
    55    28    53    1
    56    28    54    1
