@<TRIPOS>MOLECULE
mol_797_akc_pharmaceutics15092292
*****
 59 61 0 0 0
SMALL
GASTEIGER

@<TRIPOS>ATOM
      1 C          -0.2103    3.6620   -0.9375 C.ar    1  UNL1       -0.0104
      2 C          -0.9732    4.8407   -1.0117 C.ar    1  UNL1        0.1655
      3 C          -0.5959    5.9637   -0.2418 C.ar    1  UNL1        0.2035
      4 C           0.5241    5.8493    0.6063 C.ar    1  UNL1        0.1655
      5 C           1.2763    4.6672    0.6324 C.ar    1  UNL1       -0.0104
      6 C           0.9778    3.5873   -0.2011 C.ar    1  UNL1       -0.0115
      7 C           1.8722    2.3579   -0.2928 C.3     1  UNL1        0.0875
      8 C           3.9217    2.4748   -1.6446 C.3     1  UNL1       -0.0081
      9 C           2.4650    1.9805   -1.6743 C.3     1  UNL1       -0.0081
     10 O           3.0455    2.5047    0.5440 O.3     1  UNL1       -0.3636
     11 C           4.0461    3.1372   -0.2695 C.3     1  UNL1        0.0874
     12 C           5.4251    3.1737    0.3403 C.ar    1  UNL1       -0.0149
     13 C           4.8760    1.3034   -1.8983 C.3     1  UNL1       -0.0594
     14 C           1.7673    2.4384   -2.9503 C.3     1  UNL1       -0.0594
     15 C           6.4375    3.8846   -0.3328 C.ar    1  UNL1       -0.0107
     16 C           5.7371    2.5540    1.5479 C.ar    1  UNL1       -0.0524
     17 C           7.0425    2.6163    2.0409 C.ar    1  UNL1       -0.0160
     18 C           8.0609    3.2905    1.3472 C.ar    1  UNL1        0.1615
     19 C           7.7540    3.9416    0.1410 C.ar    1  UNL1        0.1618
     20 O          -2.0781    4.9372   -1.8188 O.3     1  UNL1       -0.4913
     21 C          -2.4334    3.8316   -2.6394 C.3     1  UNL1        0.0790
     22 O          -1.2422    7.1715   -0.1963 O.3     1  UNL1       -0.4885
     23 C          -2.3348    7.4347   -1.0595 C.3     1  UNL1        0.0791
     24 O           0.9863    6.7787    1.5073 O.3     1  UNL1       -0.4913
     25 C           0.9097    8.1454    1.1282 C.3     1  UNL1        0.0790
     26 O           9.2675    3.2059    1.9921 O.3     1  UNL1       -0.4915
     27 O           8.7493    4.6114   -0.5228 O.3     1  UNL1       -0.4914
     28 C           8.4325    5.2245   -1.7690 C.3     1  UNL1        0.0790
     29 C          10.4095    3.7905    1.3827 C.3     1  UNL1        0.0790
     30 H          -0.5240    2.7733   -1.4743 H       1  UNL1        0.0659
     31 H           2.1249    4.6194    1.3136 H       1  UNL1        0.0659
     32 H           1.3016    1.5137    0.1130 H       1  UNL1        0.0649
     33 H           4.1152    3.2271   -2.4203 H       1  UNL1        0.0330
     34 H           2.4719    0.8816   -1.7078 H       1  UNL1        0.0330
     35 H           3.7471    4.1897   -0.3696 H       1  UNL1        0.0649
     36 H           4.6360    0.8158   -2.8495 H       1  UNL1        0.0233
     37 H           5.9145    1.6401   -1.9677 H       1  UNL1        0.0233
     38 H           4.8112    0.5514   -1.1048 H       1  UNL1        0.0233
     39 H           1.6940    3.5292   -3.0086 H       1  UNL1        0.0233
     40 H           2.3321    2.1068   -3.8297 H       1  UNL1        0.0233
     41 H           0.7684    2.0028   -3.0389 H       1  UNL1        0.0233
     42 H           6.1588    4.3849   -1.2566 H       1  UNL1        0.0659
     43 H           4.9755    2.0208    2.1118 H       1  UNL1        0.0622
     44 H           7.2756    2.1244    2.9837 H       1  UNL1        0.0655
     45 H          -1.6030    3.5118   -3.2776 H       1  UNL1        0.0660
     46 H          -2.8083    3.0048   -2.0278 H       1  UNL1        0.0660
     47 H          -3.2437    4.1544   -3.3003 H       1  UNL1        0.0660
     48 H          -2.0489    7.3508   -2.1127 H       1  UNL1        0.0660
     49 H          -3.1951    6.8087   -0.8074 H       1  UNL1        0.0660
     50 H          -2.6384    8.4742   -0.8936 H       1  UNL1        0.0660
     51 H           1.2050    8.3010    0.0852 H       1  UNL1        0.0660
     52 H          -0.0836    8.5536    1.3341 H       1  UNL1        0.0660
     53 H           1.6143    8.6990    1.7572 H       1  UNL1        0.0660
     54 H           8.0717    4.4897   -2.4955 H       1  UNL1        0.0660
     55 H           7.7133    6.0387   -1.6331 H       1  UNL1        0.0660
     56 H           9.3537    5.6582   -2.1693 H       1  UNL1        0.0660
     57 H          10.6047    3.3598    0.3945 H       1  UNL1        0.0660
     58 H          10.3221    4.8794    1.3504 H       1  UNL1        0.0660
     59 H          11.2741    3.5532    2.0097 H       1  UNL1        0.0660
@<TRIPOS>BOND
     1     1     2   ar
     2     1     6   ar
     3     2     3   ar
     4     3     4   ar
     5     4     5   ar
     6     5     6   ar
     7     9     7    1
     8     7    10    1
     9     8     9    1
    10     8    11    1
    11    10    11    1
    12    11    12    1
    13     8    13    1
    14    15    12   ar
    15    12    16   ar
    16    15    19   ar
    17    16    17   ar
    18    17    18   ar
    19    18    19   ar
    20     2    20    1
    21    20    21    1
    22     3    22    1
    23    22    23    1
    24     4    24    1
    25    24    25    1
    26    18    26    1
    27    19    27    1
    28    27    28    1
    29    26    29    1
    30     1    30    1
    31     5    31    1
    32     8    33    1
    33    11    35    1
    34    13    36    1
    35    13    37    1
    36    13    38    1
    37    14    39    1
    38    14    40    1
    39    14    41    1
    40    15    42    1
    41    16    43    1
    42    17    44    1
    43    21    45    1
    44    21    46    1
    45    21    47    1
    46    23    48    1
    47    23    49    1
    48    23    50    1
    49    25    51    1
    50    25    52    1
    51    25    53    1
    52    28    54    1
    53    28    55    1
    54    28    56    1
    55    29    57    1
    56    29    58    1
    57    29    59    1
    58     7    32    1
    59     7     6    1
    60     9    34    1
    61     9    14    1
