@<TRIPOS>MOLECULE
mol_798_akc_journalpone0291321
9444
 29 30 0 0 0
SMALL
GASTEIGER

@<TRIPOS>ATOM
      1 O4*         1.7113    0.4250    0.2518 O.3     1  UNL1       -0.3456
      2 O2*        -1.8436    0.9744    0.0053 O.3     1  UNL1       -0.3847
      3 O3*        -0.8168   -1.3035    0.7445 O.3     1  UNL1       -0.3864
      4 O5*         3.3944   -0.9295   -1.5900 O.3     1  UNL1       -0.3924
      5 O           1.5252    2.1686   -2.1407 O.2     1  UNL1       -0.2443
      6 N           0.9849    2.6575    0.0080 N.ar    1  UNL1       -0.2535
      7 N           1.9676    4.2467   -1.4140 N.ar    1  UNL1       -0.1594
      8 N           1.3409    4.8363    0.7478 N.ar    1  UNL1       -0.2047
      9 N           2.3718    6.3549   -0.6504 N.pl3   1  UNL1       -0.3273
     10 C2*        -0.5469    0.7035   -0.5349 C.3     1  UNL1        0.1286
     11 C3*        -0.2195   -0.7826   -0.4614 C.3     1  UNL1        0.1135
     12 C4*         1.3037   -0.8120   -0.3881 C.3     1  UNL1        0.1126
     13 C1*         0.5714    1.3054    0.3260 C.3     1  UNL1        0.1693
     14 C5*         1.9781   -0.9382   -1.7565 C.3     1  UNL1        0.0730
     15 C           1.4894    2.9844   -1.2253 C.ar    1  UNL1        0.3545
     16 C           0.9188    3.6391    0.9376 C.ar    1  UNL1        0.1057
     17 C           1.8787    5.1076   -0.4655 C.ar    1  UNL1        0.2184
     18 H2*        -0.5264    1.0535   -1.5684 H       1  UNL1        0.0665
     19 H3*        -0.6381   -1.3548   -1.2943 H       1  UNL1        0.0647
     20 H1*         0.2497    1.2896    1.3759 H       1  UNL1        0.0867
     21 H4*         1.6634   -1.6219    0.2570 H       1  UNL1        0.0647
     22 H5*1        1.7021   -1.8817   -2.2363 H       1  UNL1        0.0584
     23 H5*2        1.7145   -0.1296   -2.4382 H       1  UNL1        0.0584
     24 H2*        -2.1222    0.1534    0.4655 H       1  UNL1        0.2101
     25 H3*        -0.1572   -1.2792    1.4629 H       1  UNL1        0.2100
     26 H           0.4695    3.3583    1.9031 H       1  UNL1        0.1032
     27 H5*         3.6088   -0.0672   -1.1842 H       1  UNL1        0.2095
     28 H           2.6394    6.8120    0.2096 H       1  UNL1        0.1452
     29 H           3.0630    6.3978   -1.3877 H       1  UNL1        0.1452
@<TRIPOS>BOND
     1     1    12    1
     2     1    13    1
     3     2    10    1
     4     2    24    1
     5     3    11    1
     6     3    25    1
     7     4    14    1
     8     4    27    1
     9     5    15    2
    10     6    15   ar
    11     6    16   ar
    12     7    15   ar
    13     7    17   ar
    14     8    16   ar
    15     8    17   ar
    16     9    17    1
    17     9    28    1
    18     9    29    1
    19    10    11    1
    20    10    13    1
    21    10    18    1
    22    11    12    1
    23    11    19    1
    24    14    22    1
    25    14    23    1
    26    16    26    1
    27    12    21    1
    28    12    14    1
    29    13    20    1
    30    13     6    1
