@<TRIPOS>MOLECULE
mol_799_akc_journalpntd0011646
*****
 58 62 0 0 0
SMALL
GASTEIGER

@<TRIPOS>ATOM
      1 C          -3.9978   -4.2213    0.4080 C.ar    1  UNL1        0.0620
      2 C          -4.9017   -4.8668   -0.4510 C.ar    1  UNL1        0.0359
      3 C          -5.6219   -5.9782    0.0323 C.ar    1  UNL1        0.1325
      4 C          -5.4350   -6.4328    1.3349 C.ar    1  UNL1       -0.0257
      5 C          -4.5242   -5.7939    2.1704 C.ar    1  UNL1       -0.0570
      6 C          -3.7941   -4.6833    1.7266 C.ar    1  UNL1       -0.0366
      7 C          -4.8347   -4.2091   -1.7137 C.ar    1  UNL1       -0.0327
      8 C          -3.8976   -3.2040   -1.6165 C.ar    1  UNL1        0.0172
      9 N          -3.4089   -3.2260   -0.3453 N.ar    1  UNL1       -0.2986
     10 S          -1.9792   -2.4282    0.0827 S.3     1  UNL1       -0.1060
     11 C          -1.4167   -1.3422   -1.1357 C.2     1  UNL1       -0.0575
     12 C          -2.2660   -1.5107    1.5166 C.2     1  UNL1       -0.0575
     13 C          -0.7867   -3.6902    0.2778 C.ar    1  UNL1        0.0148
     14 C          -1.0086   -4.8279   -0.4828 C.ar    1  UNL1       -0.0474
     15 C           0.1971   -3.7018    1.2681 C.ar    1  UNL1       -0.0442
     16 C           0.7663   -4.9485    1.5990 C.ar    1  UNL1       -0.0419
     17 C           0.0493   -6.0935    1.2441 C.ar    1  UNL1       -0.0429
     18 C          -0.7082   -6.0378    0.0826 C.ar    1  UNL1       -0.0572
     19 F          -6.4804   -6.6273   -0.7669 F       1  UNL1       -0.2048
     20 C           2.1010   -5.0853    2.2902 C.3     1  UNL1       -0.0146
     21 C           2.9838   -6.3572    1.9822 C.3     1  UNL1        0.0032
     22 N           2.4705   -7.6697    1.5486 N.3     1  UNL1       -0.2975
     23 C           1.3073   -8.0883    2.3193 C.3     1  UNL1        0.0032
     24 C           0.0139   -7.3052    2.1281 C.3     1  UNL1       -0.0146
     25 C           2.3461   -7.8519    0.0928 C.3     1  UNL1        0.0241
     26 C           2.1682   -9.3052   -0.3327 C.ar    1  UNL1       -0.0332
     27 C           0.8869   -9.8583   -0.5587 C.ar    1  UNL1       -0.0546
     28 C           0.7411  -11.2046   -0.9217 C.ar    1  UNL1       -0.0262
     29 C           1.8727  -11.9911   -1.0812 C.ar    1  UNL1        0.1234
     30 C           3.1482  -11.4670   -0.8765 C.ar    1  UNL1       -0.0262
     31 C           3.2905  -10.1316   -0.5022 C.ar    1  UNL1       -0.0546
     32 F           1.7352  -13.2701   -1.4303 F       1  UNL1       -0.2055
     33 H          -5.9958   -7.2943    1.6836 H       1  UNL1        0.0646
     34 H          -4.3687   -6.1653    3.1816 H       1  UNL1        0.0619
     35 H          -3.0597   -4.2158    2.3776 H       1  UNL1        0.0639
     36 H          -5.3882   -4.4815   -2.6040 H       1  UNL1        0.0640
     37 H          -3.5213   -2.5219   -2.3669 H       1  UNL1        0.0819
     38 H          -1.4834   -0.2538   -1.0034 H       1  UNL1        0.0614
     39 H          -0.9836   -1.7270   -2.0699 H       1  UNL1        0.0614
     40 H          -1.7155   -1.6834    2.4561 H       1  UNL1        0.0614
     41 H          -3.0454   -0.7255    1.5080 H       1  UNL1        0.0614
     42 H          -1.6093   -4.8104   -1.3862 H       1  UNL1        0.0629
     43 H           0.5123   -2.7928    1.7535 H       1  UNL1        0.0632
     44 H          -1.1148   -6.9448   -0.3519 H       1  UNL1        0.0621
     45 H           2.7114   -4.2315    1.9652 H       1  UNL1        0.0326
     46 H           1.9615   -4.9764    3.3741 H       1  UNL1        0.0326
     47 H           3.7933   -6.0567    1.3041 H       1  UNL1        0.0430
     48 H           3.5160   -6.5528    2.9260 H       1  UNL1        0.0430
     49 H           1.0949   -9.1486    2.1467 H       1  UNL1        0.0430
     50 H           1.5698   -8.0679    3.3856 H       1  UNL1        0.0430
     51 H          -0.7667   -7.9796    1.7670 H       1  UNL1        0.0326
     52 H          -0.3378   -6.9711    3.1124 H       1  UNL1        0.0326
     53 H           1.5554   -7.2590   -0.3644 H       1  UNL1        0.0476
     54 H           3.2630   -7.4925   -0.3915 H       1  UNL1        0.0476
     55 H           0.0050   -9.2465   -0.4366 H       1  UNL1        0.0622
     56 H          -0.2401  -11.6311   -1.0811 H       1  UNL1        0.0646
     57 H           4.0136  -12.1002   -1.0120 H       1  UNL1        0.0646
     58 H           4.2878   -9.7291   -0.3319 H       1  UNL1        0.0622
@<TRIPOS>BOND
     1     2     3   ar
     2     3     4   ar
     3     4     5   ar
     4     5     6   ar
     5     1     6   ar
     6     2     7   ar
     7     1     2   ar
     8     1     9   ar
     9     7     8   ar
    10     8     9   ar
    11     9    10    1
    12    10    11    2
    13    10    12    2
    14    10    13    1
    15    14    13   ar
    16    13    15   ar
    17    15    16   ar
    18    16    17   ar
    19    17    18   ar
    20    14    18   ar
    21     3    19    1
    22    16    20    1
    23    20    21    1
    24    21    22    1
    25    22    23    1
    26    24    17    1
    27    24    23    1
    28    22    25    1
    29    25    26    1
    30    26    27   ar
    31    26    31   ar
    32    27    28   ar
    33    28    29   ar
    34    29    30   ar
    35    30    31   ar
    36    29    32    1
    37     4    33    1
    38     5    34    1
    39     6    35    1
    40     7    36    1
    41     8    37    1
    42    11    38    1
    43    11    39    1
    44    12    40    1
    45    12    41    1
    46    14    42    1
    47    15    43    1
    48    18    44    1
    49    20    45    1
    50    20    46    1
    51    21    47    1
    52    21    48    1
    53    23    49    1
    54    23    50    1
    55    24    51    1
    56    24    52    1
    57    25    53    1
    58    25    54    1
    59    27    55    1
    60    28    56    1
    61    30    57    1
    62    31    58    1
