@<TRIPOS>MOLECULE
mol_79_akc_jejmech2020112956
>78.sdf
 32 34 0 0 0
SMALL
GASTEIGER

@<TRIPOS>ATOM
      1 C           1.2336    0.4013   -0.7295 C.3     1  UNL1        0.0018
      2 N           2.4428    0.0250   -0.0138 N.pl3   1  UNL1       -0.3184
      3 C           2.8152    0.8949    1.0916 C.3     1  UNL1        0.0018
      4 C           3.1763   -1.1178   -0.3424 C.ar    1  UNL1        0.1643
      5 N           2.8050   -1.8248   -1.3956 N.ar    1  UNL1       -0.2353
      6 C           3.4982   -2.9633   -1.7448 C.ar    1  UNL1        0.0463
      7 C           4.5541   -3.4396   -1.0717 C.ar    1  UNL1        0.0301
      8 N           4.9897   -2.7453    0.0418 N.ar    1  UNL1       -0.2913
      9 C           4.3393   -1.5917    0.4246 C.ar    1  UNL1        0.1815
     10 N           4.8667   -1.0590    1.5091 N.ar    1  UNL1       -0.1961
     11 C           5.8730   -1.9160    1.8380 C.ar    1  UNL1        0.2413
     12 F           6.6302   -1.7501    2.8885 F       1  UNL1       -0.1815
     13 C           5.9865   -2.9843    0.9698 C.ar    1  UNL1        0.1283
     14 C           6.8621   -4.1423    1.0120 C.ar    1  UNL1        0.0971
     15 N           7.2777   -4.5974   -0.1846 N.ar    1  UNL1       -0.2130
     16 C           8.0528   -5.6840   -0.1755 C.ar    1  UNL1        0.2131
     17 N           8.5018   -6.1600   -1.3892 N.pl3   1  UNL1       -0.3275
     18 N           8.4566   -6.3257    0.9227 N.ar    1  UNL1       -0.2231
     19 C           8.0268   -5.8354    2.0980 C.ar    1  UNL1        0.0333
     20 C           7.2230   -4.7296    2.2048 C.ar    1  UNL1       -0.0158
     21 H           0.3850    0.4399   -0.0377 H       1  UNL1        0.0428
     22 H           1.3582    1.3918   -1.1790 H       1  UNL1        0.0428
     23 H           0.9651   -0.2915   -1.5336 H       1  UNL1        0.0428
     24 H           2.7509    0.3606    2.0448 H       1  UNL1        0.0428
     25 H           3.8288    1.2841    0.9528 H       1  UNL1        0.0428
     26 H           2.1482    1.7615    1.1632 H       1  UNL1        0.0428
     27 H           3.1298   -3.4858   -2.6244 H       1  UNL1        0.0845
     28 H           5.0750   -4.3422   -1.3617 H       1  UNL1        0.0829
     29 H           9.3463   -6.6970   -1.2452 H       1  UNL1        0.1452
     30 H           8.5476   -5.4046   -2.0585 H       1  UNL1        0.1452
     31 H           8.3551   -6.3796    2.9785 H       1  UNL1        0.0831
     32 H           6.8883   -4.3651    3.1664 H       1  UNL1        0.0655
@<TRIPOS>BOND
     1     1    21    1
     2     1    22    1
     3     1    23    1
     4     2     1    1
     5     3     2    1
     6     3    24    1
     7     3    25    1
     8     3    26    1
     9     4     2    1
    10     5     4   ar
    11     6     5   ar
    12     6    27    1
    13     7     6   ar
    14     7    28    1
    15     8     7   ar
    16     9     8   ar
    17     9     4   ar
    18    10     9   ar
    19    11    10   ar
    20    12    11    1
    21    13    11   ar
    22    13     8   ar
    23    14    13    1
    24    15    14   ar
    25    16    15   ar
    26    17    16    1
    27    17    29    1
    28    17    30    1
    29    18    16   ar
    30    19    18   ar
    31    19    31    1
    32    20    19   ar
    33    20    14   ar
    34    20    32    1
