@<TRIPOS>MOLECULE
mol_7_akc_1573406417666210216154428
>7.sdf
 21 21 0 0 0
SMALL
GASTEIGER

@<TRIPOS>ATOM
      1 N           3.1511   -0.5983    2.1637 N.am    1  UNL1       -0.3394
      2 C           2.4509   -1.0086    1.0797 C.2     1  UNL1        0.1473
      3 S           0.7973   -0.9172    1.0124 S.2     1  UNL1       -0.0174
      4 N           3.2033   -1.5034    0.0491 N.am    1  UNL1       -0.2186
      5 N           4.5653   -1.5440    0.1354 N.2     1  UNL1       -0.1884
      6 C           5.1735   -2.0296   -0.9016 C.2     1  UNL1        0.0542
      7 C           6.6522   -2.1159   -0.9406 C.ar    1  UNL1        0.0129
      8 C           7.3800   -1.6826    0.1790 C.ar    1  UNL1       -0.0503
      9 C           8.7751   -1.7311    0.1788 C.ar    1  UNL1       -0.0427
     10 C           9.4470   -2.2133   -0.9405 C.ar    1  UNL1        0.0424
     11 CL         11.1660   -2.2647   -0.9444 Cl      1  UNL1       -0.0835
     12 C           8.7376   -2.6521   -2.0573 C.ar    1  UNL1       -0.0244
     13 C           7.3387   -2.6049   -2.0603 C.ar    1  UNL1        0.0510
     14 CL          6.5334   -3.1658   -3.4819 Cl      1  UNL1       -0.0828
     15 H           2.6977   -0.1943    2.9698 H       1  UNL1        0.1440
     16 H           4.1594   -0.6549    2.1043 H       1  UNL1        0.1440
     17 H           2.7232   -1.8215   -0.7877 H       1  UNL1        0.1762
     18 H           4.6049   -2.3841   -1.7779 H       1  UNL1        0.0852
     19 H           6.8668   -1.3015    1.0600 H       1  UNL1        0.0625
     20 H           9.3259   -1.3895    1.0521 H       1  UNL1        0.0632
     21 H           9.2753   -3.0277   -2.9249 H       1  UNL1        0.0647
@<TRIPOS>BOND
     1     1    15    1
     2     1    16    1
     3     2     1    1
     4     3     2    2
     5     4     2    1
     6     4    17    1
     7     5     4    1
     8     6     5    2
     9     6    18    1
    10     7     6    1
    11     8     7   ar
    12     8    19    1
    13     9     8   ar
    14     9    20    1
    15    10     9   ar
    16    11    10    1
    17    12    10   ar
    18    12    21    1
    19    13    12   ar
    20    13     7   ar
    21    14    13    1
