@<TRIPOS>MOLECULE
mol_801_akc_jbioorg2023106890
*****
 80 80 0 0 0
SMALL
GASTEIGER

@<TRIPOS>ATOM
      1 C           0.9031   -0.1398    0.8605 C.3     1  UNL1       -0.0361
      2 C          -0.0038   -1.1609    0.1430 C.3     1  UNL1       -0.0499
      3 C          -1.3481   -0.4646   -0.0630 C.3     1  UNL1       -0.0525
      4 C          -1.0629    1.0360    0.0389 C.3     1  UNL1       -0.0479
      5 C           0.4631    1.1952    0.2029 C.3     1  UNL1       -0.0143
      6 C           0.8422   -0.2878    2.3996 C.3     1  UNL1       -0.0499
      7 C           0.8291    2.5927    0.7807 C.3     1  UNL1        0.0579
      8 O           2.1651    2.7895    1.2121 O.3     1  UNL1       -0.3272
      9 P           3.1485    3.8784    0.4795 P.3     1  UNL1        0.2126
     10 O           4.5253    3.2446    0.4444 O.co2   1  UNL1       -0.4373
     11 O           2.5005    4.4437   -0.7442 O.2     1  UNL1       -0.5172
     12 O           3.2225    5.1174    1.5927 O.3     1  UNL1       -0.3272
     13 C           4.5468    5.6035    1.8285 C.3     1  UNL1        0.0597
     14 C           4.7670    7.1031    2.1012 C.3     1  UNL1        0.0114
     15 C           3.9455    7.9460    3.0765 C.3     1  UNL1       -0.0287
     16 N           3.9326    7.5539    4.5644 N.4     1  UNL1        0.2369
     17 C           5.3216    7.2960    5.1243 C.3     1  UNL1       -0.0418
     18 C           3.3187    8.7156    5.3606 C.3     1  UNL1       -0.0418
     19 C           3.0465    6.3341    4.7613 C.3     1  UNL1       -0.0418
     20 C          -0.5378   -0.1937    3.0536 C.3     1  UNL1       -0.0528
     21 C          -0.5237   -0.4620    4.5590 C.3     1  UNL1       -0.0530
     22 C          -1.8614   -0.1145    5.2296 C.3     1  UNL1       -0.0531
     23 C          -3.0745   -0.9351    4.7581 C.3     1  UNL1       -0.0531
     24 C          -4.3423   -0.4580    5.4828 C.3     1  UNL1       -0.0531
     25 C          -5.6255   -1.2104    5.1106 C.3     1  UNL1       -0.0531
     26 C          -5.6519   -2.7048    5.4464 C.3     1  UNL1       -0.0531
     27 C          -5.4608   -2.9995    6.9355 C.3     1  UNL1       -0.0531
     28 C          -5.5192   -4.5026    7.2212 C.3     1  UNL1       -0.0533
     29 C          -5.2448   -4.7990    8.6966 C.3     1  UNL1       -0.0559
     30 C          -5.2737   -6.2924    8.9804 C.3     1  UNL1       -0.0653
     31 H           1.9423   -0.3413    0.5700 H       1  UNL1        0.0304
     32 H           0.4167   -1.3997   -0.8418 H       1  UNL1        0.0268
     33 H          -0.1080   -2.1089    0.6816 H       1  UNL1        0.0268
     34 H          -1.7876   -0.7316   -1.0319 H       1  UNL1        0.0265
     35 H          -2.0869   -0.7693    0.6901 H       1  UNL1        0.0265
     36 H          -1.4335    1.5647   -0.8433 H       1  UNL1        0.0269
     37 H          -1.6021    1.4473    0.9001 H       1  UNL1        0.0269
     38 H           0.8937    1.1691   -0.8110 H       1  UNL1        0.0326
     39 H           1.2613   -1.2805    2.6421 H       1  UNL1        0.0268
     40 H           1.5225    0.4389    2.8518 H       1  UNL1        0.0268
     41 H           0.5518    3.3420    0.0331 H       1  UNL1        0.0567
     42 H           0.1972    2.7903    1.6595 H       1  UNL1        0.0567
     43 H           4.9670    5.0138    2.6517 H       1  UNL1        0.0566
     44 H           5.1695    5.4032    0.9472 H       1  UNL1        0.0566
     45 H           5.8280    7.2218    2.3615 H       1  UNL1        0.0339
     46 H           4.6632    7.6110    1.1328 H       1  UNL1        0.0339
     47 H           4.3830    8.9551    3.0592 H       1  UNL1        0.0815
     48 H           2.9042    8.0441    2.7514 H       1  UNL1        0.0815
     49 H           5.9209    8.2060    5.0081 H       1  UNL1        0.0778
     50 H           5.2236    7.0560    6.1903 H       1  UNL1        0.0778
     51 H           5.7745    6.4579    4.5955 H       1  UNL1        0.0778
     52 H           2.3436    8.9606    4.9293 H       1  UNL1        0.0778
     53 H           3.2075    8.4028    6.4041 H       1  UNL1        0.0778
     54 H           3.9899    9.5796    5.2985 H       1  UNL1        0.0778
     55 H           2.0256    6.6020    4.4743 H       1  UNL1        0.0778
     56 H           3.4226    5.5144    4.1557 H       1  UNL1        0.0778
     57 H           3.0822    6.0530    5.8181 H       1  UNL1        0.0778
     58 H          -0.9514    0.8109    2.8786 H       1  UNL1        0.0265
     59 H          -1.2074   -0.9285    2.6043 H       1  UNL1        0.0265
     60 H          -0.2697   -1.5105    4.7498 H       1  UNL1        0.0265
     61 H           0.2608    0.1465    5.0258 H       1  UNL1        0.0265
     62 H          -1.7433   -0.2540    6.3103 H       1  UNL1        0.0265
     63 H          -2.0658    0.9516    5.0714 H       1  UNL1        0.0265
     64 H          -3.2208   -0.8225    3.6777 H       1  UNL1        0.0265
     65 H          -2.8937   -1.9966    4.9578 H       1  UNL1        0.0265
     66 H          -4.1888   -0.5006    6.5666 H       1  UNL1        0.0265
     67 H          -4.4996    0.6014    5.2420 H       1  UNL1        0.0265
     68 H          -6.4651   -0.7249    5.6247 H       1  UNL1        0.0265
     69 H          -5.8148   -1.0893    4.0369 H       1  UNL1        0.0265
     70 H          -6.6212   -3.1081    5.1279 H       1  UNL1        0.0265
     71 H          -4.8909   -3.2311    4.8590 H       1  UNL1        0.0265
     72 H          -4.4926   -2.6145    7.2731 H       1  UNL1        0.0265
     73 H          -6.2366   -2.4859    7.5164 H       1  UNL1        0.0265
     74 H          -6.5048   -4.8939    6.9424 H       1  UNL1        0.0265
     75 H          -4.7776   -5.0220    6.6019 H       1  UNL1        0.0265
     76 H          -4.2632   -4.4011    8.9788 H       1  UNL1        0.0263
     77 H          -5.9906   -4.2973    9.3238 H       1  UNL1        0.0263
     78 H          -4.5310   -6.8215    8.3747 H       1  UNL1        0.0230
     79 H          -5.0491   -6.4824   10.0345 H       1  UNL1        0.0230
     80 H          -6.2597   -6.7142    8.7615 H       1  UNL1        0.0230
@<TRIPOS>UNITY_ATOM_ATTR
10 1
charge -1
16 1
charge 1
@<TRIPOS>BOND
     1     1     2    1
     2     2     3    1
     3     3     4    1
     4     4     5    1
     5     1     5    1
     6     1     6    1
     7     5     7    1
     8     7     8    1
     9     8     9    1
    10     9    10    1
    11     9    11    2
    12     9    12    1
    13    12    13    1
    14    13    14    1
    15    14    15    1
    16    15    16    1
    17    16    17    1
    18    16    18    1
    19    16    19    1
    20     6    20    1
    21    20    21    1
    22    21    22    1
    23    22    23    1
    24    23    24    1
    25    24    25    1
    26    25    26    1
    27    26    27    1
    28    27    28    1
    29    28    29    1
    30    29    30    1
    31     1    31    1
    32     2    32    1
    33     2    33    1
    34     3    34    1
    35     3    35    1
    36     4    36    1
    37     4    37    1
    38     5    38    1
    39     6    39    1
    40     6    40    1
    41     7    41    1
    42     7    42    1
    43    13    43    1
    44    13    44    1
    45    14    45    1
    46    14    46    1
    47    15    47    1
    48    15    48    1
    49    17    49    1
    50    17    50    1
    51    17    51    1
    52    18    52    1
    53    18    53    1
    54    18    54    1
    55    19    55    1
    56    19    56    1
    57    19    57    1
    58    20    58    1
    59    20    59    1
    60    21    60    1
    61    21    61    1
    62    22    62    1
    63    22    63    1
    64    23    64    1
    65    23    65    1
    66    24    66    1
    67    24    67    1
    68    25    68    1
    69    25    69    1
    70    26    70    1
    71    26    71    1
    72    27    72    1
    73    27    73    1
    74    28    74    1
    75    28    75    1
    76    29    76    1
    77    29    77    1
    78    30    78    1
    79    30    79    1
    80    30    80    1
