@<TRIPOS>MOLECULE
mol_802_akc_jejmech2023115863
*****
 72 77 0 0 0
SMALL
GASTEIGER

@<TRIPOS>ATOM
      1 C           1.9162   -0.1262   -0.0475 C.3     1  UNL1        0.1166
      2 C           1.5529   -1.5623    0.3663 C.3     1  UNL1        0.1018
      3 C           0.1908   -1.7898    1.0702 C.3     1  UNL1        0.0283
      4 O           1.6814   -2.4362   -0.7711 O.3     1  UNL1       -0.3872
      5 C          -1.5738   -0.7570   -0.3258 C.3     1  UNL1        0.0148
      6 C          -2.4566    0.0436    0.6827 C.3     1  UNL1        0.0250
      7 N          -3.4375   -0.8571    1.3153 N.pl3   1  UNL1       -0.3263
      8 C          -2.7858   -2.0200    1.9525 C.3     1  UNL1        0.0250
      9 C          -2.0085   -2.8038    0.8699 C.3     1  UNL1        0.0148
     10 N          -0.9519   -2.0216    0.1633 N.3     1  UNL1       -0.2968
     11 C          -4.5277   -0.3517    2.0383 C.ar    1  UNL1        0.0497
     12 C          -5.7565   -1.0687    2.1172 C.ar    1  UNL1        0.0802
     13 C          -6.8147   -0.5982    2.9135 C.ar    1  UNL1        0.0610
     14 C          -6.6849    0.6015    3.6133 C.ar    1  UNL1       -0.0419
     15 C          -5.5095    1.3383    3.5128 C.ar    1  UNL1       -0.0585
     16 C          -4.4464    0.8669    2.7339 C.ar    1  UNL1       -0.0391
     17 CL         -5.9791   -2.5139    1.1628 Cl      1  UNL1       -0.0801
     18 CL         -8.3093   -1.4552    3.0863 Cl      1  UNL1       -0.0820
     19 O           1.5644    0.9275    0.8545 O.3     1  UNL1       -0.4894
     20 C           1.8613    0.7750    2.1761 C.ar    1  UNL1        0.1207
     21 C           2.9037    0.0192    2.7077 C.ar    1  UNL1       -0.0193
     22 C           2.9690   -0.2187    4.0900 C.ar    1  UNL1       -0.0491
     23 C           2.0218    0.3350    4.9647 C.ar    1  UNL1        0.0006
     24 C           1.0402    1.1789    4.4009 C.ar    1  UNL1       -0.0491
     25 C           0.9677    1.4058    3.0310 C.ar    1  UNL1       -0.0193
     26 C           4.4338   -0.9926   10.3441 C.ar    1  UNL1       -0.0413
     27 C           4.0026   -1.3291    9.0498 C.ar    1  UNL1       -0.0343
     28 C           3.4488   -0.3686    8.2082 C.ar    1  UNL1        0.0723
     29 C           3.3935    0.9673    8.6670 C.ar    1  UNL1        0.0095
     30 C           3.9211    1.3305    9.9199 C.ar    1  UNL1       -0.0336
     31 C           4.3924    0.3321   10.7675 C.ar    1  UNL1        0.0417
     32 C           2.6485    1.8531    7.8791 C.ar    1  UNL1       -0.0053
     33 C           1.6126    1.2078    7.2182 C.ar    1  UNL1       -0.0273
     34 C           2.0952    0.1852    6.4333 C.ar    1  UNL1        0.0723
     35 N           2.9490   -0.7001    6.9941 N.ar    1  UNL1       -0.2467
     36 C           3.1993    3.0008    7.0954 C.ar    1  UNL1        0.0011
     37 C           2.4092    4.1492    6.8700 C.ar    1  UNL1        0.0487
     38 C           2.6018    4.9471    5.7351 C.ar    1  UNL1       -0.0428
     39 C           3.6072    4.6377    4.8224 C.ar    1  UNL1       -0.0603
     40 C           4.4705    3.5775    5.0815 C.ar    1  UNL1       -0.0611
     41 C           4.2847    2.7789    6.2168 C.ar    1  UNL1       -0.0526
     42 CL          1.0897    4.5543    7.9159 Cl      1  UNL1       -0.0829
     43 CL          4.8371    0.7221   12.3842 Cl      1  UNL1       -0.0835
     44 H           1.4187    0.1082   -0.9972 H       1  UNL1        0.0723
     45 H           2.9865   -0.0536   -0.2790 H       1  UNL1        0.0723
     46 H           2.3199   -1.9146    1.0631 H       1  UNL1        0.0640
     47 H           0.3434   -2.7220    1.6324 H       1  UNL1        0.0453
     48 H          -0.0272   -1.0322    1.8244 H       1  UNL1        0.0453
     49 H           0.7989   -2.8342   -0.8935 H       1  UNL1        0.2100
     50 H          -2.2146   -1.0340   -1.1742 H       1  UNL1        0.0442
     51 H          -0.8141   -0.0920   -0.7463 H       1  UNL1        0.0442
     52 H          -2.9768    0.8368    0.1302 H       1  UNL1        0.0476
     53 H          -1.8184    0.5152    1.4375 H       1  UNL1        0.0476
     54 H          -2.1090   -1.6746    2.7458 H       1  UNL1        0.0476
     55 H          -3.5010   -2.6968    2.4306 H       1  UNL1        0.0476
     56 H          -2.7218   -3.1592    0.1147 H       1  UNL1        0.0442
     57 H          -1.5757   -3.7084    1.3140 H       1  UNL1        0.0442
     58 H          -7.5009    0.9677    4.2321 H       1  UNL1        0.0633
     59 H          -5.4140    2.2787    4.0512 H       1  UNL1        0.0619
     60 H          -3.5379    1.4623    2.7026 H       1  UNL1        0.0636
     61 H           3.6689   -0.4114    2.0682 H       1  UNL1        0.0654
     62 H           3.7832   -0.8245    4.4847 H       1  UNL1        0.0625
     63 H           0.3151    1.6870    5.0340 H       1  UNL1        0.0625
     64 H           0.1876    2.0479    2.6322 H       1  UNL1        0.0654
     65 H           4.7691   -1.7801   11.0165 H       1  UNL1        0.0633
     66 H           4.0365   -2.3607    8.7261 H       1  UNL1        0.0639
     67 H           3.8510    2.3570   10.2703 H       1  UNL1        0.0639
     68 H           0.8453    0.8314    7.9201 H       1  UNL1        0.0645
     69 H           1.9288    5.7749    5.5269 H       1  UNL1        0.0632
     70 H           3.7026    5.2078    3.9008 H       1  UNL1        0.0618
     71 H           5.2433    3.3224    4.3587 H       1  UNL1        0.0618
     72 H           4.9068    1.8904    6.3209 H       1  UNL1        0.0624
@<TRIPOS>BOND
     1     1     2    1
     2     2     3    1
     3     2     4    1
     4     5     6    1
     5     6     7    1
     6     7     8    1
     7     8     9    1
     8     9    10    1
     9     5    10    1
    10    11    12   ar
    11    12    13   ar
    12    13    14   ar
    13    14    15   ar
    14    15    16   ar
    15    11    16   ar
    16    12    17    1
    17    13    18    1
    18     7    11    1
    19     3    10    1
    20    19    20    1
    21    20    21   ar
    22    21    22   ar
    23    22    23   ar
    24    23    24   ar
    25    24    25   ar
    26    20    25   ar
    27    26    27   ar
    28    27    28   ar
    29    28    29   ar
    30    29    30   ar
    31    30    31   ar
    32    26    31   ar
    33    29    32   ar
    34    32    33   ar
    35    33    34   ar
    36    34    35   ar
    37    28    35   ar
    38    36    37   ar
    39    37    38   ar
    40    38    39   ar
    41    39    40   ar
    42    40    41   ar
    43    36    41   ar
    44    37    42    1
    45    32    36    1
    46    31    43    1
    47    23    34    1
    48     1    19    1
    49     1    44    1
    50     1    45    1
    51     2    46    1
    52     3    47    1
    53     3    48    1
    54     4    49    1
    55     5    50    1
    56     5    51    1
    57     6    52    1
    58     6    53    1
    59     8    54    1
    60     8    55    1
    61     9    56    1
    62     9    57    1
    63    14    58    1
    64    15    59    1
    65    16    60    1
    66    21    61    1
    67    22    62    1
    68    24    63    1
    69    25    64    1
    70    26    65    1
    71    27    66    1
    72    30    67    1
    73    33    68    1
    74    38    69    1
    75    39    70    1
    76    40    71    1
    77    41    72    1
