@<TRIPOS>MOLECULE
mol_804_akc_acsomega3c05441
*****
 48 50 0 0 0
SMALL
GASTEIGER

@<TRIPOS>ATOM
      1 C           1.8545    0.7590    0.0808 C.ar    1  UNL1        0.0328
      2 C           1.8085   -0.7243    0.0939 C.ar    1  UNL1       -0.0268
      3 C           0.5778   -1.2559    0.0904 C.ar    1  UNL1        0.0158
      4 N          -0.5478   -0.4268    0.0543 N.ar    1  UNL1       -0.2716
      5 C          -0.3952    0.9549    0.0365 C.ar    1  UNL1        0.2367
      6 N           0.8334    1.5531    0.0545 N.ar    1  UNL1       -0.2202
      7 C          -1.9293   -0.7347    0.0139 C.ar    1  UNL1        0.1327
      8 C          -2.5272    0.5422    0.0313 C.ar    1  UNL1        0.1131
      9 N          -1.5607    1.5358    0.0151 N.ar    1  UNL1       -0.2084
     10 N          -2.3017   -2.0677    0.1129 N.pl3   1  UNL1       -0.3228
     11 C          -3.1856   -2.9228   -0.7424 C.3     1  UNL1        0.0327
     12 C          -4.3164   -3.4318    0.1997 C.3     1  UNL1       -0.0435
     13 C          -3.7668   -2.1690   -1.9508 C.3     1  UNL1       -0.0435
     14 C          -2.3715   -4.2283   -1.2697 C.3     1  UNL1       -0.0170
     15 C          -1.8596   -5.1249   -0.1047 C.3     1  UNL1       -0.0581
     16 C          -3.2544   -5.1453   -2.1730 C.3     1  UNL1       -0.0581
     17 C          -1.1636   -3.8484   -2.1558 C.3     1  UNL1       -0.0581
     18 C          -3.9158    1.0233    0.0870 C.ar    1  UNL1        0.0050
     19 C          -4.1617    2.4105    0.0285 C.ar    1  UNL1       -0.0524
     20 C          -5.4554    2.9308   -0.0878 C.ar    1  UNL1       -0.0599
     21 C          -6.5401    2.0651   -0.1807 C.ar    1  UNL1       -0.0443
     22 C          -6.3296    0.6914   -0.0671 C.ar    1  UNL1        0.0524
     23 C          -5.0306    0.2004    0.1396 C.ar    1  UNL1       -0.0351
     24 C          -7.4222   -0.2301   -0.2367 C.1     1  UNL1        0.0992
     25 N          -8.2839   -0.9812   -0.4244 N.1     1  UNL1       -0.1909
     26 H           2.8668    1.1980    0.1034 H       1  UNL1        0.0831
     27 H           2.7297   -1.2893    0.0994 H       1  UNL1        0.0647
     28 H           0.4237   -2.3231    0.1047 H       1  UNL1        0.0815
     29 H          -1.6301   -2.6566    0.6004 H       1  UNL1        0.1480
     30 H          -5.0796   -2.6882    0.4122 H       1  UNL1        0.0250
     31 H          -4.8667   -4.2799   -0.2091 H       1  UNL1        0.0250
     32 H          -3.9151   -3.7375    1.1736 H       1  UNL1        0.0250
     33 H          -2.9868   -1.8353   -2.6407 H       1  UNL1        0.0250
     34 H          -4.4759   -2.7893   -2.5074 H       1  UNL1        0.0250
     35 H          -4.3202   -1.2755   -1.6872 H       1  UNL1        0.0250
     36 H          -1.8164   -4.6097    0.8575 H       1  UNL1        0.0236
     37 H          -2.5025   -6.0008    0.0425 H       1  UNL1        0.0236
     38 H          -0.8494   -5.5019   -0.3017 H       1  UNL1        0.0236
     39 H          -3.5371   -4.6530   -3.1086 H       1  UNL1        0.0236
     40 H          -2.7099   -6.0566   -2.4507 H       1  UNL1        0.0236
     41 H          -4.1705   -5.4774   -1.6784 H       1  UNL1        0.0236
     42 H          -1.4562   -3.2565   -3.0273 H       1  UNL1        0.0236
     43 H          -0.4092   -3.2918   -1.6037 H       1  UNL1        0.0236
     44 H          -0.6727   -4.7485   -2.5477 H       1  UNL1        0.0236
     45 H          -3.3282    3.1133    0.0535 H       1  UNL1        0.0624
     46 H          -5.6005    4.0067   -0.1440 H       1  UNL1        0.0618
     47 H          -7.5365    2.4668   -0.3481 H       1  UNL1        0.0630
     48 H          -4.8828   -0.8495    0.2903 H       1  UNL1        0.0637
@<TRIPOS>BOND
     1     1     2   ar
     2     1     6   ar
     3     2     3   ar
     4     3     4   ar
     5     5     6   ar
     6     4     7   ar
     7     4     5   ar
     8     5     9   ar
     9     7     8   ar
    10     8     9   ar
    11     7    10    1
    12    10    11    1
    13    11    12    1
    14    11    13    1
    15    11    14    1
    16    14    15    1
    17    14    16    1
    18    14    17    1
    19     8    18    1
    20    18    19   ar
    21    18    23   ar
    22    19    20   ar
    23    20    21   ar
    24    21    22   ar
    25    22    23   ar
    26    22    24    1
    27    24    25    3
    28     1    26    1
    29     2    27    1
    30     3    28    1
    31    10    29    1
    32    12    30    1
    33    12    31    1
    34    12    32    1
    35    13    33    1
    36    13    34    1
    37    13    35    1
    38    15    36    1
    39    15    37    1
    40    15    38    1
    41    16    39    1
    42    16    40    1
    43    16    41    1
    44    17    42    1
    45    17    43    1
    46    17    44    1
    47    19    45    1
    48    20    46    1
    49    21    47    1
    50    23    48    1
