@<TRIPOS>MOLECULE
mol_805_akc_20499361231208294
*****
 43 45 0 0 0
SMALL
GASTEIGER

@<TRIPOS>ATOM
      1 C          -1.1989   -1.5369   -0.1211 C.ar    1  UNL1       -0.0171
      2 C          -2.3676   -0.7866   -0.0055 C.ar    1  UNL1        0.1270
      3 C          -2.3091    0.6036    0.2213 C.ar    1  UNL1       -0.0295
      4 C          -1.0711    1.2536    0.3714 C.ar    1  UNL1       -0.0338
      5 C           0.1051    0.5287    0.2578 C.ar    1  UNL1        0.0711
      6 C          -0.0056   -0.8440    0.0082 C.ar    1  UNL1        0.0679
      7 N           1.4474    0.9424    0.4268 N.ar    1  UNL1       -0.2772
      8 N           2.1848   -0.2811    0.1146 N.ar    1  UNL1       -0.2443
      9 C           1.3471   -1.3663   -0.0730 C.ar    1  UNL1        0.2753
     10 N          -3.6729   -1.4529   -0.0835 N.pl3   1  UNL1        0.0565
     11 O          -3.6859   -2.6902   -0.1267 O.2     1  UNL1       -0.1261
     12 O          -4.6834   -0.7358   -0.0935 O.2     1  UNL1       -0.1261
     13 O           1.6192   -2.5354   -0.2659 O.2     1  UNL1       -0.2655
     14 C           3.6154   -0.4196    0.3196 C.3     1  UNL1        0.0684
     15 C           4.1061   -0.5503    1.7450 C.ar    1  UNL1       -0.0261
     16 C           3.2684   -0.8108    2.8357 C.ar    1  UNL1       -0.0568
     17 C           3.7991   -0.9979    4.1177 C.ar    1  UNL1       -0.0614
     18 C           5.1767   -0.9293    4.3223 C.ar    1  UNL1       -0.0617
     19 C           6.0251   -0.6754    3.2488 C.ar    1  UNL1       -0.0614
     20 C           5.4944   -0.4903    1.9714 C.ar    1  UNL1       -0.0568
     21 C           1.9057    2.1434   -0.3112 C.3     1  UNL1        0.0746
     22 C           1.3327    3.4681    0.1970 C.3     1  UNL1        0.1118
     23 O           1.9630    4.5915   -0.4496 O.3     1  UNL1       -0.4630
     24 C           3.0202    5.1408    0.2022 C.2     1  UNL1        0.3040
     25 O           3.5307    4.6968    1.2161 O.2     1  UNL1       -0.2512
     26 C           3.4883    6.3770   -0.5079 C.3     1  UNL1        0.0332
     27 H          -1.1959   -2.6099   -0.2916 H       1  UNL1        0.0648
     28 H          -3.2226    1.1919    0.3127 H       1  UNL1        0.0641
     29 H          -1.0867    2.3058    0.6213 H       1  UNL1        0.0639
     30 H           3.9284   -1.3300   -0.2081 H       1  UNL1        0.0559
     31 H           4.1176    0.4187   -0.1721 H       1  UNL1        0.0559
     32 H           2.1920   -0.8854    2.7063 H       1  UNL1        0.0621
     33 H           3.1375   -1.2031    4.9521 H       1  UNL1        0.0618
     34 H           5.5865   -1.0829    5.3170 H       1  UNL1        0.0618
     35 H           7.0998   -0.6338    3.4037 H       1  UNL1        0.0618
     36 H           6.1768   -0.3119    1.1429 H       1  UNL1        0.0621
     37 H           2.9951    2.2220   -0.2113 H       1  UNL1        0.0542
     38 H           1.7178    2.0352   -1.3872 H       1  UNL1        0.0542
     39 H           0.2841    3.5646   -0.0810 H       1  UNL1        0.0716
     40 H           1.3878    3.5484    1.2888 H       1  UNL1        0.0716
     41 H           2.7884    6.6614   -1.2993 H       1  UNL1        0.0342
     42 H           3.5436    7.2039    0.2053 H       1  UNL1        0.0342
     43 H           4.4669    6.1887   -0.9533 H       1  UNL1        0.0342
@<TRIPOS>BOND
     1     1     2   ar
     2     1     6   ar
     3     2     3   ar
     4     3     4   ar
     5     4     5   ar
     6     5     7   ar
     7     5     6   ar
     8     6     9   ar
     9     7     8   ar
    10     8     9   ar
    11     2    10    1
    12    10    11    2
    13    10    12    2
    14     9    13    2
    15     8    14    1
    16    14    15    1
    17    15    16   ar
    18    15    20   ar
    19    16    17   ar
    20    17    18   ar
    21    18    19   ar
    22    19    20   ar
    23     7    21    1
    24    21    22    1
    25    22    23    1
    26    23    24    1
    27    24    25    2
    28    24    26    1
    29     1    27    1
    30     3    28    1
    31     4    29    1
    32    14    30    1
    33    14    31    1
    34    16    32    1
    35    17    33    1
    36    18    34    1
    37    19    35    1
    38    20    36    1
    39    21    37    1
    40    21    38    1
    41    22    39    1
    42    22    40    1
    43    26    41    1
    44    26    42    1
    45    26    43    1
