@<TRIPOS>MOLECULE
mol_806_akc_preprints2023081856v1
(E)?3?(4?(allyloxy)?3?bromo?5?methoxyphenyl)?1?(benzo[d][1,3]dioxol?5?yl)prop?2?en?1?one
 43 45 0 0 0
SMALL
GASTEIGER

@<TRIPOS>ATOM
      1 C          -0.8429   -1.0946   -0.2183 C.2     1  UNL1        0.1862
      2 C          -1.5434    0.2012   -0.4225 C.2     1  UNL1       -0.0138
      3 C          -1.0797    1.3114    0.1719 C.2     1  UNL1       -0.0508
      4 O           0.1165   -1.2001    0.5362 O.2     1  UNL1       -0.2873
      5 O          -3.1061   -3.5099   -3.9197 O.3     1  UNL1       -0.4526
      6 C          -3.2885   -4.9399   -3.9982 C.3     1  UNL1        0.2332
      7 O          -2.8194   -5.6412   -2.8279 O.3     1  UNL1       -0.4526
      8 C          -2.3087   -4.6136   -2.0995 C.ar    1  UNL1        0.1663
      9 C          -2.4722   -3.3971   -2.7207 C.ar    1  UNL1        0.1669
     10 C          -2.0205   -2.2197   -2.1600 C.ar    1  UNL1       -0.0053
     11 C          -1.3803   -2.2953   -0.9154 C.ar    1  UNL1        0.0253
     12 C          -1.2017   -3.5514   -0.2871 C.ar    1  UNL1       -0.0472
     13 C          -1.6777   -4.7257   -0.8808 C.ar    1  UNL1       -0.0155
     14 C          -1.7853    2.5830    0.0337 C.ar    1  UNL1       -0.0202
     15 C          -1.5379    3.4131   -1.0568 C.ar    1  UNL1       -0.0368
     16 C          -2.2636    4.6013   -1.2301 C.ar    1  UNL1        0.0637
     17 C          -3.2070    5.0066   -0.2681 C.ar    1  UNL1        0.1762
     18 C          -3.4876    4.1346    0.8131 C.ar    1  UNL1        0.1632
     19 C          -2.7721    2.9365    0.9559 C.ar    1  UNL1       -0.0091
     20 O          -4.4829    4.5293    1.6771 O.3     1  UNL1       -0.4914
     21 C          -4.8805    3.6086    2.6872 C.3     1  UNL1        0.0790
     22 BR         -1.9674    5.4688   -2.9000 Br      1  UNL1       -0.0464
     23 O          -3.9646    6.1564   -0.3022 O.3     1  UNL1       -0.4832
     24 C          -3.3066    7.3553   -0.7126 C.3     1  UNL1        0.1078
     25 C          -3.7758    8.5653    0.0499 C.2     1  UNL1       -0.0542
     26 C          -4.6334    8.5990    1.0766 C.2     1  UNL1       -0.0995
     27 H          -2.4472    0.2248   -1.0186 H       1  UNL1        0.0656
     28 H          -0.1853    1.3057    0.7945 H       1  UNL1        0.0625
     29 H          -4.3553   -5.1517   -4.1337 H       1  UNL1        0.1166
     30 H          -2.7417   -5.3148   -4.8718 H       1  UNL1        0.1166
     31 H          -2.1475   -1.2880   -2.6994 H       1  UNL1        0.0662
     32 H          -0.6885   -3.6094    0.6710 H       1  UNL1        0.0626
     33 H          -1.5443   -5.6901   -0.4038 H       1  UNL1        0.0655
     34 H          -0.7946    3.1155   -1.7945 H       1  UNL1        0.0636
     35 H          -2.9699    2.2550    1.7776 H       1  UNL1        0.0661
     36 H          -5.2015    2.6525    2.2580 H       1  UNL1        0.0660
     37 H          -4.0783    3.4625    3.4183 H       1  UNL1        0.0660
     38 H          -5.7387    4.0346    3.2156 H       1  UNL1        0.0660
     39 H          -2.2192    7.2963   -0.5859 H       1  UNL1        0.0742
     40 H          -3.5561    7.5330   -1.7637 H       1  UNL1        0.0742
     41 H          -3.3546    9.5079   -0.2944 H       1  UNL1        0.0600
     42 H          -4.8964    9.5409    1.5484 H       1  UNL1        0.0533
     43 H          -5.0861    7.6929    1.4671 H       1  UNL1        0.0533
@<TRIPOS>BOND
     1     1     2    1
     2     2     3    2
     3     1     4    2
     4     5     6    1
     5     6     7    1
     6     7     8    1
     7     5     9    1
     8     8     9   ar
     9     9    10   ar
    10    10    11   ar
    11    11    12   ar
    12    12    13   ar
    13     8    13   ar
    14     1    11    1
    15    14    15   ar
    16    15    16   ar
    17    16    17   ar
    18    17    18   ar
    19    18    19   ar
    20    14    19   ar
    21    20    21    1
    22    18    20    1
    23    16    22    1
    24    24    25    1
    25    25    26    2
    26    23    24    1
    27    17    23    1
    28     3    14    1
    29     2    27    1
    30     3    28    1
    31     6    29    1
    32     6    30    1
    33    10    31    1
    34    12    32    1
    35    13    33    1
    36    15    34    1
    37    19    35    1
    38    21    36    1
    39    21    37    1
    40    21    38    1
    41    24    39    1
    42    24    40    1
    43    25    41    1
    44    26    42    1
    45    26    43    1
