@<TRIPOS>MOLECULE
mol_809_akc_1809_4392202300281
*****
 30 31 0 0 0
SMALL
GASTEIGER

@<TRIPOS>ATOM
      1 C           1.0452    1.3760    0.1290 C.ar    1  UNL1       -0.0090
      2 C          -0.1521    0.6970    0.1119 C.ar    1  UNL1        0.1704
      3 C          -0.2164   -0.6657   -0.0258 C.ar    1  UNL1        0.2112
      4 C           0.9400   -1.4239   -0.1394 C.ar    1  UNL1        0.2077
      5 C           2.2043   -0.7525   -0.1374 C.ar    1  UNL1        0.1689
      6 C           2.2610    0.6638   -0.0066 C.ar    1  UNL1        0.0053
      7 O          -1.5092   -1.0989   -0.0172 O.3     1  UNL1       -0.4488
      8 C          -2.2315    0.1346    0.1385 C.3     1  UNL1        0.2334
      9 O          -1.3736    1.2842    0.2279 O.3     1  UNL1       -0.4525
     10 O           0.9953   -2.7913   -0.2646 O.3     1  UNL1       -0.4884
     11 C          -0.2172   -3.5266   -0.1924 C.3     1  UNL1        0.0791
     12 O           3.2491   -1.6393   -0.2108 O.3     1  UNL1       -0.4910
     13 C           4.5595   -1.2535   -0.5622 C.3     1  UNL1        0.0790
     14 C           3.5021    1.5290    0.0652 C.3     1  UNL1       -0.0060
     15 C           4.0307    1.6897    1.4640 C.2     1  UNL1       -0.0867
     16 C           4.2064    2.8688    2.0713 C.2     1  UNL1       -0.1023
     17 H           1.0383    2.4542    0.2620 H       1  UNL1        0.0659
     18 H          -2.9009    0.2608   -0.7202 H       1  UNL1        0.1166
     19 H          -2.8388    0.0754    1.0495 H       1  UNL1        0.1166
     20 H          -0.7415   -3.3492    0.7521 H       1  UNL1        0.0660
     21 H          -0.8541   -3.3199   -1.0582 H       1  UNL1        0.0660
     22 H           0.0387   -4.5905   -0.2226 H       1  UNL1        0.0660
     23 H           4.5827   -0.6739   -1.4889 H       1  UNL1        0.0660
     24 H           5.0475   -0.7416    0.2694 H       1  UNL1        0.0660
     25 H           5.1345   -2.1670   -0.7464 H       1  UNL1        0.0660
     26 H           4.2912    1.1763   -0.5970 H       1  UNL1        0.0357
     27 H           3.2611    2.5177   -0.3517 H       1  UNL1        0.0357
     28 H           4.2875    0.7786    2.0031 H       1  UNL1        0.0570
     29 H           4.5986    2.9207    3.0818 H       1  UNL1        0.0532
     30 H           3.9680    3.8067    1.5799 H       1  UNL1        0.0532
@<TRIPOS>BOND
     1     1     2   ar
     2     1     6   ar
     3     3     4   ar
     4     4     5   ar
     5     5     6   ar
     6     2     9    1
     7     2     3   ar
     8     3     7    1
     9     7     8    1
    10     8     9    1
    11     4    10    1
    12    10    11    1
    13     5    12    1
    14    12    13    1
    15     6    14    1
    16    14    15    1
    17    15    16    2
    18     1    17    1
    19     8    18    1
    20     8    19    1
    21    11    20    1
    22    11    21    1
    23    11    22    1
    24    13    23    1
    25    13    24    1
    26    13    25    1
    27    14    26    1
    28    14    27    1
    29    15    28    1
    30    16    29    1
    31    16    30    1
