@<TRIPOS>MOLECULE
mol_80_akc_jheliyon2020e03614
>79.sdf
 53 56 0 0 0
SMALL
GASTEIGER

@<TRIPOS>ATOM
      1 C           0.9959   -3.1682   -0.9540 C.3     1  UNL1       -0.0248
      2 C           1.4759   -1.7176   -0.7775 C.3     1  UNL1        0.1121
      3 C           2.9761   -1.7480   -0.4419 C.3     1  UNL1       -0.0248
      4 C           1.2792   -0.8784   -2.0408 C.3     1  UNL1        0.0499
      5 C          -0.1836   -0.6429   -2.2840 C.2     1  UNL1        0.1704
      6 O          -0.6629   -0.5540   -3.4094 O.2     1  UNL1       -0.2918
      7 C          -1.0109   -0.4313   -1.0843 C.ar    1  UNL1        0.0595
      8 C          -2.3310    0.0264   -1.2026 C.ar    1  UNL1       -0.0431
      9 C          -3.0988    0.2668   -0.0541 C.ar    1  UNL1       -0.0294
     10 C          -4.5251    0.7476   -0.1552 C.3     1  UNL1        0.0371
     11 N          -4.6081    2.1926   -0.1350 N.am    1  UNL1       -0.3077
     12 C          -5.3476    2.8599    0.8112 C.2     1  UNL1        0.2372
     13 O          -5.9381    2.3151    1.7345 O.2     1  UNL1       -0.2708
     14 C          -5.3803    4.3321    0.6015 C.2     1  UNL1        0.0001
     15 C          -6.0592    5.1205    1.4540 C.2     1  UNL1       -0.0568
     16 C          -6.1265    6.5604    1.3065 C.2     1  UNL1       -0.0610
     17 C          -6.8021    7.3603    2.1502 C.2     1  UNL1       -0.0545
     18 C          -6.8677    8.8285    2.0227 C.ar    1  UNL1       -0.0213
     19 C          -6.8196    9.4704    0.7748 C.ar    1  UNL1       -0.0090
     20 C          -6.8741   10.8492    0.7429 C.ar    1  UNL1        0.1668
     21 C          -6.9996   11.5986    1.8868 C.ar    1  UNL1        0.1663
     22 O          -7.0254   12.9339    1.6315 O.3     1  UNL1       -0.4526
     23 C          -6.8466   12.9393    0.1996 C.3     1  UNL1        0.2332
     24 O          -6.8090   11.6177   -0.3778 O.3     1  UNL1       -0.4526
     25 C          -7.0876   11.0096    3.1275 C.ar    1  UNL1       -0.0156
     26 C          -7.0226    9.6106    3.1911 C.ar    1  UNL1       -0.0509
     27 C          -2.5116    0.0586    1.2033 C.ar    1  UNL1       -0.0536
     28 C          -1.1960   -0.4074    1.3116 C.ar    1  UNL1       -0.0189
     29 C          -0.4447   -0.6650    0.1663 C.ar    1  UNL1        0.1318
     30 O           0.8281   -1.1259    0.3650 O.3     1  UNL1       -0.4851
     31 H           1.1861   -3.7518   -0.0457 H       1  UNL1        0.0268
     32 H          -0.0826   -3.2259   -1.1323 H       1  UNL1        0.0268
     33 H           1.5055   -3.6580   -1.7908 H       1  UNL1        0.0268
     34 H           3.3553   -0.7372   -0.2522 H       1  UNL1        0.0268
     35 H           3.1631   -2.3232    0.4724 H       1  UNL1        0.0268
     36 H           3.5633   -2.1905   -1.2543 H       1  UNL1        0.0268
     37 H           1.7147   -1.3788   -2.9129 H       1  UNL1        0.0384
     38 H           1.7458    0.1093   -1.9381 H       1  UNL1        0.0384
     39 H          -2.7541    0.1928   -2.1919 H       1  UNL1        0.0629
     40 H          -4.9684    0.4119   -1.1003 H       1  UNL1        0.0512
     41 H          -5.1261    0.3052    0.6468 H       1  UNL1        0.0512
     42 H          -4.1622    2.6978   -0.8856 H       1  UNL1        0.1493
     43 H          -4.8507    4.7394   -0.2481 H       1  UNL1        0.0669
     44 H          -6.5856    4.6770    2.2977 H       1  UNL1        0.0619
     45 H          -5.5817    6.9878    0.4684 H       1  UNL1        0.0618
     46 H          -7.3232    6.9374    3.0065 H       1  UNL1        0.0623
     47 H          -6.7416    8.9181   -0.1545 H       1  UNL1        0.0661
     48 H          -7.6700   13.4998   -0.2572 H       1  UNL1        0.1166
     49 H          -5.9036   13.4481   -0.0336 H       1  UNL1        0.1166
     50 H          -7.1960   11.6094    4.0242 H       1  UNL1        0.0655
     51 H          -7.0805    9.1313    4.1668 H       1  UNL1        0.0625
     52 H          -3.0850    0.2500    2.1099 H       1  UNL1        0.0622
     53 H          -0.7637   -0.5782    2.2947 H       1  UNL1        0.0654
@<TRIPOS>BOND
     1     1    31    1
     2     1    32    1
     3     1    33    1
     4     2     1    1
     5     3     2    1
     6     3    34    1
     7     3    35    1
     8     3    36    1
     9     4     2    1
    10     4    37    1
    11     4    38    1
    12     5     4    1
    13     6     5    2
    14     7     5    1
    15     8     7   ar
    16     8    39    1
    17     9     8   ar
    18    10     9    1
    19    10    40    1
    20    10    41    1
    21    11    10    1
    22    11    42    1
    23    12    11   am
    24    13    12    2
    25    14    12    1
    26    14    43    1
    27    15    14    2
    28    15    44    1
    29    16    15    1
    30    16    45    1
    31    17    16    2
    32    17    46    1
    33    18    17    1
    34    19    18   ar
    35    19    47    1
    36    20    19   ar
    37    21    20   ar
    38    22    21    1
    39    23    22    1
    40    23    48    1
    41    23    49    1
    42    24    23    1
    43    24    20    1
    44    25    21   ar
    45    25    50    1
    46    26    25   ar
    47    26    18   ar
    48    26    51    1
    49    27     9   ar
    50    27    52    1
    51    28    27   ar
    52    28    53    1
    53    29    28   ar
    54    29     7   ar
    55    30    29    1
    56    30     2    1
