@<TRIPOS>MOLECULE
mol_811_akc_s11030_022_10548_9
*****
 55 58 0 0 0
SMALL
GASTEIGER

@<TRIPOS>ATOM
      1 C           4.3665   -7.4912   -3.1736 C.ar    1  UNL1        0.2754
      2 C           5.7665   -7.7787   -3.6517 C.ar    1  UNL1        0.1227
      3 N           6.4506   -6.9093   -4.3373 N.ar    1  UNL1       -0.1666
      4 N           5.8300   -5.7200   -4.6872 N.ar    1  UNL1       -0.2097
      5 C           4.4691   -5.4859   -4.4905 C.ar    1  UNL1        0.3458
      6 N           3.8535   -6.3072   -3.5948 N.ar    1  UNL1       -0.2723
      7 C           6.6169   -4.8480   -5.5698 C.3     1  UNL1        0.0751
      8 C           6.3854   -3.3566   -5.4085 C.ar    1  UNL1        0.0168
      9 C           6.2934   -2.6930   -4.1602 C.ar    1  UNL1        0.1449
     10 C           6.1794   -2.6125   -6.5811 C.ar    1  UNL1       -0.0533
     11 C           5.8159   -1.2747   -6.5165 C.ar    1  UNL1       -0.0608
     12 C           5.6639   -0.6544   -5.2776 C.ar    1  UNL1       -0.0498
     13 C           5.8935   -1.3409   -4.0644 C.ar    1  UNL1        0.0557
     14 C           5.5805   -0.6533   -2.7333 C.3     1  UNL1        0.2203
     15 N           6.7274   -0.3956   -1.8752 N.am    1  UNL1       -0.1459
     16 N           7.0177    0.9438   -1.8425 N.2     1  UNL1       -0.1355
     17 C           6.0517    1.4938   -2.5019 C.2     1  UNL1        0.2399
     18 O           5.0785    0.6783   -2.9788 O.2     1  UNL1       -0.4468
     19 C           5.8963    2.9358   -2.7546 C.ar    1  UNL1        0.0392
     20 C           4.8023    3.4518   -3.4590 C.ar    1  UNL1       -0.0494
     21 C           4.7070    4.8282   -3.6898 C.ar    1  UNL1       -0.0597
     22 C           5.6997    5.6890   -3.2172 C.ar    1  UNL1       -0.0433
     23 C           6.7839    5.1728   -2.5103 C.ar    1  UNL1        0.0417
     24 C           6.8876    3.8036   -2.2763 C.ar    1  UNL1       -0.0311
     25 C           7.0408   -1.1782   -0.7786 C.2     1  UNL1        0.2351
     26 O           6.4860   -2.2451   -0.5151 O.2     1  UNL1       -0.2740
     27 C           8.0794   -0.5992    0.1520 C.3     1  UNL1        0.0141
     28 O           6.3917   -3.4472   -2.9740 O.3     1  UNL1       -0.4252
     29 C           7.6217   -4.0386   -2.6829 C.2     1  UNL1        0.3092
     30 O           8.6754   -3.8492   -3.2772 O.2     1  UNL1       -0.2507
     31 C           7.4619   -4.9959   -1.5343 C.3     1  UNL1        0.0336
     32 O           3.8068   -4.6099   -5.0410 O.2     1  UNL1       -0.2449
     33 O           3.7542   -8.2941   -2.4874 O.2     1  UNL1       -0.2658
     34 C           6.3571   -9.1228   -3.3436 C.3     1  UNL1       -0.0154
     35 CL          8.0053    6.2335   -1.9236 Cl      1  UNL1       -0.0835
     36 H           2.8865   -6.1119   -3.3919 H       1  UNL1        0.1735
     37 H           7.6830   -5.0561   -5.4188 H       1  UNL1        0.0561
     38 H           6.3704   -5.1621   -6.5915 H       1  UNL1        0.0561
     39 H           6.2438   -3.0897   -7.5571 H       1  UNL1        0.0622
     40 H           5.6039   -0.7257   -7.4307 H       1  UNL1        0.0618
     41 H           5.3189    0.3773   -5.2814 H       1  UNL1        0.0623
     42 H           4.8053   -1.2120   -2.1964 H       1  UNL1        0.1027
     43 H           4.0192    2.7967   -3.8335 H       1  UNL1        0.0625
     44 H           3.8595    5.2318   -4.2397 H       1  UNL1        0.0618
     45 H           5.6241    6.7578   -3.4018 H       1  UNL1        0.0632
     46 H           7.7405    3.4142   -1.7247 H       1  UNL1        0.0640
     47 H           8.9279   -0.2006   -0.4104 H       1  UNL1        0.0323
     48 H           7.6260    0.1910    0.7580 H       1  UNL1        0.0323
     49 H           8.4500   -1.3850    0.8162 H       1  UNL1        0.0323
     50 H           8.1104   -4.6922   -0.7096 H       1  UNL1        0.0342
     51 H           6.4271   -5.0091   -1.1793 H       1  UNL1        0.0342
     52 H           7.7174   -6.0056   -1.8647 H       1  UNL1        0.0342
     53 H           6.5319   -9.6530   -4.2850 H       1  UNL1        0.0295
     54 H           7.3111   -8.9917   -2.8265 H       1  UNL1        0.0295
     55 H           5.6969   -9.7296   -2.7210 H       1  UNL1        0.0295
@<TRIPOS>BOND
     1     1     2   ar
     2     1     6   ar
     3     2     3   ar
     4     3     4   ar
     5     4     5   ar
     6     5     6   ar
     7     4     7    1
     8     7     8    1
     9     9     8   ar
    10     8    10   ar
    11     9    13   ar
    12    10    11   ar
    13    11    12   ar
    14    12    13   ar
    15    14    15    1
    16    14    18    1
    17    15    16    1
    18    16    17    2
    19    17    18    1
    20    17    19    1
    21    19    20   ar
    22    19    24   ar
    23    20    21   ar
    24    21    22   ar
    25    22    23   ar
    26    23    24   ar
    27    15    25   am
    28    25    26    2
    29    25    27    1
    30     9    28    1
    31    28    29    1
    32    29    30    2
    33    29    31    1
    34     5    32    2
    35     1    33    2
    36     2    34    1
    37    23    35    1
    38     6    36    1
    39     7    37    1
    40     7    38    1
    41    10    39    1
    42    11    40    1
    43    12    41    1
    44    20    43    1
    45    21    44    1
    46    22    45    1
    47    24    46    1
    48    27    47    1
    49    27    48    1
    50    27    49    1
    51    31    50    1
    52    31    51    1
    53    31    52    1
    54    34    53    1
    55    34    54    1
    56    34    55    1
    57    14    42    1
    58    14    13    1
