@<TRIPOS>MOLECULE
mol_813_akc_ardp202300440
*****
 65 68 0 0 0
SMALL
GASTEIGER

@<TRIPOS>ATOM
      1 O           3.5480    2.6974   -2.6064 O.2     1  UNL1       -0.1500
      2 S           3.5449    1.3537   -2.0675 S.O2    1  UNL1        0.0723
      3 C           5.2097    0.7299   -2.1428 C.ar    1  UNL1        0.1085
      4 C           5.4433   -0.6445   -2.1195 C.ar    1  UNL1       -0.0345
      5 C           6.7600   -1.1154   -2.0491 C.ar    1  UNL1       -0.0522
      6 C           7.8587   -0.2323   -2.0188 C.ar    1  UNL1       -0.0178
      7 C           9.2491   -0.7205   -1.8491 C.ar    1  UNL1       -0.0179
      8 C           9.6858   -1.9370   -2.4029 C.ar    1  UNL1       -0.0540
      9 C          10.9983   -2.3902   -2.2240 C.ar    1  UNL1       -0.0612
     10 C          11.9088   -1.6308   -1.4946 C.ar    1  UNL1       -0.0617
     11 C          11.5053   -0.4244   -0.9358 C.ar    1  UNL1       -0.0612
     12 C          10.1903    0.0183   -1.1045 C.ar    1  UNL1       -0.0540
     13 C           7.5837    1.1459   -2.1225 C.ar    1  UNL1       -0.0522
     14 C           6.2750    1.6285   -2.1832 C.ar    1  UNL1       -0.0345
     15 N           3.2495    1.4050   -0.4000 N.pl3   1  UNL1       -0.2162
     16 C           4.1504    2.1366    0.4273 C.ar    1  UNL1        0.0486
     17 C           5.1273    1.4575    1.1555 C.ar    1  UNL1       -0.0393
     18 C           6.0631    2.1758    1.9032 C.ar    1  UNL1       -0.0594
     19 C           6.0123    3.5741    1.9366 C.ar    1  UNL1       -0.0545
     20 C           5.0286    4.2547    1.2179 C.ar    1  UNL1       -0.0231
     21 C           4.9152    5.7130    1.2610 C.2     1  UNL1       -0.0509
     22 C           5.6360    6.5179    0.4649 C.2     1  UNL1       -0.0135
     23 C           5.2700    7.9653    0.3873 C.2     1  UNL1        0.1931
     24 C           5.6346    8.7490   -0.8472 C.ar    1  UNL1        0.1049
     25 C           5.6948    8.1496   -2.1281 C.ar    1  UNL1        0.1379
     26 O           5.4097    6.8113   -2.2488 O.3     1  UNL1       -0.4942
     27 C           6.0249    6.1158   -3.3309 C.3     1  UNL1        0.0788
     28 C           5.9432    8.9360   -3.2664 C.ar    1  UNL1        0.0227
     29 C           6.1478   10.3068   -3.1559 C.ar    1  UNL1        0.1271
     30 O           6.3909   11.1686   -4.1898 O.3     1  UNL1       -0.4949
     31 C           6.3942   10.6207   -5.5030 C.3     1  UNL1        0.0788
     32 C           6.1032   10.9010   -1.8979 C.ar    1  UNL1        0.0227
     33 C           5.8344   10.1459   -0.7461 C.ar    1  UNL1        0.1379
     34 O           5.8331   10.7287    0.4979 O.3     1  UNL1       -0.4942
     35 C           5.3818   12.0802    0.5577 C.3     1  UNL1        0.0788
     36 O           4.6447    8.4837    1.3095 O.2     1  UNL1       -0.2870
     37 C           4.1078    3.5299    0.4484 C.ar    1  UNL1       -0.0322
     38 O           2.6755    0.3274   -2.6054 O.2     1  UNL1       -0.1500
     39 H           4.6168   -1.3519   -2.1269 H       1  UNL1        0.0637
     40 H           6.9153   -2.1915   -1.9862 H       1  UNL1        0.0624
     41 H           9.0103   -2.5501   -2.9951 H       1  UNL1        0.0624
     42 H          11.3088   -3.3366   -2.6595 H       1  UNL1        0.0618
     43 H          12.9292   -1.9795   -1.3616 H       1  UNL1        0.0618
     44 H          12.2090    0.1742   -0.3632 H       1  UNL1        0.0618
     45 H           9.9059    0.9549   -0.6291 H       1  UNL1        0.0624
     46 H           8.3961    1.8702   -2.1381 H       1  UNL1        0.0624
     47 H           6.0980    2.6993   -2.2155 H       1  UNL1        0.0637
     48 H           2.9207    0.5060   -0.0513 H       1  UNL1        0.1737
     49 H           5.1867    0.3728    1.1319 H       1  UNL1        0.0636
     50 H           6.8313    1.6460    2.4612 H       1  UNL1        0.0618
     51 H           6.7371    4.1204    2.5358 H       1  UNL1        0.0623
     52 H           4.1242    6.1074    1.8959 H       1  UNL1        0.0625
     53 H           6.4017    6.1332   -0.1945 H       1  UNL1        0.0656
     54 H           5.5261    6.3432   -4.2776 H       1  UNL1        0.0660
     55 H           7.0979    6.3325   -3.3878 H       1  UNL1        0.0660
     56 H           5.9104    5.0438   -3.1480 H       1  UNL1        0.0660
     57 H           5.9423    8.4749   -4.2453 H       1  UNL1        0.0691
     58 H           7.1948    9.8825   -5.6182 H       1  UNL1        0.0660
     59 H           5.4192   10.1891   -5.7536 H       1  UNL1        0.0660
     60 H           6.5886   11.4355   -6.2065 H       1  UNL1        0.0660
     61 H           6.2871   11.9698   -1.8390 H       1  UNL1        0.0691
     62 H           6.1764   12.7651    0.2436 H       1  UNL1        0.0660
     63 H           4.4747   12.2369   -0.0375 H       1  UNL1        0.0660
     64 H           5.1412   12.3119    1.5996 H       1  UNL1        0.0660
     65 H           3.3472    4.0554   -0.1272 H       1  UNL1        0.0642
@<TRIPOS>BOND
     1     1     2    2
     2     2     3    1
     3     3     4   ar
     4     4     5   ar
     5     5     6   ar
     6     6     7    1
     7     7     8   ar
     8     8     9   ar
     9     9    10   ar
    10    10    11   ar
    11    11    12   ar
    12     7    12   ar
    13     6    13   ar
    14    13    14   ar
    15     3    14   ar
    16     2    15    1
    17    15    16    1
    18    16    17   ar
    19    17    18   ar
    20    18    19   ar
    21    19    20   ar
    22    20    21    1
    23    21    22    2
    24    22    23    1
    25    23    24    1
    26    24    25   ar
    27    25    26    1
    28    26    27    1
    29    25    28   ar
    30    28    29   ar
    31    29    30    1
    32    30    31    1
    33    29    32   ar
    34    32    33   ar
    35    24    33   ar
    36    33    34    1
    37    34    35    1
    38    23    36    2
    39    20    37   ar
    40    16    37   ar
    41     2    38    2
    42     4    39    1
    43     5    40    1
    44     8    41    1
    45     9    42    1
    46    10    43    1
    47    11    44    1
    48    12    45    1
    49    13    46    1
    50    14    47    1
    51    15    48    1
    52    17    49    1
    53    18    50    1
    54    19    51    1
    55    21    52    1
    56    22    53    1
    57    27    54    1
    58    27    55    1
    59    27    56    1
    60    28    57    1
    61    31    58    1
    62    31    59    1
    63    31    60    1
    64    32    61    1
    65    35    62    1
    66    35    63    1
    67    35    64    1
    68    37    65    1
