@<TRIPOS>MOLECULE
mol_814_akc_1478641920232288232
*****
 46 47 0 0 0
SMALL
GASTEIGER

@<TRIPOS>ATOM
      1 C           0.4167   -1.2921   -0.0220 C.3     1  UNL1        0.1242
      2 C           1.0677    0.0741   -0.0295 C.2     1  UNL1       -0.0366
      3 C           0.3536    1.2099   -0.1095 C.2     1  UNL1       -0.0812
      4 C          -1.1431    1.2534   -0.1682 C.3     1  UNL1       -0.0288
      5 C          -1.8253   -0.0573    0.2707 C.3     1  UNL1       -0.0050
      6 C          -1.0900   -1.2696   -0.3353 C.3     1  UNL1       -0.0060
      7 C          -3.3569   -0.0547   -0.0243 C.3     1  UNL1        0.0708
      8 O          -3.9181   -1.3063    0.4249 O.3     1  UNL1       -0.3659
      9 C          -3.7311    0.0218   -1.5057 C.3     1  UNL1       -0.0211
     10 C          -5.0910   -0.6374   -1.5435 C.3     1  UNL1       -0.0201
     11 C          -4.9855   -1.7090   -0.4609 C.3     1  UNL1        0.0800
     12 C           2.5664    0.1002    0.0954 C.3     1  UNL1       -0.0403
     13 O           1.0406   -2.0759   -1.0618 O.3     1  UNL1       -0.4571
     14 C           1.5410   -3.2855   -0.7128 C.2     1  UNL1        0.3045
     15 O           1.5238   -3.7762    0.4084 O.2     1  UNL1       -0.2511
     16 C           2.1203   -3.9642   -1.9146 C.3     1  UNL1        0.0333
     17 C          -4.0600    1.0605    0.7761 C.3     1  UNL1       -0.0355
     18 C          -6.2753   -1.9454    0.3053 C.2     1  UNL1       -0.0513
     19 C          -6.3888   -1.7969    1.6375 C.2     1  UNL1       -0.0973
     20 C          -7.4551   -2.4030   -0.5096 C.3     1  UNL1       -0.0416
     21 H           0.5704   -1.7279    0.9733 H       1  UNL1        0.0782
     22 H           0.8614    2.1722   -0.1181 H       1  UNL1        0.0573
     23 H          -1.4742    2.0681    0.4861 H       1  UNL1        0.0311
     24 H          -1.4319    1.5233   -1.1899 H       1  UNL1        0.0311
     25 H          -1.7066   -0.1514    1.3613 H       1  UNL1        0.0333
     26 H          -1.5295   -2.2045    0.0360 H       1  UNL1        0.0308
     27 H          -1.2244   -1.2963   -1.4227 H       1  UNL1        0.0308
     28 H          -3.7428    1.0413   -1.9027 H       1  UNL1        0.0294
     29 H          -3.0535   -0.5674   -2.1306 H       1  UNL1        0.0294
     30 H          -5.3208   -1.0642   -2.5255 H       1  UNL1        0.0294
     31 H          -5.8734    0.0973   -1.3204 H       1  UNL1        0.0294
     32 H          -4.6656   -2.6576   -0.9089 H       1  UNL1        0.0643
     33 H           2.8764   -0.3938    1.0221 H       1  UNL1        0.0276
     34 H           3.0365   -0.4145   -0.7485 H       1  UNL1        0.0276
     35 H           2.9603    1.1219    0.1157 H       1  UNL1        0.0276
     36 H           1.3228   -4.2088   -2.6214 H       1  UNL1        0.0342
     37 H           2.8658   -3.3172   -2.3867 H       1  UNL1        0.0342
     38 H           2.6156   -4.8891   -1.6070 H       1  UNL1        0.0342
     39 H          -3.8932    0.9261    1.8507 H       1  UNL1        0.0257
     40 H          -3.7147    2.0572    0.4873 H       1  UNL1        0.0257
     41 H          -5.1465    1.0410    0.6395 H       1  UNL1        0.0257
     42 H          -7.3206   -1.9880    2.1600 H       1  UNL1        0.0535
     43 H          -5.5439   -1.4894    2.2474 H       1  UNL1        0.0535
     44 H          -7.7526   -1.6328   -1.2281 H       1  UNL1        0.0275
     45 H          -7.2082   -3.3175   -1.0577 H       1  UNL1        0.0275
     46 H          -8.3275   -2.6197    0.1172 H       1  UNL1        0.0275
@<TRIPOS>BOND
     1     1     2    1
     2     1     6    1
     3     2     3    2
     4     3     4    1
     5     4     5    1
     6     5     6    1
     7     8     7    1
     8     7     9    1
     9     8    11    1
    10     9    10    1
    11    10    11    1
    12     2    12    1
    13     1    13    1
    14    13    14    1
    15    14    15    2
    16    14    16    1
    17     7    17    1
    18    18    19    2
    19    18    20    1
    20     1    21    1
    21     3    22    1
    22     4    23    1
    23     4    24    1
    24     6    26    1
    25     6    27    1
    26     9    28    1
    27     9    29    1
    28    10    30    1
    29    10    31    1
    30    12    33    1
    31    12    34    1
    32    12    35    1
    33    16    36    1
    34    16    37    1
    35    16    38    1
    36    17    39    1
    37    17    40    1
    38    17    41    1
    39    19    42    1
    40    19    43    1
    41    20    44    1
    42    20    45    1
    43    20    46    1
    44     5    25    1
    45     5     7    1
    46    11    32    1
    47    11    18    1
