@<TRIPOS>MOLECULE
mol_815_akc_1478641920232288232
*****
 46 47 0 0 0
SMALL
GASTEIGER

@<TRIPOS>ATOM
      1 C          -5.8489   -3.0320    0.7048 C.3     1  UNL1        0.1242
      2 C          -4.8814   -4.1690    0.4550 C.2     1  UNL1       -0.0366
      3 C          -3.6208   -3.9593    0.0418 C.2     1  UNL1       -0.0812
      4 C          -3.0357   -2.6029   -0.2020 C.3     1  UNL1       -0.0288
      5 C          -3.8099   -1.4402    0.4577 C.3     1  UNL1       -0.0050
      6 C          -5.3310   -1.6441    0.2714 C.3     1  UNL1       -0.0060
      7 C          -3.3115   -0.0321   -0.0414 C.3     1  UNL1        0.0708
      8 O          -4.0545    1.0079    0.6374 O.3     1  UNL1       -0.3659
      9 C          -1.8469    0.2523    0.3139 C.3     1  UNL1       -0.0211
     10 C          -1.9198    0.8511    1.6978 C.3     1  UNL1       -0.0201
     11 C          -3.2744    1.5456    1.7210 C.3     1  UNL1        0.0800
     12 C          -5.3945   -5.5595    0.7162 C.3     1  UNL1       -0.0403
     13 O          -7.0321   -3.2982   -0.0810 O.3     1  UNL1       -0.4571
     14 C          -8.2188   -3.3250    0.5710 C.2     1  UNL1        0.3045
     15 O          -8.3831   -3.1562    1.7655 O.2     1  UNL1       -0.2511
     16 C          -9.3311   -3.6238   -0.3900 C.3     1  UNL1        0.0333
     17 C          -3.5296    0.1785   -1.5466 C.3     1  UNL1       -0.0355
     18 C          -3.1957    3.0614    1.6077 C.2     1  UNL1       -0.0513
     19 C          -3.6779    3.8614    2.5727 C.2     1  UNL1       -0.0973
     20 C          -2.5413    3.6531    0.3884 C.3     1  UNL1       -0.0416
     21 H          -6.0626   -3.0131    1.7811 H       1  UNL1        0.0782
     22 H          -2.9614   -4.8059   -0.1410 H       1  UNL1        0.0573
     23 H          -2.0088   -2.6156    0.1789 H       1  UNL1        0.0311
     24 H          -2.9729   -2.4742   -1.2870 H       1  UNL1        0.0311
     25 H          -3.6327   -1.4922    1.5421 H       1  UNL1        0.0333
     26 H          -5.8800   -0.8853    0.8451 H       1  UNL1        0.0308
     27 H          -5.6126   -1.4783   -0.7741 H       1  UNL1        0.0308
     28 H          -1.1879   -0.6175    0.2705 H       1  UNL1        0.0294
     29 H          -1.4233    0.9975   -0.3707 H       1  UNL1        0.0294
     30 H          -1.0749    1.5138    1.9152 H       1  UNL1        0.0294
     31 H          -1.9003    0.0546    2.4505 H       1  UNL1        0.0294
     32 H          -3.7945    1.2788    2.6488 H       1  UNL1        0.0643
     33 H          -5.7236   -5.6531    1.7560 H       1  UNL1        0.0276
     34 H          -6.2391   -5.7937    0.0603 H       1  UNL1        0.0276
     35 H          -4.6270   -6.3214    0.5416 H       1  UNL1        0.0276
     36 H          -9.4059   -2.8202   -1.1266 H       1  UNL1        0.0342
     37 H          -9.1534   -4.5832   -0.8825 H       1  UNL1        0.0342
     38 H         -10.2756   -3.6860    0.1565 H       1  UNL1        0.0342
     39 H          -3.2835    1.2076   -1.8327 H       1  UNL1        0.0257
     40 H          -2.9114   -0.4898   -2.1520 H       1  UNL1        0.0257
     41 H          -4.5768    0.0442   -1.8317 H       1  UNL1        0.0257
     42 H          -3.6123    4.9438    2.5014 H       1  UNL1        0.0535
     43 H          -4.1530    3.4612    3.4632 H       1  UNL1        0.0535
     44 H          -1.4964    3.3362    0.3151 H       1  UNL1        0.0275
     45 H          -3.0671    3.3535   -0.5222 H       1  UNL1        0.0275
     46 H          -2.5374    4.7488    0.4190 H       1  UNL1        0.0275
@<TRIPOS>BOND
     1     1     2    1
     2     1     6    1
     3     2     3    2
     4     3     4    1
     5     4     5    1
     6     5     6    1
     7     8     7    1
     8     7     9    1
     9     8    11    1
    10     9    10    1
    11    10    11    1
    12     2    12    1
    13     1    13    1
    14    13    14    1
    15    14    15    2
    16    14    16    1
    17    11    18    1
    18    18    19    2
    19    18    20    1
    20     1    21    1
    21     3    22    1
    22     4    23    1
    23     4    24    1
    24     6    26    1
    25     6    27    1
    26     9    28    1
    27     9    29    1
    28    10    30    1
    29    10    31    1
    30    11    32    1
    31    12    33    1
    32    12    34    1
    33    12    35    1
    34    16    36    1
    35    16    37    1
    36    16    38    1
    37    17    39    1
    38    17    40    1
    39    17    41    1
    40    19    42    1
    41    19    43    1
    42    20    44    1
    43    20    45    1
    44    20    46    1
    45     5    25    1
    46     7     5    1
    47     7    17    1
