@<TRIPOS>MOLECULE
mol_816_akc_1478641920232288232
*****
 46 47 0 0 0
SMALL
GASTEIGER

@<TRIPOS>ATOM
      1 C           0.4690   -1.0943    0.1673 C.3     1  UNL1        0.1242
      2 C           1.0636    0.2434   -0.2151 C.2     1  UNL1       -0.0366
      3 C           0.2971    1.3429   -0.3343 C.2     1  UNL1       -0.0812
      4 C          -1.1917    1.3538   -0.1423 C.3     1  UNL1       -0.0288
      5 C          -1.8186   -0.0008    0.2565 C.3     1  UNL1       -0.0050
      6 C          -0.9921   -1.1777   -0.3165 C.3     1  UNL1       -0.0060
      7 C          -3.3379   -0.0726   -0.0600 C.3     1  UNL1        0.0708
      8 O          -3.8471   -1.3575    0.3567 O.3     1  UNL1       -0.3659
      9 C          -3.6930    0.0144   -1.5433 C.3     1  UNL1       -0.0211
     10 C          -5.0288   -0.6895   -1.6055 C.3     1  UNL1       -0.0201
     11 C          -4.8911   -1.7812   -0.5472 C.3     1  UNL1        0.0800
     12 C           2.5250    0.2717   -0.5606 C.3     1  UNL1       -0.0403
     13 O           0.4193   -1.2038    1.6042 O.3     1  UNL1       -0.4571
     14 C           1.4126   -1.8664    2.2405 C.2     1  UNL1        0.3045
     15 O           2.4485   -2.2635    1.7407 O.2     1  UNL1       -0.2511
     16 C           1.0101   -2.0989    3.6708 C.3     1  UNL1        0.0333
     17 C          -4.0899    0.9947    0.7609 C.3     1  UNL1       -0.0355
     18 C          -6.1780   -2.0822    0.2009 C.2     1  UNL1       -0.0513
     19 C          -6.3064   -1.9780    1.5361 C.2     1  UNL1       -0.0973
     20 C          -7.3367   -2.5475   -0.6397 C.3     1  UNL1       -0.0416
     21 H           1.0318   -1.9249   -0.2759 H       1  UNL1        0.0782
     22 H           0.7455    2.2892   -0.6292 H       1  UNL1        0.0573
     23 H          -1.4332    2.1020    0.6223 H       1  UNL1        0.0311
     24 H          -1.6272    1.7094   -1.0823 H       1  UNL1        0.0311
     25 H          -1.7385   -0.0868    1.3508 H       1  UNL1        0.0333
     26 H          -1.4218   -2.1287    0.0182 H       1  UNL1        0.0308
     27 H          -1.0110   -1.1724   -1.4124 H       1  UNL1        0.0308
     28 H          -3.7399    1.0387   -1.9249 H       1  UNL1        0.0294
     29 H          -2.9807   -0.5412   -2.1616 H       1  UNL1        0.0294
     30 H          -5.2427   -1.0997   -2.5975 H       1  UNL1        0.0294
     31 H          -5.8357    0.0132   -1.3656 H       1  UNL1        0.0294
     32 H          -4.5323   -2.7065   -1.0144 H       1  UNL1        0.0643
     33 H           3.1400   -0.0788    0.2710 H       1  UNL1        0.0276
     34 H           2.7104   -0.3672   -1.4315 H       1  UNL1        0.0276
     35 H           2.8620    1.2808   -0.8240 H       1  UNL1        0.0276
     36 H           0.7337   -1.1543    4.1467 H       1  UNL1        0.0342
     37 H           0.1686   -2.7965    3.6982 H       1  UNL1        0.0342
     38 H           1.8466   -2.5343    4.2242 H       1  UNL1        0.0342
     39 H          -3.9148    0.8450    1.8329 H       1  UNL1        0.0257
     40 H          -3.7809    2.0099    0.4954 H       1  UNL1        0.0257
     41 H          -5.1742    0.9322    0.6260 H       1  UNL1        0.0257
     42 H          -7.2366   -2.2113    2.0439 H       1  UNL1        0.0535
     43 H          -5.4764   -1.6620    2.1619 H       1  UNL1        0.0535
     44 H          -7.6641   -1.7551   -1.3200 H       1  UNL1        0.0275
     45 H          -7.0510   -3.4221   -1.2326 H       1  UNL1        0.0275
     46 H          -8.2004   -2.8316   -0.0281 H       1  UNL1        0.0275
@<TRIPOS>BOND
     1     1     2    1
     2     1     6    1
     3     2     3    2
     4     3     4    1
     5     4     5    1
     6     5     6    1
     7     8     7    1
     8     7     9    1
     9     8    11    1
    10     9    10    1
    11    10    11    1
    12     2    12    1
    13    13    14    1
    14    14    15    2
    15    14    16    1
    16     7    17    1
    17    18    19    2
    18    18    20    1
    19     3    22    1
    20     4    23    1
    21     4    24    1
    22     6    26    1
    23     6    27    1
    24     9    28    1
    25     9    29    1
    26    10    30    1
    27    10    31    1
    28    12    33    1
    29    12    34    1
    30    12    35    1
    31    16    36    1
    32    16    37    1
    33    16    38    1
    34    17    39    1
    35    17    40    1
    36    17    41    1
    37    19    42    1
    38    19    43    1
    39    20    44    1
    40    20    45    1
    41    20    46    1
    42     1    21    1
    43     1    13    1
    44     5    25    1
    45     5     7    1
    46    11    32    1
    47    11    18    1
