@<TRIPOS>MOLECULE
mol_817_akc_1478641920232288232
*****
 46 47 0 0 0
SMALL
GASTEIGER

@<TRIPOS>ATOM
      1 C          -5.6454   -3.1732    0.8680 C.3     1  UNL1        0.1242
      2 C          -4.7846   -4.2325    0.2288 C.2     1  UNL1       -0.0366
      3 C          -3.5539   -3.9461   -0.2324 C.2     1  UNL1       -0.0812
      4 C          -2.9478   -2.5698   -0.2124 C.3     1  UNL1       -0.0288
      5 C          -3.8091   -1.4609    0.4453 C.3     1  UNL1       -0.0050
      6 C          -5.3098   -1.7964    0.2711 C.3     1  UNL1       -0.0060
      7 C          -3.3825   -0.0259   -0.0230 C.3     1  UNL1        0.0708
      8 O          -3.5158    0.1105   -1.4502 O.3     1  UNL1       -0.3659
      9 C          -4.2387    1.0975    0.5680 C.3     1  UNL1       -0.0211
     10 C          -5.3212    1.3318   -0.4605 C.3     1  UNL1       -0.0201
     11 C          -4.6901    0.8732   -1.7701 C.3     1  UNL1        0.0800
     12 C          -5.4078   -5.5803   -0.0059 C.3     1  UNL1       -0.0403
     13 O          -5.3364   -3.0655    2.2761 O.3     1  UNL1       -0.4571
     14 C          -6.1214   -3.7111    3.1687 C.2     1  UNL1        0.3045
     15 O          -7.0011   -4.5199    2.8980 O.2     1  UNL1       -0.2511
     16 C          -5.8143   -3.2125    4.5521 C.3     1  UNL1        0.0333
     17 C          -1.9052    0.2170    0.3302 C.3     1  UNL1       -0.0355
     18 C          -4.3380    2.0154   -2.6993 C.2     1  UNL1       -0.0513
     19 C          -4.8803    2.1100   -3.9267 C.2     1  UNL1       -0.0973
     20 C          -3.3856    3.0665   -2.1998 C.3     1  UNL1       -0.0416
     21 H          -6.7129   -3.3708    0.7105 H       1  UNL1        0.0782
     22 H          -2.9590   -4.7195   -0.7162 H       1  UNL1        0.0573
     23 H          -1.9838   -2.6357    0.3074 H       1  UNL1        0.0311
     24 H          -2.7319   -2.3086   -1.2551 H       1  UNL1        0.0311
     25 H          -3.6014   -1.4954    1.5245 H       1  UNL1        0.0333
     26 H          -5.9151   -1.0629    0.8103 H       1  UNL1        0.0308
     27 H          -5.5929   -1.7684   -0.7872 H       1  UNL1        0.0308
     28 H          -4.6296    0.8730    1.5653 H       1  UNL1        0.0294
     29 H          -3.6506    2.0195    0.6604 H       1  UNL1        0.0294
     30 H          -5.6721    2.3680   -0.4709 H       1  UNL1        0.0294
     31 H          -6.2075    0.7282   -0.2467 H       1  UNL1        0.0294
     32 H          -5.3808    0.1879   -2.2781 H       1  UNL1        0.0643
     33 H          -5.7572   -6.0267    0.9275 H       1  UNL1        0.0276
     34 H          -6.2560   -5.4749   -0.6879 H       1  UNL1        0.0276
     35 H          -4.7040   -6.2766   -0.4714 H       1  UNL1        0.0276
     36 H          -4.7470   -3.3183    4.7647 H       1  UNL1        0.0342
     37 H          -6.1137   -2.1643    4.6335 H       1  UNL1        0.0342
     38 H          -6.3730   -3.7944    5.2880 H       1  UNL1        0.0342
     39 H          -1.5625    1.1847   -0.0523 H       1  UNL1        0.0257
     40 H          -1.7469    0.1969    1.4138 H       1  UNL1        0.0257
     41 H          -1.2464   -0.5259   -0.1312 H       1  UNL1        0.0257
     42 H          -4.6447    2.9357   -4.5915 H       1  UNL1        0.0535
     43 H          -5.5718    1.3623   -4.3039 H       1  UNL1        0.0535
     44 H          -3.7804    3.5544   -1.3033 H       1  UNL1        0.0275
     45 H          -2.4127    2.6279   -1.9619 H       1  UNL1        0.0275
     46 H          -3.2214    3.8549   -2.9428 H       1  UNL1        0.0275
@<TRIPOS>BOND
     1     1     2    1
     2     1     6    1
     3     2     3    2
     4     3     4    1
     5     4     5    1
     6     5     6    1
     7     8     7    1
     8     7     9    1
     9     8    11    1
    10     9    10    1
    11    10    11    1
    12     2    12    1
    13    13    14    1
    14    14    15    2
    15    14    16    1
    16    11    18    1
    17    18    19    2
    18    18    20    1
    19     3    22    1
    20     4    23    1
    21     4    24    1
    22     6    26    1
    23     6    27    1
    24     9    28    1
    25     9    29    1
    26    10    30    1
    27    10    31    1
    28    11    32    1
    29    12    33    1
    30    12    34    1
    31    12    35    1
    32    16    36    1
    33    16    37    1
    34    16    38    1
    35    17    39    1
    36    17    40    1
    37    17    41    1
    38    19    42    1
    39    19    43    1
    40    20    44    1
    41    20    45    1
    42    20    46    1
    43     1    21    1
    44     1    13    1
    45     5    25    1
    46     7     5    1
    47     7    17    1
