@<TRIPOS>MOLECULE
mol_818_akc_journalpone0292946
*****
 50 53 0 0 0
SMALL
GASTEIGER

@<TRIPOS>ATOM
      1 O           4.8089    0.1879    0.1635 O.2     1  UNL1       -0.2741
      2 C           4.2375   -0.8798    0.4003 C.2     1  UNL1        0.2310
      3 N           4.8931   -2.0922    0.2440 N.am    1  UNL1       -0.3089
      4 C           6.2458   -2.1744   -0.2927 C.3     1  UNL1        0.0516
      5 C           7.2936   -1.5172    0.6225 C.3     1  UNL1       -0.0180
      6 N           7.2133   -2.1299    1.9923 N.4     1  UNL1        0.2259
      7 C           8.1614   -1.5401    2.9695 C.3     1  UNL1       -0.0448
      8 C           2.7962   -0.9818    0.9392 C.3     1  UNL1        0.0961
      9 N           2.6190   -0.3518    2.2600 N.am    1  UNL1       -0.2617
     10 C           1.6626    0.7285    2.3832 C.ar    1  UNL1        0.0473
     11 C           0.4805    0.6689    1.6178 C.ar    1  UNL1       -0.0213
     12 C          -0.4044    1.7479    1.5535 C.ar    1  UNL1        0.0428
     13 CL         -1.8092    1.6420    0.5673 Cl      1  UNL1       -0.0835
     14 C          -0.1514    2.9068    2.2700 C.ar    1  UNL1       -0.0427
     15 C           0.9681    2.9671    3.0970 C.ar    1  UNL1       -0.0495
     16 C           1.8743    1.8868    3.1829 C.ar    1  UNL1        0.0201
     17 C           2.9790    1.9812    4.1378 C.ar    1  UNL1        0.0529
     18 N           3.6325    3.1317    4.5087 N.ar    1  UNL1       -0.3539
     19 C           3.5274    0.9489    4.8756 C.ar    1  UNL1       -0.0056
     20 C           3.0841   -0.4545    4.7299 C.3     1  UNL1        0.0522
     21 C           3.3753   -0.9011    3.3034 C.2     1  UNL1        0.2246
     22 O           4.2444   -1.7549    3.0933 O.2     1  UNL1       -0.2749
     23 C           4.5339    1.4889    5.7209 C.ar    1  UNL1        0.0049
     24 C           4.5848    2.8588    5.4662 C.ar    1  UNL1        0.0473
     25 C           5.4730    3.7164    6.1253 C.ar    1  UNL1       -0.0368
     26 C           6.3304    3.1555    7.0784 C.ar    1  UNL1       -0.0466
     27 C           6.2943    1.7903    7.3520 C.ar    1  UNL1        0.0141
     28 I           7.5758    0.9889    8.7830 I       1  UNL1       -0.0438
     29 C           5.4060    0.9417    6.6825 C.ar    1  UNL1       -0.0392
     30 H           4.4606   -2.9232    0.6385 H       1  UNL1        0.1489
     31 H           6.4775   -3.2369   -0.4237 H       1  UNL1        0.0515
     32 H           6.2676   -1.6990   -1.2786 H       1  UNL1        0.0515
     33 H           8.3080   -1.6760    0.2423 H       1  UNL1        0.0829
     34 H           7.1155   -0.4454    0.7461 H       1  UNL1        0.0829
     35 H           6.2417   -1.9942    2.3431 H       1  UNL1        0.2011
     36 H           7.3551   -3.1439    1.9420 H       1  UNL1        0.2011
     37 H           7.9864   -0.4648    3.0163 H       1  UNL1        0.0777
     38 H           7.9681   -2.0073    3.9372 H       1  UNL1        0.0777
     39 H           9.1797   -1.7629    2.6361 H       1  UNL1        0.0777
     40 H           2.1756   -0.5039    0.1750 H       1  UNL1        0.0564
     41 H           2.4912   -2.0295    1.0190 H       1  UNL1        0.0564
     42 H           0.2114   -0.2371    1.0801 H       1  UNL1        0.0651
     43 H          -0.8279    3.7568    2.2071 H       1  UNL1        0.0632
     44 H           1.1111    3.8668    3.6930 H       1  UNL1        0.0625
     45 H           3.4489    4.0539    4.1372 H       1  UNL1        0.1659
     46 H           2.0165   -0.5683    4.9488 H       1  UNL1        0.0408
     47 H           3.6197   -1.1167    5.4182 H       1  UNL1        0.0408
     48 H           5.4956    4.7827    5.9192 H       1  UNL1        0.0639
     49 H           7.0198    3.8090    7.6096 H       1  UNL1        0.0629
     50 H           5.3710   -0.1194    6.9078 H       1  UNL1        0.0634
@<TRIPOS>UNITY_ATOM_ATTR
6 1
charge 1
@<TRIPOS>BOND
     1     1     2    2
     2     2     3   am
     3     3     4    1
     4     4     5    1
     5     5     6    1
     6     6     7    1
     7     2     8    1
     8     8     9    1
     9     9    10    1
    10    10    11   ar
    11    11    12   ar
    12    12    13    1
    13    12    14   ar
    14    14    15   ar
    15    15    16   ar
    16    10    16   ar
    17    16    17    1
    18    17    18   ar
    19    17    19   ar
    20    19    20    1
    21    20    21    1
    22     9    21   am
    23    21    22    2
    24    19    23   ar
    25    23    24   ar
    26    18    24   ar
    27    24    25   ar
    28    25    26   ar
    29    26    27   ar
    30    27    28    1
    31    27    29   ar
    32    23    29   ar
    33     3    30    1
    34     4    31    1
    35     4    32    1
    36     5    33    1
    37     5    34    1
    38     6    35    1
    39     6    36    1
    40     7    37    1
    41     7    38    1
    42     7    39    1
    43     8    40    1
    44     8    41    1
    45    11    42    1
    46    14    43    1
    47    15    44    1
    48    18    45    1
    49    20    46    1
    50    20    47    1
    51    25    48    1
    52    26    49    1
    53    29    50    1
