@<TRIPOS>MOLECULE
mol_819_akc_s11696_023_03214_3
*****
 43 44 0 0 0
SMALL
GASTEIGER

@<TRIPOS>ATOM
      1 C           0.8344    0.0399    0.2792 C.ar    1  UNL1       -0.0074
      2 C           0.0714   -1.1222    0.1175 C.ar    1  UNL1        0.1658
      3 C          -1.3268   -1.0149   -0.1059 C.ar    1  UNL1        0.2035
      4 C          -1.9223    0.2661   -0.1786 C.ar    1  UNL1        0.1658
      5 C          -1.1293    1.4144   -0.0473 C.ar    1  UNL1       -0.0074
      6 C           0.2379    1.3010    0.1660 C.ar    1  UNL1        0.0017
      7 O           0.6129   -2.3753    0.0416 O.3     1  UNL1       -0.4913
      8 O          -2.1389   -2.0901   -0.3589 O.3     1  UNL1       -0.4885
      9 O          -3.2407    0.5890   -0.3849 O.3     1  UNL1       -0.4913
     10 C          -4.2014   -0.4446   -0.5207 C.3     1  UNL1        0.0790
     11 C          -1.8625   -3.3230    0.2989 C.3     1  UNL1        0.0791
     12 C           1.9107   -2.6800    0.5256 C.3     1  UNL1        0.0790
     13 C           1.1098    2.4924    0.1993 C.2     1  UNL1        0.0530
     14 N           0.7562    3.6561   -0.2578 N.2     1  UNL1       -0.1885
     15 N           1.7589    4.5896   -0.1818 N.am    1  UNL1       -0.2182
     16 C           1.5898    5.9181   -0.3591 C.2     1  UNL1        0.1542
     17 S           2.6421    6.9436    0.4567 S.2     1  UNL1       -0.0169
     18 N           0.6203    6.4897   -1.1063 N.am    1  UNL1       -0.2956
     19 C           0.1557    6.1825   -2.4043 C.ar    1  UNL1        0.0327
     20 H           0.5261    7.4716   -0.8740 H       1  UNL1        0.1539
     21 C           0.0373    4.8766   -4.4450 C.ar    1  UNL1       -0.0416
     22 C           0.4270    5.0089   -3.1033 C.ar    1  UNL1       -0.0391
     23 C          -0.5372    7.2148   -3.0653 C.ar    1  UNL1       -0.0391
     24 C          -0.9100    7.0926   -4.4090 C.ar    1  UNL1       -0.0416
     25 C          -0.6102    5.9253   -5.0955 C.ar    1  UNL1        0.0411
     26 CL         -1.0145    5.7866   -6.7617 Cl      1  UNL1       -0.0835
     27 H           1.9082   -0.0033    0.4141 H       1  UNL1        0.0662
     28 H          -1.5891    2.3977   -0.1338 H       1  UNL1        0.0662
     29 H          -4.0301   -1.0256   -1.4337 H       1  UNL1        0.0660
     30 H          -4.2409   -1.0765    0.3715 H       1  UNL1        0.0660
     31 H          -5.1829    0.0294   -0.6226 H       1  UNL1        0.0660
     32 H          -1.1849   -3.9317   -0.3057 H       1  UNL1        0.0660
     33 H          -1.4842   -3.1800    1.3172 H       1  UNL1        0.0660
     34 H          -2.8048   -3.8732    0.3735 H       1  UNL1        0.0660
     35 H           2.5349   -1.8311    0.8037 H       1  UNL1        0.0660
     36 H           1.8073   -3.3311    1.3989 H       1  UNL1        0.0660
     37 H           2.4324   -3.2465   -0.2522 H       1  UNL1        0.0660
     38 H           2.1227    2.3254    0.6125 H       1  UNL1        0.0851
     39 H           2.5564    4.3648    0.4046 H       1  UNL1        0.1762
     40 H           0.2637    3.9568   -4.9791 H       1  UNL1        0.0633
     41 H           0.9576    4.1843   -2.6439 H       1  UNL1        0.0636
     42 H          -0.7597    8.1479   -2.5539 H       1  UNL1        0.0636
     43 H          -1.4068    7.9201   -4.9074 H       1  UNL1        0.0633
@<TRIPOS>BOND
     1     1     2   ar
     2     2     3   ar
     3     3     4   ar
     4     4     5   ar
     5     5     6   ar
     6     1     6   ar
     7     2     7    1
     8     3     8    1
     9     4     9    1
    10     9    10    1
    11     8    11    1
    12     7    12    1
    13     6    13    1
    14    13    14    2
    15    14    15    1
    16    15    16    1
    17    16    17    2
    18    16    18    1
    19    18    19    1
    20    18    20    1
    21    21    22   ar
    22    23    24   ar
    23    24    25   ar
    24    21    25   ar
    25    22    19   ar
    26    19    23   ar
    27    25    26    1
    28     1    27    1
    29     5    28    1
    30    10    29    1
    31    10    30    1
    32    10    31    1
    33    11    32    1
    34    11    33    1
    35    11    34    1
    36    12    35    1
    37    12    36    1
    38    12    37    1
    39    13    38    1
    40    15    39    1
    41    21    40    1
    42    22    41    1
    43    23    42    1
    44    24    43    1
