@<TRIPOS>MOLECULE
mol_81_akc_s11033_020_05887_5
>80.sdf
 44 46 0 0 0
SMALL
GASTEIGER

@<TRIPOS>ATOM
      1 C           2.7398    1.2569   -1.7686 C.3     1  UNL1       -0.0650
      2 C           2.3734    1.9129   -0.4444 C.3     1  UNL1       -0.0519
      3 C           3.0082    1.2238    0.7678 C.3     1  UNL1       -0.0278
      4 C           4.5199    1.2402    0.7782 C.ar    1  UNL1       -0.0431
      5 C           5.2296    0.0276    0.7660 C.ar    1  UNL1       -0.0131
      6 C           6.6274   -0.0032    0.7893 C.ar    1  UNL1        0.1631
      7 O           7.1490   -1.2674    0.7735 O.3     1  UNL1       -0.4914
      8 C           8.5624   -1.4282    0.7716 C.3     1  UNL1        0.0790
      9 C           7.3073    1.2157    0.8393 C.ar    1  UNL1        0.1805
     10 O           8.7068    1.2147    0.9433 O.2     1  UNL1       -0.4179
     11 C           9.4077    2.3518    1.2898 C.ar    1  UNL1        0.3483
     12 O          10.5320    2.2679    1.7656 O.2     1  UNL1       -0.2444
     13 C           8.7501    3.6410    0.9853 C.ar    1  UNL1        0.1072
     14 C           7.4168    3.6736    0.8286 C.ar    1  UNL1       -0.0332
     15 C           6.6326    2.4399    0.8401 C.ar    1  UNL1        0.0222
     16 C           5.2351    2.4480    0.8119 C.ar    1  UNL1       -0.0476
     17 C           9.4990    4.9327    0.9178 C.2     1  UNL1        0.2000
     18 O           8.9259    6.0060    1.1030 O.2     1  UNL1       -0.2864
     19 C          10.9611    4.9463    0.6168 C.ar    1  UNL1        0.0229
     20 C          11.5737    3.9977   -0.2178 C.ar    1  UNL1       -0.0445
     21 C          12.9616    3.9972   -0.3944 C.ar    1  UNL1        0.0163
     22 C          13.7358    4.9922    0.2127 C.ar    1  UNL1        0.2732
     23 C          13.1298    5.9886    0.9886 C.ar    1  UNL1        0.0163
     24 C          11.7440    5.9610    1.1886 C.ar    1  UNL1       -0.0445
     25 N          15.1905    4.9884    0.0315 N.pl3   1  UNL1        0.0796
     26 O          15.6871    4.0787   -0.6527 O.co2   1  UNL1       -0.5760
     27 O          15.8418    5.8966    0.5696 O.2     1  UNL1        0.0414
     28 H           2.2399    1.7735   -2.5939 H       1  UNL1        0.0230
     29 H           3.8173    1.3013   -1.9540 H       1  UNL1        0.0230
     30 H           2.4291    0.2076   -1.7866 H       1  UNL1        0.0230
     31 H           2.6547    2.9711   -0.4758 H       1  UNL1        0.0266
     32 H           1.2828    1.8816   -0.3299 H       1  UNL1        0.0266
     33 H           2.6565    1.7115    1.6858 H       1  UNL1        0.0313
     34 H           2.6432    0.1898    0.8197 H       1  UNL1        0.0313
     35 H           4.6897   -0.9182    0.7437 H       1  UNL1        0.0658
     36 H           9.0159   -0.9664   -0.1122 H       1  UNL1        0.0660
     37 H           9.0039   -1.0539    1.7011 H       1  UNL1        0.0660
     38 H           8.7791   -2.4992    0.7222 H       1  UNL1        0.0660
     39 H           6.8878    4.6097    0.6651 H       1  UNL1        0.0634
     40 H           4.6936    3.3922    0.8232 H       1  UNL1        0.0627
     41 H          10.9991    3.2199   -0.7125 H       1  UNL1        0.0627
     42 H          13.4184    3.2103   -0.9909 H       1  UNL1        0.0685
     43 H          13.7160    6.7798    1.4534 H       1  UNL1        0.0685
     44 H          11.2789    6.7279    1.8074 H       1  UNL1        0.0627
@<TRIPOS>UNITY_ATOM_ATTR
25 1
charge 1
26 1
charge -1
@<TRIPOS>BOND
     1     1    28    1
     2     1    29    1
     3     1    30    1
     4     2     1    1
     5     2    31    1
     6     2    32    1
     7     3     2    1
     8     3    33    1
     9     3    34    1
    10     4     3    1
    11     5     4   ar
    12     5    35    1
    13     6     5   ar
    14     7     6    1
    15     8     7    1
    16     8    36    1
    17     8    37    1
    18     8    38    1
    19     9     6   ar
    20    10     9   ar
    21    11    10   ar
    22    12    11    2
    23    13    11   ar
    24    14    13   ar
    25    14    39    1
    26    15    14   ar
    27    15     9   ar
    28    16    15   ar
    29    16     4   ar
    30    16    40    1
    31    17    13    1
    32    18    17    2
    33    19    17    1
    34    20    19   ar
    35    20    41    1
    36    21    20   ar
    37    21    42    1
    38    22    21   ar
    39    23    22   ar
    40    23    43    1
    41    24    23   ar
    42    24    19   ar
    43    24    44    1
    44    25    22    1
    45    26    25    1
    46    27    25    2
