@<TRIPOS>MOLECULE
mol_820_akc_s11686_023_00746_2
5452
 51 54 0 0 0
SMALL
GASTEIGER

@<TRIPOS>ATOM
      1 S          -5.5201   -4.5798    1.9301 S.3     1  UNL1       -0.0857
      2 S          -9.9111   -1.2775    5.1800 S.3     1  UNL1       -0.1285
      3 N          -2.3441   -2.3981    5.0023 N.3     1  UNL1       -0.3023
      4 N          -5.3878   -1.6210    2.6589 N.pl3   1  UNL1       -0.2982
      5 C          -3.7945   -2.2864    5.3184 C.3     1  UNL1        0.0116
      6 C          -4.0386   -2.4017    6.8562 C.3     1  UNL1       -0.0373
      7 C          -4.4516   -0.9262    4.9164 C.3     1  UNL1       -0.0212
      8 C          -3.3512   -3.5856    7.5175 C.3     1  UNL1       -0.0505
      9 C          -1.7111   -3.5644    5.6590 C.3     1  UNL1       -0.0011
     10 C          -1.8789   -3.5696    7.1703 C.3     1  UNL1       -0.0402
     11 C          -4.7296   -0.5647    3.4441 C.3     1  UNL1        0.0188
     12 C          -2.1028   -2.5621    3.5614 C.3     1  UNL1       -0.0125
     13 C          -6.5220   -2.2883    3.1738 C.ar    1  UNL1        0.0489
     14 C          -4.9084   -1.9151    1.3659 C.ar    1  UNL1        0.0479
     15 C          -6.7188   -3.6554    2.8930 C.ar    1  UNL1        0.0342
     16 C          -4.9121   -3.2468    0.8945 C.ar    1  UNL1        0.0341
     17 C          -7.5205   -1.6037    3.8854 C.ar    1  UNL1       -0.0258
     18 C          -4.5343   -0.8998    0.4718 C.ar    1  UNL1       -0.0393
     19 C          -7.8547   -4.3181    3.3658 C.ar    1  UNL1       -0.0451
     20 C          -4.4736   -3.5489   -0.3998 C.ar    1  UNL1       -0.0462
     21 C          -8.6836   -2.2496    4.3192 C.ar    1  UNL1        0.0094
     22 C          -4.1543   -1.2002   -0.8404 C.ar    1  UNL1       -0.0599
     23 C          -8.8301   -3.6169    4.0774 C.ar    1  UNL1       -0.0472
     24 C          -4.1025   -2.5242   -1.2687 C.ar    1  UNL1       -0.0606
     25 C         -11.4501   -1.9772    4.5221 C.3     1  UNL1       -0.0135
     26 H          -4.3337   -3.1178    4.8490 H       1  UNL1        0.0463
     27 H          -3.6949   -1.4839    7.3529 H       1  UNL1        0.0280
     28 H          -5.1161   -2.4787    7.0513 H       1  UNL1        0.0280
     29 H          -3.8435   -0.1143    5.3399 H       1  UNL1        0.0296
     30 H          -5.4092   -0.8513    5.4487 H       1  UNL1        0.0296
     31 H          -3.4809   -3.5372    8.6042 H       1  UNL1        0.0266
     32 H          -3.8090   -4.5232    7.1797 H       1  UNL1        0.0266
     33 H          -2.1145   -4.5018    5.2520 H       1  UNL1        0.0426
     34 H          -0.6345   -3.5583    5.4472 H       1  UNL1        0.0426
     35 H          -1.3941   -2.6875    7.6069 H       1  UNL1        0.0278
     36 H          -1.3849   -4.4510    7.5967 H       1  UNL1        0.0278
     37 H          -3.7860   -0.2540    2.9869 H       1  UNL1        0.0468
     38 H          -5.3531    0.3385    3.4174 H       1  UNL1        0.0468
     39 H          -1.0343   -2.7110    3.3643 H       1  UNL1        0.0391
     40 H          -2.6400   -3.4234    3.1498 H       1  UNL1        0.0391
     41 H          -2.3644   -1.6713    2.9972 H       1  UNL1        0.0391
     42 H          -7.4207   -0.5339    4.0562 H       1  UNL1        0.0647
     43 H          -4.6060    0.1445    0.7644 H       1  UNL1        0.0636
     44 H          -7.9947   -5.3795    3.1709 H       1  UNL1        0.0630
     45 H          -4.4486   -4.5790   -0.7467 H       1  UNL1        0.0629
     46 H          -3.9190   -0.3967   -1.5345 H       1  UNL1        0.0618
     47 H          -9.7006   -4.1595    4.4321 H       1  UNL1        0.0629
     48 H          -3.8018   -2.7579   -2.2868 H       1  UNL1        0.0618
     49 H         -11.4330   -2.0045    3.4291 H       1  UNL1        0.0344
     50 H         -11.6126   -2.9840    4.9142 H       1  UNL1        0.0344
     51 H         -12.2890   -1.3512    4.8389 H       1  UNL1        0.0344
@<TRIPOS>BOND
     1     1    15    1
     2     1    16    1
     3     2    21    1
     4     2    25    1
     5     3     5    1
     6     3     9    1
     7     3    12    1
     8     4    11    1
     9     4    13    1
    10     4    14    1
    11     5     6    1
    12     6     8    1
    13     6    27    1
    14     6    28    1
    15     7    11    1
    16     7    29    1
    17     7    30    1
    18     8    10    1
    19     8    31    1
    20     8    32    1
    21     9    10    1
    22     9    33    1
    23     9    34    1
    24    10    35    1
    25    10    36    1
    26    11    37    1
    27    11    38    1
    28    12    39    1
    29    12    40    1
    30    12    41    1
    31    13    15   ar
    32    13    17   ar
    33    14    16   ar
    34    14    18   ar
    35    15    19   ar
    36    16    20   ar
    37    17    21   ar
    38    17    42    1
    39    18    22   ar
    40    18    43    1
    41    19    23   ar
    42    19    44    1
    43    20    24   ar
    44    20    45    1
    45    21    23   ar
    46    22    24   ar
    47    22    46    1
    48    23    47    1
    49    24    48    1
    50    25    49    1
    51    25    50    1
    52    25    51    1
    53     5    26    1
    54     5     7    1
