@<TRIPOS>MOLECULE
mol_821_akc_s11686_023_00746_2
163184355
 65 70 0 0 0
SMALL
GASTEIGER

@<TRIPOS>ATOM
      1 O           0.6722   -0.2829   -4.4264 O.3     1  UNL1       -0.2891
      2 O           2.1326   -0.0659   -2.5867 O.3     1  UNL1       -0.3193
      3 O           3.9658    1.3752   -3.1148 O.3     1  UNL1       -0.3404
      4 O          -3.1119   -1.4753   -4.2537 O.co2   1  UNL1       -0.5492
      5 O          -3.1314   -1.0375   -2.0176 O.co2   1  UNL1       -0.5492
      6 O           3.9117   -1.6475   -0.9896 O.3     1  UNL1       -0.3841
      7 O           5.8959    0.0716    0.3041 O.3     1  UNL1       -0.3864
      8 O           7.3535    1.6206   -1.6913 O.3     1  UNL1       -0.3865
      9 O           5.1361    3.9233   -3.2546 O.3     1  UNL1       -0.3924
     10 N           0.0462   -1.9040   -2.8205 N.ar    1  UNL1       -0.1710
     11 N          -0.0192   -2.8945    0.7084 N.ar    1  UNL1       -0.3493
     12 C          -0.9015    0.7341   -2.2074 C.3     1  UNL1       -0.0040
     13 C          -1.5091   -0.0217   -3.3769 C.3     1  UNL1        0.0921
     14 C           0.3524    1.5169   -2.7262 C.3     1  UNL1        0.0326
     15 C          -0.4568   -0.9806   -3.8752 C.3     1  UNL1        0.2762
     16 C          -0.5878   -0.2629   -1.0577 C.3     1  UNL1        0.0391
     17 C           1.3293    0.6203   -3.5348 C.3     1  UNL1        0.1753
     18 C          -0.1286   -1.6361   -1.5040 C.ar    1  UNL1        0.2104
     19 C           0.2535   -2.6640   -0.6247 C.ar    1  UNL1        0.1154
     20 C          -2.7201   -0.9159   -3.1974 C.2     1  UNL1        0.0541
     21 C          -0.0316    2.7023   -3.5968 C.2     1  UNL1       -0.0830
     22 C           0.7479   -2.9699   -3.2584 C.ar    1  UNL1        0.1746
     23 C           3.5573    0.0677   -2.7037 C.3     1  UNL1        0.1908
     24 C           1.0629   -3.7271   -1.0391 C.ar    1  UNL1        0.0191
     25 C           4.0952   -0.2518   -1.2875 C.3     1  UNL1        0.1342
     26 C           1.3479   -3.8595   -2.3940 C.ar    1  UNL1        0.0119
     27 C           5.5738    0.1030   -1.1005 C.3     1  UNL1        0.1141
     28 C           5.9348    1.4600   -1.7122 C.3     1  UNL1        0.1119
     29 C           5.4029    1.5014   -3.1482 C.3     1  UNL1        0.1130
     30 C           1.4536   -4.4577    0.1165 C.ar    1  UNL1        0.0078
     31 C           0.6511   -4.0181    1.1650 C.ar    1  UNL1        0.0476
     32 C           0.3817    3.9585   -3.3834 C.2     1  UNL1       -0.1022
     33 C           5.7855    2.8051   -3.8516 C.3     1  UNL1        0.0730
     34 C           2.3751   -5.5007    0.3421 C.ar    1  UNL1       -0.0520
     35 C           0.6186   -4.6803    2.3969 C.ar    1  UNL1       -0.0378
     36 C           2.4052   -6.1250    1.5900 C.ar    1  UNL1       -0.0611
     37 C           1.5066   -5.7494    2.5856 C.ar    1  UNL1       -0.0598
     38 H          -1.6203    1.4650   -1.8138 H       1  UNL1        0.0322
     39 H          -1.7788    0.6856   -4.1705 H       1  UNL1        0.0456
     40 H           0.8873    1.9048   -1.8481 H       1  UNL1        0.0395
     41 H          -0.8305   -1.6200   -4.6840 H       1  UNL1        0.1422
     42 H          -1.4716   -0.3874   -0.4201 H       1  UNL1        0.0376
     43 H           0.1815    0.1660   -0.4043 H       1  UNL1        0.0376
     44 H           1.9555    1.2407   -4.1829 H       1  UNL1        0.0919
     45 H          -0.6433    2.5131   -4.4776 H       1  UNL1        0.0571
     46 H           0.8705   -3.0647   -4.3343 H       1  UNL1        0.1377
     47 H           3.8964   -0.6750   -3.4377 H       1  UNL1        0.0938
     48 H           3.4957    0.2939   -0.5472 H       1  UNL1        0.0671
     49 H           1.9661   -4.6715   -2.7675 H       1  UNL1        0.0683
     50 H           6.1981   -0.6810   -1.5449 H       1  UNL1        0.0648
     51 H          -0.6800   -2.3678    1.2636 H       1  UNL1        0.1661
     52 H           5.4958    2.2687   -1.1146 H       1  UNL1        0.0647
     53 H           5.8325    0.6784   -3.7358 H       1  UNL1        0.0647
     54 H           0.0959    4.7536   -4.0671 H       1  UNL1        0.0532
     55 H           1.0157    4.2254   -2.5443 H       1  UNL1        0.0532
     56 H           6.8624    2.9745   -3.8395 H       1  UNL1        0.0584
     57 H           5.4659    2.7727   -4.9088 H       1  UNL1        0.0584
     58 H           3.0561   -5.8140   -0.4424 H       1  UNL1        0.0624
     59 H           4.3178   -1.7951   -0.1102 H       1  UNL1        0.2101
     60 H          -0.0731   -4.3950    3.1844 H       1  UNL1        0.0638
     61 H           5.7583    0.9586    0.6824 H       1  UNL1        0.2100
     62 H           7.6334    1.6701   -0.7589 H       1  UNL1        0.2100
     63 H           3.1172   -6.9275    1.7709 H       1  UNL1        0.0618
     64 H           1.5036   -6.2922    3.5290 H       1  UNL1        0.0618
     65 H           4.1798    3.7810   -3.3857 H       1  UNL1        0.2095
@<TRIPOS>UNITY_ATOM_ATTR
4 1
charge -1
10 1
charge 1
@<TRIPOS>BOND
     1     1    15    1
     2     1    17    1
     3     3    23    1
     4     3    29    1
     5     4    20   ar
     6     5    20   ar
     7     6    59    1
     8     7    27    1
     9     7    61    1
    10     8    62    1
    11     9    33    1
    12     9    65    1
    13    10    15    1
    14    10    18   ar
    15    10    22   ar
    16    11    19   ar
    17    11    31   ar
    18    11    51    1
    19    12    13    1
    20    12    14    1
    21    12    16    1
    22    12    38    1
    23    13    15    1
    24    13    20    1
    25    13    39    1
    26    14    17    1
    27    14    21    1
    28    14    40    1
    29    15    41    1
    30    16    18    1
    31    16    42    1
    32    16    43    1
    33    18    19   ar
    34    19    24   ar
    35    21    32    2
    36    21    45    1
    37    22    26   ar
    38    22    46    1
    39    23    25    1
    40    24    26   ar
    41    24    30   ar
    42    25    27    1
    43    26    49    1
    44    27    28    1
    45    27    50    1
    46    28    29    1
    47    30    31   ar
    48    30    34   ar
    49    31    35   ar
    50    32    54    1
    51    32    55    1
    52    33    56    1
    53    33    57    1
    54    34    36   ar
    55    34    58    1
    56    35    37   ar
    57    35    60    1
    58    36    37   ar
    59    36    63    1
    60    37    64    1
    61    17    44    1
    62    17     2    1
    63    23    47    1
    64    23     2    1
    65    25    48    1
    66    25     6    1
    67    28    52    1
    68    28     8    1
    69    29    53    1
    70    29    33    1
