@<TRIPOS>MOLECULE
mol_822_akc_0074_02760170217
*****
 48 49 0 0 0
SMALL
GASTEIGER

@<TRIPOS>ATOM
      1 C           3.0381    1.8329    0.8581 C.3     1  UNL1       -0.0624
      2 C           2.7573    3.3404    0.6693 C.3     1  UNL1       -0.0433
      3 C           3.3493    4.1282    1.8261 C.3     1  UNL1       -0.0624
      4 C           1.2523    3.5547    0.4234 C.3     1  UNL1       -0.0314
      5 C           0.3380    3.1383    1.5888 C.3     1  UNL1       -0.0457
      6 C          -1.0138    2.7489    1.0043 C.3     1  UNL1       -0.0095
      7 C          -1.6103    3.7017   -0.0926 C.3     1  UNL1        0.1497
      8 C          -2.3299    2.8033   -1.1469 C.3     1  UNL1        0.0848
      9 O          -1.3631    2.0002   -1.8359 O.3     1  UNL1       -0.3911
     10 O          -2.5049    4.6432    0.5764 O.3     1  UNL1       -0.4551
     11 C          -3.6615    4.2431    1.1545 C.2     1  UNL1        0.3046
     12 C          -4.3832    5.4231    1.7334 C.3     1  UNL1        0.0333
     13 O          -4.0862    3.0954    1.2007 O.2     1  UNL1       -0.2511
     14 C          -0.5683    4.6218   -0.8542 C.3     1  UNL1        0.1047
     15 C           0.6748    4.9377    0.0030 C.3     1  UNL1       -0.0023
     16 C           1.5540    5.9958   -0.6110 C.2     1  UNL1       -0.0665
     17 C           1.0932    7.2685   -0.6218 C.2     1  UNL1        0.0698
     18 C          -0.3004    7.5832   -0.1492 C.3     1  UNL1        0.1239
     19 O          -1.2862    7.0275   -1.0433 O.3     1  UNL1       -0.4593
     20 C          -1.3049    5.7748   -1.5418 C.2     1  UNL1        0.3150
     21 O          -2.0063    5.5505   -2.5300 O.2     1  UNL1       -0.2504
     22 C           1.8936    8.4348   -1.0575 C.2     1  UNL1        0.3358
     23 O           2.9460    8.1027   -1.8116 O.3     1  UNL1       -0.4773
     24 O           1.6462    9.5994   -0.7875 O.2     1  UNL1       -0.2454
     25 H           2.5622    1.4299    1.7576 H       1  UNL1        0.0232
     26 H           2.6625    1.2571    0.0034 H       1  UNL1        0.0232
     27 H           4.1100    1.6354    0.9459 H       1  UNL1        0.0232
     28 H           3.2873    3.6347   -0.2456 H       1  UNL1        0.0298
     29 H           2.9444    3.8022    2.7882 H       1  UNL1        0.0232
     30 H           3.1689    5.1999    1.7141 H       1  UNL1        0.0232
     31 H           4.4354    3.9784    1.8548 H       1  UNL1        0.0232
     32 H           1.0532    2.8588   -0.4063 H       1  UNL1        0.0309
     33 H           0.7256    2.2990    2.1694 H       1  UNL1        0.0269
     34 H           0.2131    3.9510    2.3184 H       1  UNL1        0.0269
     35 H          -1.7090    2.6257    1.8420 H       1  UNL1        0.0305
     36 H          -0.8784    1.7430    0.5871 H       1  UNL1        0.0305
     37 H          -2.8851    3.3905   -1.8809 H       1  UNL1        0.0597
     38 H          -3.0410    2.1157   -0.6822 H       1  UNL1        0.0597
     39 H          -1.8259    1.5581   -2.5688 H       1  UNL1        0.2096
     40 H          -3.7137    6.2857    1.8085 H       1  UNL1        0.0342
     41 H          -5.2299    5.6812    1.0932 H       1  UNL1        0.0342
     42 H          -4.7252    5.1771    2.7422 H       1  UNL1        0.0342
     43 H          -0.1598    4.0659   -1.7138 H       1  UNL1        0.0460
     44 H           0.3316    5.4012    0.9351 H       1  UNL1        0.0355
     45 H           2.5502    5.7506   -0.9674 H       1  UNL1        0.0581
     46 H          -0.5095    7.2467    0.8710 H       1  UNL1        0.0751
     47 H          -0.4904    8.6604   -0.1321 H       1  UNL1        0.0751
     48 H           3.3444    8.9689   -2.0379 H       1  UNL1        0.2954
@<TRIPOS>BOND
     1     1     2    1
     2     2     3    1
     3     4     5    1
     4     5     6    1
     5     6     7    1
     6     8     9    1
     7    10    11    1
     8    11    12    1
     9    11    13    2
    10     7    14    1
    11    14    15    1
    12     4    15    1
    13    15    16    1
    14    16    17    2
    15    17    18    1
    16    18    19    1
    17    19    20    1
    18    14    20    1
    19    20    21    2
    20    17    22    1
    21    22    23    1
    22    22    24    2
    23     1    25    1
    24     1    26    1
    25     1    27    1
    26     2    28    1
    27     3    29    1
    28     3    30    1
    29     3    31    1
    30     5    33    1
    31     5    34    1
    32     6    35    1
    33     6    36    1
    34     8    37    1
    35     8    38    1
    36     9    39    1
    37    12    40    1
    38    12    41    1
    39    12    42    1
    40    14    43    1
    41    15    44    1
    42    16    45    1
    43    18    46    1
    44    18    47    1
    45    23    48    1
    46     4    32    1
    47     4     2    1
    48     7    10    1
    49     7     8    1
