@<TRIPOS>MOLECULE
mol_823_akc_scitranslmedadh9902
*****
 36 39 0 0 0
SMALL
GASTEIGER

@<TRIPOS>ATOM
      1 N           2.5056    0.0856   -4.3295 N.1     1  UNL1       -0.1907
      2 C           3.3362    0.1404   -3.5222 C.1     1  UNL1        0.1030
      3 C           4.3886    0.1941   -2.5531 C.ar    1  UNL1        0.0971
      4 C           5.5483   -0.5840   -2.7052 C.ar    1  UNL1       -0.0400
      5 C           6.6106   -0.4902   -1.7819 C.ar    1  UNL1       -0.0490
      6 C           6.5286    0.3944   -0.7035 C.ar    1  UNL1        0.0300
      7 C           7.6637    0.6879    0.1570 C.ar    1  UNL1        0.0170
      8 C           7.6258    0.5402    1.5381 C.ar    1  UNL1        0.0231
      9 C           6.7007   -0.1973    2.4381 C.3     1  UNL1       -0.0238
     10 N           8.6085    1.3568    2.0537 N.ar    1  UNL1       -0.3425
     11 C           9.2407    2.0259    1.0432 C.ar    1  UNL1        0.1443
     12 N          10.1234    3.0191    1.2183 N.ar    1  UNL1       -0.1968
     13 C          10.5488    3.5261    0.0565 C.ar    1  UNL1        0.2147
     14 N          11.3168    4.6708    0.1071 N.pl3   1  UNL1       -0.3274
     15 N          10.3113    3.0247   -1.1647 N.ar    1  UNL1       -0.2192
     16 C           9.4385    1.9915   -1.3068 C.ar    1  UNL1        0.0531
     17 C           9.2875    1.4117   -2.6784 C.3     1  UNL1       -0.0215
     18 C           8.7866    1.5167   -0.1603 C.ar    1  UNL1        0.0479
     19 C           5.3528    1.1287   -0.5608 C.ar    1  UNL1        0.1752
     20 C           4.3135    1.0321   -1.4580 C.ar    1  UNL1        0.1841
     21 O           3.2839    1.8684   -1.1436 O.3     1  UNL1       -0.4513
     22 C           3.7823    2.4989    0.0517 C.3     1  UNL1        0.2333
     23 O           5.0949    2.0468    0.4180 O.3     1  UNL1       -0.4519
     24 H           5.6479   -1.2505   -3.5612 H       1  UNL1        0.0632
     25 H           7.5082   -1.0841   -1.9398 H       1  UNL1        0.0625
     26 H           6.0057    0.4923    2.9272 H       1  UNL1        0.0292
     27 H           7.2636   -0.7288    3.2125 H       1  UNL1        0.0292
     28 H           6.1179   -0.9401    1.8857 H       1  UNL1        0.0292
     29 H           8.7762    1.5426    3.0319 H       1  UNL1        0.1670
     30 H          11.8821    4.7422   -0.7261 H       1  UNL1        0.1452
     31 H          11.7660    4.7587    1.0053 H       1  UNL1        0.1452
     32 H           9.4280    0.3262   -2.6384 H       1  UNL1        0.0293
     33 H           8.3031    1.6373   -3.0928 H       1  UNL1        0.0293
     34 H          10.0520    1.8105   -3.3527 H       1  UNL1        0.0293
     35 H           3.0937    2.2847    0.8773 H       1  UNL1        0.1166
     36 H           3.8158    3.5832   -0.1047 H       1  UNL1        0.1166
@<TRIPOS>BOND
     1     1     2    3
     2     2     3    1
     3     3     4   ar
     4     4     5   ar
     5     5     6   ar
     6     6     7    1
     7     7     8   ar
     8     8     9    1
     9     8    10   ar
    10    10    11   ar
    11    11    12   ar
    12    12    13   ar
    13    13    14    1
    14    13    15   ar
    15    15    16   ar
    16    16    17    1
    17    16    18   ar
    18    11    18   ar
    19     7    18   ar
    20     6    19   ar
    21    19    20   ar
    22     3    20   ar
    23    20    21    1
    24    21    22    1
    25    22    23    1
    26    19    23    1
    27     4    24    1
    28     5    25    1
    29     9    26    1
    30     9    27    1
    31     9    28    1
    32    10    29    1
    33    14    30    1
    34    14    31    1
    35    17    32    1
    36    17    33    1
    37    17    34    1
    38    22    35    1
    39    22    36    1
