@<TRIPOS>MOLECULE
mol_825_akc_preprints2023121664v1
*****
 43 46 0 0 0
SMALL
GASTEIGER

@<TRIPOS>ATOM
      1 C          -0.9619    1.4295   -0.0633 C.ar    1  UNL1        0.0000
      2 C          -2.1427    0.6737   -0.0838 C.ar    1  UNL1        0.0000
      3 C          -2.0720   -0.7380   -0.1118 C.ar    1  UNL1        0.0000
      4 C          -0.8142   -1.3725   -0.1549 C.ar    1  UNL1        0.0000
      5 C           0.3250   -0.5651   -0.1443 C.ar    1  UNL1        0.0000
      6 N           0.2256    0.7725   -0.0810 N.ar    1  UNL1        0.0000
      7 N           1.6011   -0.9947   -0.1642 N.ar    1  UNL1        0.0000
      8 C           2.3404    0.1381   -0.0594 C.ar    1  UNL1        0.0000
      9 C           1.4825    1.2464   -0.0170 C.ar    1  UNL1        0.0000
     10 C          -3.3248   -1.5642   -0.0801 C.3     1  UNL1        0.0000
     11 SE          1.9325    3.1259    0.1372 Se      1  UNL1        0.0000
     12 C           2.3578    3.5533   -1.7136 C.ar    1  UNL1        0.0000
     13 C           3.8231    0.1189    0.0176 C.ar    1  UNL1        0.0000
     14 C           4.5389   -0.9255   -0.5964 C.ar    1  UNL1        0.0000
     15 C           4.5400    1.1149    0.7094 C.ar    1  UNL1        0.0000
     16 C           5.9335    1.0736    0.7734 C.ar    1  UNL1        0.0000
     17 C           6.6332    0.0478    0.1385 C.ar    1  UNL1        0.0000
     18 C           5.9371   -0.9520   -0.5463 C.ar    1  UNL1        0.0000
     19 C           2.6092    5.2602   -3.4350 C.ar    1  UNL1        0.0000
     20 C           2.9874    4.2819   -4.3542 C.ar    1  UNL1        0.0000
     21 C           3.0598    2.9448   -3.9622 C.ar    1  UNL1        0.0000
     22 C           2.7489    2.5785   -2.6477 C.ar    1  UNL1        0.0000
     23 C           2.2935    4.9056   -2.1065 C.ar    1  UNL1        0.0000
     24 O           1.9350    5.8340   -1.1801 O.3     1  UNL1        0.0000
     25 C           1.8328    7.1931   -1.3905 C.3     1  UNL1        0.0000
     26 H          -1.0029    2.5109   -0.0244 H       1  UNL1        0.0000
     27 H          -3.0994    1.1804   -0.0606 H       1  UNL1        0.0000
     28 H          -0.7294   -2.4523   -0.1761 H       1  UNL1        0.0000
     29 H          -3.3764   -2.2158   -0.9766 H       1  UNL1        0.0000
     30 H          -3.3249   -2.1995    0.8318 H       1  UNL1        0.0000
     31 H          -4.2336   -0.9250   -0.0533 H       1  UNL1        0.0000
     32 H           4.0188   -1.7062   -1.1357 H       1  UNL1        0.0000
     33 H           4.0374    1.9096    1.2329 H       1  UNL1        0.0000
     34 H           6.4687    1.8389    1.3204 H       1  UNL1        0.0000
     35 H           7.7144    0.0255    0.1836 H       1  UNL1        0.0000
     36 H           6.4823   -1.7438   -1.0390 H       1  UNL1        0.0000
     37 H           2.5690    6.2896   -3.7656 H       1  UNL1        0.0000
     38 H           3.2302    4.5636   -5.3719 H       1  UNL1        0.0000
     39 H           3.3606    2.1929   -4.6803 H       1  UNL1        0.0000
     40 H           2.8204    1.5381   -2.3721 H       1  UNL1        0.0000
     41 H           2.8128    7.6089   -1.7086 H       1  UNL1        0.0000
     42 H           1.0592    7.4037   -2.1588 H       1  UNL1        0.0000
     43 H           1.5337    7.6832   -0.4414 H       1  UNL1        0.0000
@<TRIPOS>BOND
     1     1     2   ar
     2     2     3   ar
     3     3     4   ar
     4     4     5   ar
     5     1     6   ar
     6     5     7   ar
     7     5     6   ar
     8     6     9   ar
     9     7     8   ar
    10     8     9   ar
    11     3    10    1
    12     9    11    1
    13    11    12    1
    14     8    13    1
    15    14    13   ar
    16    13    15   ar
    17    15    16   ar
    18    16    17   ar
    19    17    18   ar
    20    14    18   ar
    21    22    12   ar
    22    12    23   ar
    23    19    20   ar
    24    20    21   ar
    25    21    22   ar
    26    19    23   ar
    27    23    24    1
    28    24    25    1
    29     1    26    1
    30     2    27    1
    31     4    28    1
    32    10    29    1
    33    10    30    1
    34    10    31    1
    35    14    32    1
    36    15    33    1
    37    16    34    1
    38    17    35    1
    39    18    36    1
    40    19    37    1
    41    20    38    1
    42    21    39    1
    43    22    40    1
    44    25    41    1
    45    25    42    1
    46    25    43    1
