@<TRIPOS>MOLECULE
mol_826_akc_rs3rs_3731615v1
*****
 24 25 0 0 0
SMALL
GASTEIGER

@<TRIPOS>ATOM
      1 C          -1.7987    0.1897   -0.6540 C.ar    1  UNL1       -0.0613
      2 C          -1.2222    1.2922   -0.0223 C.ar    1  UNL1       -0.0590
      3 C           0.0091    1.1599    0.6163 C.ar    1  UNL1       -0.0261
      4 C           0.6528   -0.0743    0.6228 C.ar    1  UNL1        0.1283
      5 C           0.0922   -1.1900   -0.0028 C.ar    1  UNL1        0.0090
      6 C          -1.1470   -1.0462   -0.6433 C.ar    1  UNL1       -0.0541
      7 C           0.7871   -2.5217    0.0531 C.3     1  UNL1        0.0692
      8 N           0.3883   -3.2809    1.2299 N.ar    1  UNL1       -0.2652
      9 C           1.0495   -3.3342    2.4283 C.ar    1  UNL1        0.0465
     10 C           0.3252   -4.1904    3.2111 C.ar    1  UNL1        0.0625
     11 C          -0.7482   -4.6159    2.4084 C.ar    1  UNL1        0.0700
     12 N          -0.7046   -4.0801    1.1827 N.ar    1  UNL1       -0.1775
     13 N           0.6142   -4.5289    4.4737 N.pl3   1  UNL1       -0.3556
     14 F           1.8366   -0.1839    1.2427 F       1  UNL1       -0.2051
     15 H          -2.7631    0.2885   -1.1468 H       1  UNL1        0.0618
     16 H          -1.7366    2.2499   -0.0226 H       1  UNL1        0.0618
     17 H           0.4686    2.0078    1.1143 H       1  UNL1        0.0646
     18 H          -1.6188   -1.9026   -1.1232 H       1  UNL1        0.0622
     19 H           0.5546   -3.1276   -0.8308 H       1  UNL1        0.0559
     20 H           1.8764   -2.4022    0.0807 H       1  UNL1        0.0559
     21 H           1.9465   -2.7602    2.6073 H       1  UNL1        0.0845
     22 H          -1.5519   -5.2943    2.6561 H       1  UNL1        0.0867
     23 H           0.0860   -5.2277    4.9867 H       1  UNL1        0.1424
     24 H           1.4678   -4.2287    4.9331 H       1  UNL1        0.1424
@<TRIPOS>BOND
     1     1     2   ar
     2     2     3   ar
     3     3     4   ar
     4     4     5   ar
     5     5     6   ar
     6     1     6   ar
     7     5     7    1
     8     7     8    1
     9     8     9   ar
    10     9    10   ar
    11    10    11   ar
    12    11    12   ar
    13     8    12   ar
    14    10    13    1
    15     4    14    1
    16     1    15    1
    17     2    16    1
    18     3    17    1
    19     6    18    1
    20     7    19    1
    21     7    20    1
    22     9    21    1
    23    11    22    1
    24    13    23    1
    25    13    24    1
