@<TRIPOS>MOLECULE
mol_827_akc_rs3rs_3731615v1
*****
 47 49 0 0 0
SMALL
GASTEIGER

@<TRIPOS>ATOM
      1 C          -0.3742   -0.6235   -4.1713 C.3     1  UNL1       -0.0390
      2 C          -1.1401   -1.3928   -3.0973 C.3     1  UNL1        0.0531
      3 C          -2.5815   -1.6165   -3.5573 C.3     1  UNL1       -0.0390
      4 O          -0.6122   -2.6955   -2.8343 O.3     1  UNL1       -0.3770
      5 C           0.7509   -2.7976   -2.4417 C.3     1  UNL1        0.0496
      6 C           1.0686   -2.2236   -1.0676 C.3     1  UNL1       -0.0113
      7 C           0.1622   -2.7587    0.0476 C.3     1  UNL1        0.0286
      8 N           0.6770   -2.3452    1.3757 N.ar    1  UNL1       -0.3099
      9 C           0.5638   -0.9867    1.7602 C.ar    1  UNL1        0.1498
     10 C           1.1614   -0.5826    2.9047 C.ar    1  UNL1        0.0831
     11 C           1.8252   -1.5303    3.7880 C.ar    1  UNL1       -0.0329
     12 C           2.0082   -2.8236    3.4669 C.ar    1  UNL1        0.0457
     13 C           1.4743   -3.2365    2.1101 C.ar    1  UNL1        0.1370
     14 N           1.7784   -4.4089    1.6253 N.2     1  UNL1       -0.2828
     15 C           2.6651   -3.7509    4.4368 C.2     1  UNL1        0.0804
     16 S           3.9254   -3.4152    5.4854 S.2     1  UNL1       -0.0351
     17 N           2.1471   -5.0171    4.4561 N.am    1  UNL1       -0.3517
     18 C           1.1730    0.8675    3.2419 C.ar    1  UNL1        0.2675
     19 O           1.6650    1.2496    4.3075 O.2     1  UNL1       -0.2665
     20 N           0.6417    1.7146    2.2860 N.ar    1  UNL1       -0.2676
     21 C           0.7390    3.0911    2.4524 C.ar    1  UNL1        0.0146
     22 C           0.2259    3.9473    1.5591 C.ar    1  UNL1       -0.0450
     23 C          -0.4780    3.4447    0.4100 C.ar    1  UNL1       -0.0569
     24 C          -0.6116    2.1276    0.2195 C.ar    1  UNL1       -0.0186
     25 C           0.0008    1.1749    1.1861 C.ar    1  UNL1        0.1425
     26 N          -0.0832   -0.0894    0.9434 N.ar    1  UNL1       -0.2113
     27 H          -0.2215   -1.2332   -5.0677 H       1  UNL1        0.0254
     28 H           0.6136   -0.3217   -3.8085 H       1  UNL1        0.0254
     29 H          -0.9063    0.2916   -4.4552 H       1  UNL1        0.0254
     30 H          -1.1559   -0.8097   -2.1702 H       1  UNL1        0.0590
     31 H          -2.6352   -2.4183   -4.3035 H       1  UNL1        0.0254
     32 H          -3.2003   -1.9356   -2.7120 H       1  UNL1        0.0254
     33 H          -3.0255   -0.7114   -3.9826 H       1  UNL1        0.0254
     34 H           0.9908   -3.8665   -2.4382 H       1  UNL1        0.0560
     35 H           1.3997   -2.3471   -3.2004 H       1  UNL1        0.0560
     36 H           2.1166   -2.4455   -0.8313 H       1  UNL1        0.0305
     37 H           0.9906   -1.1328   -1.1179 H       1  UNL1        0.0305
     38 H          -0.8631   -2.3888   -0.0801 H       1  UNL1        0.0493
     39 H           0.0819   -3.8502   -0.0189 H       1  UNL1        0.0493
     40 H           2.1566   -1.1370    4.7455 H       1  UNL1        0.0634
     41 H           2.4187   -4.9111    2.2529 H       1  UNL1        0.1883
     42 H           1.3083   -5.2845    3.9463 H       1  UNL1        0.1428
     43 H           2.5032   -5.6784    5.1381 H       1  UNL1        0.1428
     44 H           1.2684    3.4471    3.3348 H       1  UNL1        0.0814
     45 H           0.3202    5.0210    1.6893 H       1  UNL1        0.0632
     46 H          -0.8989    4.1566   -0.2942 H       1  UNL1        0.0619
     47 H          -1.1323    1.7077   -0.6316 H       1  UNL1        0.0654
@<TRIPOS>BOND
     1     1     2    1
     2     2     3    1
     3     2     4    1
     4     4     5    1
     5     5     6    1
     6     6     7    1
     7     7     8    1
     8     8     9   ar
     9     9    10   ar
    10    10    11   ar
    11    11    12   ar
    12    12    13   ar
    13     8    13   ar
    14    13    14    2
    15    12    15    1
    16    15    16    2
    17    15    17    1
    18    10    18   ar
    19    18    19    2
    20    18    20   ar
    21    20    21   ar
    22    21    22   ar
    23    22    23   ar
    24    23    24   ar
    25    24    25   ar
    26    20    25   ar
    27    25    26   ar
    28     9    26   ar
    29     1    27    1
    30     1    28    1
    31     1    29    1
    32     2    30    1
    33     3    31    1
    34     3    32    1
    35     3    33    1
    36     5    34    1
    37     5    35    1
    38     6    36    1
    39     6    37    1
    40     7    38    1
    41     7    39    1
    42    11    40    1
    43    14    41    1
    44    17    42    1
    45    17    43    1
    46    21    44    1
    47    22    45    1
    48    23    46    1
    49    24    47    1
