@<TRIPOS>MOLECULE
mol_828_akc_rs3rs_3731615v1
*****
 43 45 0 0 0
SMALL
GASTEIGER

@<TRIPOS>ATOM
      1 C          -3.8373   -3.5474   -1.3159 C.3     1  UNL1       -0.0127
      2 N          -2.9292   -2.4022   -1.3546 N.3     1  UNL1       -0.3029
      3 C          -3.6417   -1.1583   -1.0167 C.3     1  UNL1        0.0114
      4 C          -2.6884    0.0575   -0.9235 C.3     1  UNL1        0.0120
      5 N          -1.5805   -0.1029    0.0446 N.3     1  UNL1       -0.2957
      6 C          -0.8848   -1.3708   -0.2719 C.3     1  UNL1        0.0120
      7 C          -1.7928   -2.6145   -0.4395 C.3     1  UNL1        0.0114
      8 C          -2.0707   -0.0358    1.4361 C.3     1  UNL1        0.0252
      9 C          -0.9518    0.0047    2.4633 C.ar    1  UNL1       -0.0196
     10 C          -0.1675    1.1745    2.5386 C.ar    1  UNL1       -0.0563
     11 C           0.9256    1.2573    3.4018 C.ar    1  UNL1       -0.0614
     12 C           1.2652    0.1660    4.1943 C.ar    1  UNL1       -0.0607
     13 C           0.4906   -0.9906    4.1495 C.ar    1  UNL1       -0.0477
     14 C          -0.6349   -1.0754    3.3118 C.ar    1  UNL1        0.0171
     15 S          -1.5739   -2.5928    3.3702 S.3     1  UNL1       -0.0891
     16 C          -2.5744   -2.4542    4.8443 C.ar    1  UNL1        0.0127
     17 C          -2.6972   -1.2929    5.6154 C.ar    1  UNL1       -0.0480
     18 C          -3.4921   -1.2824    6.7661 C.ar    1  UNL1       -0.0607
     19 C          -4.1830   -2.4287    7.1514 C.ar    1  UNL1       -0.0617
     20 C          -4.0841   -3.5859    6.3844 C.ar    1  UNL1       -0.0607
     21 C          -3.2854   -3.5969    5.2383 C.ar    1  UNL1       -0.0480
     22 H          -3.3152   -4.4638   -1.6116 H       1  UNL1        0.0391
     23 H          -4.2628   -3.7046   -0.3158 H       1  UNL1        0.0391
     24 H          -4.6640   -3.4102   -2.0200 H       1  UNL1        0.0391
     25 H          -4.3852   -0.9490   -1.7949 H       1  UNL1        0.0439
     26 H          -4.1909   -1.2690   -0.0726 H       1  UNL1        0.0439
     27 H          -2.2534    0.2391   -1.9131 H       1  UNL1        0.0439
     28 H          -3.2666    0.9595   -0.6875 H       1  UNL1        0.0439
     29 H          -0.3426   -1.2180   -1.2150 H       1  UNL1        0.0439
     30 H          -0.1021   -1.5870    0.4637 H       1  UNL1        0.0439
     31 H          -2.1614   -2.9271    0.5431 H       1  UNL1        0.0439
     32 H          -1.1747   -3.4345   -0.8245 H       1  UNL1        0.0439
     33 H          -2.6337    0.8994    1.5623 H       1  UNL1        0.0476
     34 H          -2.7940   -0.8262    1.6574 H       1  UNL1        0.0476
     35 H          -0.4029    2.0245    1.9007 H       1  UNL1        0.0621
     36 H           1.5209    2.1655    3.4401 H       1  UNL1        0.0618
     37 H           2.1337    0.2144    4.8466 H       1  UNL1        0.0618
     38 H           0.7720   -1.8362    4.7738 H       1  UNL1        0.0629
     39 H          -2.1800   -0.3766    5.3459 H       1  UNL1        0.0629
     40 H          -3.5687   -0.3761    7.3616 H       1  UNL1        0.0618
     41 H          -4.7983   -2.4193    8.0472 H       1  UNL1        0.0618
     42 H          -4.6247   -4.4822    6.6771 H       1  UNL1        0.0618
     43 H          -3.2213   -4.5128    4.6543 H       1  UNL1        0.0629
@<TRIPOS>BOND
     1     1     2    1
     2     2     3    1
     3     3     4    1
     4     4     5    1
     5     5     6    1
     6     6     7    1
     7     2     7    1
     8     5     8    1
     9     8     9    1
    10     9    10   ar
    11    10    11   ar
    12    11    12   ar
    13    12    13   ar
    14    13    14   ar
    15     9    14   ar
    16    14    15    1
    17    15    16    1
    18    16    17   ar
    19    17    18   ar
    20    18    19   ar
    21    19    20   ar
    22    20    21   ar
    23    16    21   ar
    24     1    22    1
    25     1    23    1
    26     1    24    1
    27     3    25    1
    28     3    26    1
    29     4    27    1
    30     4    28    1
    31     6    29    1
    32     6    30    1
    33     7    31    1
    34     7    32    1
    35     8    33    1
    36     8    34    1
    37    10    35    1
    38    11    36    1
    39    12    37    1
    40    13    38    1
    41    17    39    1
    42    18    40    1
    43    19    41    1
    44    20    42    1
    45    21    43    1
