@<TRIPOS>MOLECULE
mol_829_akc_rs3rs_3731615v1
*****
 42 44 0 0 0
SMALL
GASTEIGER

@<TRIPOS>ATOM
      1 C           0.7508   -1.2622    0.2679 C.3     1  UNL1        0.0280
      2 C          -0.7240   -1.1641   -0.1946 C.3     1  UNL1        0.0305
      3 N          -1.3463    0.1200    0.1802 N.am    1  UNL1       -0.2970
      4 C          -0.5733    1.2927   -0.2613 C.3     1  UNL1        0.0305
      5 C           0.8597    1.2250    0.2922 C.3     1  UNL1        0.0280
      6 N           1.4935   -0.0384   -0.1008 N.pl3   1  UNL1       -0.3269
      7 C           2.5543   -0.0693   -0.9870 C.ar    1  UNL1        0.0298
      8 C           3.5195   -1.0856   -0.9306 C.ar    1  UNL1       -0.0407
      9 C           4.6332   -1.0939   -1.7802 C.ar    1  UNL1       -0.0600
     10 C           4.8030   -0.0826   -2.7190 C.ar    1  UNL1       -0.0616
     11 C           3.8574    0.9298   -2.8091 C.ar    1  UNL1       -0.0600
     12 C           2.7503    0.9310   -1.9535 C.ar    1  UNL1       -0.0407
     13 C          -2.4115    0.1381    1.0656 C.2     1  UNL1        0.2357
     14 O          -2.8552   -0.8927    1.5772 O.2     1  UNL1       -0.2736
     15 C          -3.0370    1.4762    1.4207 C.3     1  UNL1        0.1069
     16 N          -2.4064    2.1625    2.5449 N.ar    1  UNL1       -0.2563
     17 C          -1.3829    1.6710    3.3254 C.ar    1  UNL1        0.1106
     18 C          -1.1692    2.6236    4.3020 C.ar    1  UNL1        0.3903
     19 N          -2.0047    3.7022    4.1258 N.ar    1  UNL1       -0.0957
     20 C          -2.7370    3.3948    3.0690 C.ar    1  UNL1        0.4563
     21 N          -3.7516    4.2801    2.5477 N.pl3   1  UNL1        0.1198
     22 O          -4.3054    3.9475    1.4901 O.2     1  UNL1        0.0447
     23 O          -3.9864    5.3120    3.1839 O.co2   1  UNL1       -0.5735
     24 N          -0.2189    2.5640    5.3926 N.pl3   1  UNL1        0.1023
     25 O           0.5230    1.5729    5.4253 O.2     1  UNL1        0.0432
     26 O          -0.2146    3.5009    6.2020 O.co2   1  UNL1       -0.5746
     27 H           0.7831   -1.3686    1.3589 H       1  UNL1        0.0479
     28 H           1.1879   -2.1699   -0.1625 H       1  UNL1        0.0479
     29 H          -1.2929   -2.0115    0.2025 H       1  UNL1        0.0480
     30 H          -0.7692   -1.2244   -1.2886 H       1  UNL1        0.0480
     31 H          -0.5645    1.2777   -1.3572 H       1  UNL1        0.0480
     32 H          -1.0320    2.2292    0.0554 H       1  UNL1        0.0480
     33 H           0.8285    1.2552    1.3879 H       1  UNL1        0.0479
     34 H           1.4290    2.1096   -0.0113 H       1  UNL1        0.0479
     35 H           3.4460   -1.8682   -0.1796 H       1  UNL1        0.0636
     36 H           5.3745   -1.8833   -1.6924 H       1  UNL1        0.0618
     37 H           5.6705   -0.0803   -3.3728 H       1  UNL1        0.0618
     38 H           3.9765    1.7254   -3.5396 H       1  UNL1        0.0618
     39 H           2.0297    1.7335   -2.0755 H       1  UNL1        0.0636
     40 H          -3.0313    2.1330    0.5481 H       1  UNL1        0.0590
     41 H          -4.0808    1.2979    1.7047 H       1  UNL1        0.0590
     42 H          -0.9113    0.7099    3.1609 H       1  UNL1        0.0899
@<TRIPOS>UNITY_ATOM_ATTR
21 1
charge 1
23 1
charge -1
24 1
charge 1
26 1
charge -1
@<TRIPOS>BOND
     1     1     2    1
     2     2     3    1
     3     3     4    1
     4     4     5    1
     5     5     6    1
     6     1     6    1
     7     6     7    1
     8     7     8   ar
     9     8     9   ar
    10     9    10   ar
    11    10    11   ar
    12    11    12   ar
    13     7    12   ar
    14     3    13   am
    15    13    14    2
    16    13    15    1
    17    15    16    1
    18    16    17   ar
    19    17    18   ar
    20    18    19   ar
    21    19    20   ar
    22    16    20   ar
    23    20    21    1
    24    21    22    2
    25    21    23    1
    26    18    24    1
    27    24    25    2
    28    24    26    1
    29     1    27    1
    30     1    28    1
    31     2    29    1
    32     2    30    1
    33     4    31    1
    34     4    32    1
    35     5    33    1
    36     5    34    1
    37     8    35    1
    38     9    36    1
    39    10    37    1
    40    11    38    1
    41    12    39    1
    42    15    40    1
    43    15    41    1
    44    17    42    1
