@<TRIPOS>MOLECULE
mol_82_akc_jejmech2022114675
>81.sdf
 81 82 0 0 0
SMALL
GASTEIGER

@<TRIPOS>ATOM
      1 C           8.4624   -3.8895   13.3234 C.3     1  UNL1       -0.0653
      2 C           8.4492   -2.4789   12.7600 C.3     1  UNL1       -0.0559
      3 C           9.3931   -2.3581   11.5675 C.3     1  UNL1       -0.0533
      4 C           9.3850   -0.9434   10.9975 C.3     1  UNL1       -0.0531
      5 C          10.3314   -0.8384    9.8053 C.3     1  UNL1       -0.0531
      6 C          10.3230    0.5728    9.2334 C.3     1  UNL1       -0.0531
      7 C          11.2598    0.6818    8.0353 C.3     1  UNL1       -0.0531
      8 C          11.2298    2.0985    7.4804 C.3     1  UNL1       -0.0531
      9 C          12.1501    2.2458    6.2753 C.3     1  UNL1       -0.0531
     10 C          12.1140    3.6870    5.7835 C.3     1  UNL1       -0.0530
     11 C          13.0534    3.8976    4.6041 C.3     1  UNL1       -0.0500
     12 C          13.0471    5.3407    4.1127 C.3     1  UNL1       -0.0186
     13 C          13.4382    6.3867    5.1571 C.3     1  UNL1        0.0898
     14 O          14.6862    6.0625    5.7841 O.3     1  UNL1       -0.4883
     15 C          15.1905    6.9867    6.6659 C.ar    1  UNL1        0.1619
     16 C          16.2103    6.6135    7.5571 C.ar    1  UNL1        0.1619
     17 O          16.7874    5.4007    7.7884 O.3     1  UNL1       -0.4914
     18 C          16.4668    4.2940    6.9619 C.3     1  UNL1        0.0790
     19 C          16.7708    7.5874    8.4064 C.ar    1  UNL1       -0.0081
     20 C          16.3091    8.9064    8.4506 C.ar    1  UNL1        0.0008
     21 C          16.9342    9.9290    9.3642 C.3     1  UNL1       -0.0043
     22 N          16.6959    9.7909   10.8920 N.4     1  UNL1        0.2444
     23 C          15.1928    9.6911   11.1778 C.3     1  UNL1       -0.0410
     24 C          17.3417    8.5033   11.4180 C.3     1  UNL1       -0.0410
     25 C          17.2861   10.9686   11.6917 C.3     1  UNL1       -0.0192
     26 C          16.6721   12.3369   11.3967 C.3     1  UNL1       -0.0096
     27 C          17.6989   13.3311   11.9468 C.3     1  UNL1       -0.0478
     28 C          19.0098   12.5605   12.1118 C.3     1  UNL1       -0.0478
     29 C          18.7772   11.2040   11.4580 C.3     1  UNL1       -0.0096
     30 C          15.2982    9.2671    7.5650 C.ar    1  UNL1       -0.0499
     31 C          14.7629    8.3250    6.6795 C.ar    1  UNL1       -0.0158
     32 H           7.7837   -3.9634   14.1781 H       1  UNL1        0.0230
     33 H           8.1416   -4.6144   12.5683 H       1  UNL1        0.0230
     34 H           9.4669   -4.1660   13.6594 H       1  UNL1        0.0230
     35 H           7.4286   -2.2184   12.4564 H       1  UNL1        0.0263
     36 H           8.7458   -1.7721   13.5437 H       1  UNL1        0.0263
     37 H          10.4121   -2.6235   11.8745 H       1  UNL1        0.0265
     38 H           9.0952   -3.0693   10.7872 H       1  UNL1        0.0265
     39 H           8.3681   -0.6739   10.6866 H       1  UNL1        0.0265
     40 H           9.6864   -0.2283   11.7728 H       1  UNL1        0.0265
     41 H          11.3493   -1.1050   10.1146 H       1  UNL1        0.0265
     42 H          10.0305   -1.5525    9.0291 H       1  UNL1        0.0265
     43 H           9.3040    0.8430    8.9298 H       1  UNL1        0.0265
     44 H          10.6290    1.2876   10.0074 H       1  UNL1        0.0265
     45 H          12.2820    0.4216    8.3358 H       1  UNL1        0.0265
     46 H          10.9574   -0.0294    7.2574 H       1  UNL1        0.0265
     47 H          10.2043    2.3617    7.1931 H       1  UNL1        0.0265
     48 H          11.5348    2.8037    8.2640 H       1  UNL1        0.0265
     49 H          13.1754    1.9732    6.5532 H       1  UNL1        0.0265
     50 H          11.8357    1.5655    5.4745 H       1  UNL1        0.0265
     51 H          11.0907    3.9555    5.4940 H       1  UNL1        0.0265
     52 H          12.3985    4.3431    6.6142 H       1  UNL1        0.0265
     53 H          14.0728    3.6026    4.8737 H       1  UNL1        0.0266
     54 H          12.7461    3.2471    3.7749 H       1  UNL1        0.0266
     55 H          13.7400    5.4122    3.2682 H       1  UNL1        0.0298
     56 H          12.0496    5.5920    3.7269 H       1  UNL1        0.0298
     57 H          13.5072    7.3331    4.6116 H       1  UNL1        0.0696
     58 H          12.6582    6.4723    5.9236 H       1  UNL1        0.0696
     59 H          15.4101    4.0268    7.0385 H       1  UNL1        0.0660
     60 H          16.7804    4.4747    5.9309 H       1  UNL1        0.0660
     61 H          17.0432    3.4412    7.3377 H       1  UNL1        0.0660
     62 H          17.6086    7.2728    9.0229 H       1  UNL1        0.0660
     63 H          18.0151    9.9224    9.1944 H       1  UNL1        0.0868
     64 H          16.5619   10.9181    9.0804 H       1  UNL1        0.0868
     65 H          14.7956    8.7862   10.7094 H       1  UNL1        0.0778
     66 H          15.0550    9.6329   12.2620 H       1  UNL1        0.0778
     67 H          14.6960   10.5760   10.7718 H       1  UNL1        0.0778
     68 H          18.3723    8.4509   11.0556 H       1  UNL1        0.0778
     69 H          17.3241    8.5295   12.5146 H       1  UNL1        0.0778
     70 H          16.7602    7.6410   11.0845 H       1  UNL1        0.0778
     71 H          17.1175   10.7349   12.7526 H       1  UNL1        0.0852
     72 H          16.5420   12.5282   10.3285 H       1  UNL1        0.0320
     73 H          15.6985   12.4698   11.8781 H       1  UNL1        0.0320
     74 H          17.8190   14.1786   11.2639 H       1  UNL1        0.0267
     75 H          17.3743   13.7326   12.9130 H       1  UNL1        0.0267
     76 H          19.8565   13.0876   11.6611 H       1  UNL1        0.0267
     77 H          19.2306   12.4297   13.1776 H       1  UNL1        0.0267
     78 H          19.4086   10.4307   11.9048 H       1  UNL1        0.0320
     79 H          19.0309   11.2837   10.3967 H       1  UNL1        0.0320
     80 H          14.9309   10.2923    7.5081 H       1  UNL1        0.0623
     81 H          14.0144    8.6950    5.9856 H       1  UNL1        0.0655
@<TRIPOS>UNITY_ATOM_ATTR
22 1
charge 1
@<TRIPOS>BOND
     1     1    32    1
     2     1    33    1
     3     1    34    1
     4     2     1    1
     5     2    35    1
     6     2    36    1
     7     3     2    1
     8     3    37    1
     9     3    38    1
    10     4     3    1
    11     4    39    1
    12     4    40    1
    13     5     4    1
    14     5    41    1
    15     5    42    1
    16     6     5    1
    17     6    43    1
    18     6    44    1
    19     7     6    1
    20     7    45    1
    21     7    46    1
    22     8     7    1
    23     8    47    1
    24     8    48    1
    25     9     8    1
    26     9    49    1
    27     9    50    1
    28    10     9    1
    29    10    51    1
    30    10    52    1
    31    11    10    1
    32    11    53    1
    33    11    54    1
    34    12    11    1
    35    12    55    1
    36    12    56    1
    37    13    12    1
    38    13    57    1
    39    13    58    1
    40    14    13    1
    41    15    14    1
    42    16    15   ar
    43    17    16    1
    44    18    17    1
    45    18    59    1
    46    18    60    1
    47    18    61    1
    48    19    16   ar
    49    19    62    1
    50    20    19   ar
    51    21    20    1
    52    21    63    1
    53    21    64    1
    54    22    21    1
    55    23    22    1
    56    23    65    1
    57    23    66    1
    58    23    67    1
    59    24    22    1
    60    24    68    1
    61    24    69    1
    62    24    70    1
    63    25    22    1
    64    25    71    1
    65    26    25    1
    66    26    72    1
    67    26    73    1
    68    27    26    1
    69    27    74    1
    70    27    75    1
    71    28    27    1
    72    28    76    1
    73    28    77    1
    74    29    28    1
    75    29    25    1
    76    29    78    1
    77    29    79    1
    78    30    20   ar
    79    30    80    1
    80    31    30   ar
    81    31    15   ar
    82    31    81    1
