@<TRIPOS>MOLECULE
mol_830_akc_acsjmedchem3c01439
*****
 83 87 0 0 0
SMALL
GASTEIGER

@<TRIPOS>ATOM
      1 C          -5.2638    1.9017    1.4768 C.3     1  UNL1       -0.0141
      2 C          -4.0002    1.5643    2.2776 C.3     1  UNL1        0.0565
      3 N          -2.9571    1.1035    1.3691 N.am    1  UNL1       -0.2751
      4 C          -2.5311    2.2242    0.5054 C.3     1  UNL1        0.0565
      5 C          -3.7060    2.7501   -0.3632 C.3     1  UNL1       -0.0141
      6 N          -5.0036    3.0680    0.4641 N.4     1  UNL1        0.2434
      7 C          -4.8937    4.3760    1.2876 C.3     1  UNL1       -0.0299
      8 C          -4.5618    5.6964    0.5786 C.3     1  UNL1       -0.0085
      9 C          -5.5905    6.2274   -0.4145 C.3     1  UNL1       -0.0229
     10 C          -5.2983    7.5444   -1.0960 C.ar    1  UNL1       -0.0472
     11 C          -5.7918    7.7215   -2.4031 C.ar    1  UNL1       -0.0586
     12 C          -5.5825    8.9089   -3.1028 C.ar    1  UNL1       -0.0615
     13 C          -4.8880    9.9506   -2.5010 C.ar    1  UNL1       -0.0617
     14 C          -4.4137    9.8038   -1.1983 C.ar    1  UNL1       -0.0615
     15 C          -4.6201    8.6101   -0.4948 C.ar    1  UNL1       -0.0586
     16 C          -6.2073    3.0214   -0.4866 C.3     1  UNL1       -0.0412
     17 C          -2.4945   -0.1849    1.0575 C.2     1  UNL1        0.3098
     18 O          -1.6049   -0.2796    0.2157 O.2     1  UNL1       -0.2520
     19 N          -3.0839   -1.3295    1.6052 N.am    1  UNL1       -0.2481
     20 C          -2.5877   -2.6401    1.2469 C.ar    1  UNL1        0.0384
     21 C          -1.2408   -2.9806    1.4139 C.ar    1  UNL1       -0.0375
     22 C          -0.7783   -4.2449    1.0237 C.ar    1  UNL1       -0.0247
     23 C          -1.6674   -5.1818    0.5053 C.ar    1  UNL1        0.1235
     24 C          -3.0201   -4.8994    0.4160 C.ar    1  UNL1       -0.0247
     25 C          -3.4758   -3.6312    0.7778 C.ar    1  UNL1       -0.0375
     26 F          -1.2145   -6.3673    0.0788 F       1  UNL1       -0.2055
     27 C          -4.2493   -1.3930    2.4714 C.3     1  UNL1        0.0792
     28 O          -2.5935   -1.0250    4.2831 O.2     1  UNL1       -0.4535
     29 C          -3.8999   -1.2116    3.9091 C.ar    1  UNL1        0.1236
     30 C          -4.7218   -1.1191    5.0087 C.ar    1  UNL1       -0.0183
     31 C          -3.8776   -0.9361    6.1250 C.ar    1  UNL1       -0.0109
     32 C          -2.5739   -0.8717    5.6548 C.ar    1  UNL1        0.1895
     33 C          -1.3047   -0.6915    6.3572 C.2     1  UNL1        0.2794
     34 O          -1.2318   -0.5353    7.5739 O.2     1  UNL1       -0.2668
     35 N          -0.1930   -0.6589    5.5423 N.am    1  UNL1       -0.3085
     36 C           1.1829   -0.5009    6.0244 C.3     1  UNL1        0.0160
     37 C           2.1956   -0.5560    4.8669 C.3     1  UNL1       -0.0120
     38 C           3.6212   -0.3972    5.3399 C.ar    1  UNL1       -0.0457
     39 C           4.3955   -1.5257    5.6545 C.ar    1  UNL1       -0.0558
     40 C           5.6881   -1.3779    6.1629 C.ar    1  UNL1       -0.0262
     41 C           6.2080   -0.1045    6.3554 C.ar    1  UNL1        0.1234
     42 C           5.4673    1.0252    6.0311 C.ar    1  UNL1       -0.0262
     43 C           4.1762    0.8804    5.5176 C.ar    1  UNL1       -0.0558
     44 F           7.4371    0.0370    6.8690 F       1  UNL1       -0.2055
     45 H          -5.5822    1.0378    0.8790 H       1  UNL1        0.0831
     46 H          -6.0951    2.2022    2.1244 H       1  UNL1        0.0831
     47 H          -4.2340    0.8892    3.0781 H       1  UNL1        0.0518
     48 H          -3.6110    2.4369    2.8142 H       1  UNL1        0.0518
     49 H          -2.1633    3.0251    1.1590 H       1  UNL1        0.0518
     50 H          -1.7009    1.9527   -0.1522 H       1  UNL1        0.0518
     51 H          -3.4404    3.6608   -0.9056 H       1  UNL1        0.0831
     52 H          -3.9889    1.9798   -1.0897 H       1  UNL1        0.0831
     53 H          -5.8099    4.4616    1.8844 H       1  UNL1        0.0815
     54 H          -4.0714    4.2146    1.9910 H       1  UNL1        0.0815
     55 H          -4.4529    6.4383    1.3823 H       1  UNL1        0.0320
     56 H          -3.5756    5.6325    0.1083 H       1  UNL1        0.0320
     57 H          -5.6393    5.5143   -1.2317 H       1  UNL1        0.0315
     58 H          -6.5812    6.2808    0.0516 H       1  UNL1        0.0315
     59 H          -6.3515    6.9284   -2.8951 H       1  UNL1        0.0620
     60 H          -5.9684    9.0218   -4.1130 H       1  UNL1        0.0618
     61 H          -4.7267   10.8799   -3.0426 H       1  UNL1        0.0618
     62 H          -3.8870   10.6315   -0.7278 H       1  UNL1        0.0618
     63 H          -4.2460    8.5490    0.5230 H       1  UNL1        0.0620
     64 H          -6.2495    2.0247   -0.9413 H       1  UNL1        0.0778
     65 H          -7.1204    3.2109    0.0843 H       1  UNL1        0.0778
     66 H          -6.0738    3.7270   -1.2971 H       1  UNL1        0.0778
     67 H          -0.5468   -2.2853    1.8782 H       1  UNL1        0.0637
     68 H           0.2707   -4.5080    1.1170 H       1  UNL1        0.0647
     69 H          -3.7071   -5.6549    0.0461 H       1  UNL1        0.0647
     70 H          -4.5349   -3.4300    0.6439 H       1  UNL1        0.0637
     71 H          -4.9801   -0.6687    2.1149 H       1  UNL1        0.0549
     72 H          -4.7917   -2.3362    2.3893 H       1  UNL1        0.0549
     73 H          -5.8010   -1.1878    4.9907 H       1  UNL1        0.0653
     74 H          -4.1811   -0.8539    7.1596 H       1  UNL1        0.0657
     75 H          -0.3583   -0.7942    4.5524 H       1  UNL1        0.1491
     76 H           1.2510    0.4447    6.5592 H       1  UNL1        0.0465
     77 H           1.3859   -1.3020    6.7495 H       1  UNL1        0.0465
     78 H           2.0951   -1.5041    4.3213 H       1  UNL1        0.0328
     79 H           1.9670    0.2268    4.1313 H       1  UNL1        0.0328
     80 H           3.9954   -2.5281    5.5173 H       1  UNL1        0.0621
     81 H           6.2870   -2.2457    6.4220 H       1  UNL1        0.0646
     82 H           5.8963    2.0092    6.1924 H       1  UNL1        0.0646
     83 H           3.6049    1.7719    5.2697 H       1  UNL1        0.0621
@<TRIPOS>UNITY_ATOM_ATTR
6 1
charge 1
@<TRIPOS>BOND
     1     1     2    1
     2     1     6    1
     3     2     3    1
     4     3     4    1
     5     3    17   am
     6     4     5    1
     7     5     6    1
     8     6     7    1
     9     6    16    1
    10     7     8    1
    11     8     9    1
    12     9    10    1
    13    10    11   ar
    14    10    15   ar
    15    11    12   ar
    16    12    13   ar
    17    13    14   ar
    18    14    15   ar
    19    17    18    2
    20    17    19   am
    21    19    20    1
    22    19    27    1
    23    20    21   ar
    24    20    25   ar
    25    21    22   ar
    26    22    23   ar
    27    23    24   ar
    28    23    26    1
    29    24    25   ar
    30    27    29    1
    31    28    29   ar
    32    28    32   ar
    33    29    30   ar
    34    30    31   ar
    35    31    32   ar
    36    32    33    1
    37    33    34    2
    38    33    35   am
    39    35    36    1
    40    36    37    1
    41    37    38    1
    42    38    39   ar
    43    38    43   ar
    44    39    40   ar
    45    40    41   ar
    46    41    42   ar
    47    41    44    1
    48    42    43   ar
    49     1    45    1
    50     1    46    1
    51     2    47    1
    52     2    48    1
    53     4    49    1
    54     4    50    1
    55     5    51    1
    56     5    52    1
    57     7    53    1
    58     7    54    1
    59     8    55    1
    60     8    56    1
    61     9    57    1
    62     9    58    1
    63    11    59    1
    64    12    60    1
    65    13    61    1
    66    14    62    1
    67    15    63    1
    68    16    64    1
    69    16    65    1
    70    16    66    1
    71    21    67    1
    72    22    68    1
    73    24    69    1
    74    25    70    1
    75    27    71    1
    76    27    72    1
    77    30    73    1
    78    31    74    1
    79    35    75    1
    80    36    76    1
    81    36    77    1
    82    37    78    1
    83    37    79    1
    84    39    80    1
    85    40    81    1
    86    42    82    1
    87    43    83    1
