@<TRIPOS>MOLECULE
mol_831_akc_ijms25010659
N-(2-methoxyphenyl)-1-methyl-1H-benzimidazol-2-amine
 34 36 0 0 0
SMALL
GASTEIGER

@<TRIPOS>ATOM
      1 C          -0.1322    0.5650   -0.1897 C.ar    1  UNL1        0.0698
      2 N          -1.4996    0.3789   -0.1642 N.ar    1  UNL1       -0.3147
      3 C          -1.7491   -0.9792   -0.1632 C.ar    1  UNL1        0.2008
      4 N          -0.6205   -1.6463   -0.2967 N.ar    1  UNL1       -0.2142
      5 C           0.3810   -0.7206   -0.2973 C.ar    1  UNL1        0.0909
      6 C           1.7672   -0.9157   -0.3675 C.ar    1  UNL1       -0.0342
      7 C           2.6050    0.2007   -0.2973 C.ar    1  UNL1       -0.0596
      8 C           2.0709    1.4851   -0.1705 C.ar    1  UNL1       -0.0597
      9 C           0.6871    1.6983   -0.1224 C.ar    1  UNL1       -0.0360
     10 N          -2.9944   -1.4894   -0.0441 N.pl3   1  UNL1       -0.2820
     11 C          -2.4525    1.4571   -0.0785 C.3     1  UNL1        0.0150
     12 C          -3.3213   -2.7950    0.3945 C.ar    1  UNL1        0.0757
     13 C          -4.5932   -3.3261    0.1095 C.ar    1  UNL1        0.1412
     14 C          -4.9689   -4.5990    0.5476 C.ar    1  UNL1       -0.0181
     15 C          -4.0554   -5.3901    1.2377 C.ar    1  UNL1       -0.0582
     16 C          -2.7738   -4.9077    1.4906 C.ar    1  UNL1       -0.0598
     17 C          -2.4122   -3.6247    1.0653 C.ar    1  UNL1       -0.0369
     18 O          -5.5338   -2.5890   -0.5709 O.3     1  UNL1       -0.4933
     19 C          -5.2291   -2.5426   -1.9687 C.3     1  UNL1        0.0789
     20 H           2.1683   -1.9193   -0.4588 H       1  UNL1        0.0639
     21 H           3.6828    0.0622   -0.3343 H       1  UNL1        0.0618
     22 H           2.7444    2.3370   -0.1056 H       1  UNL1        0.0618
     23 H           0.2800    2.6983   -0.0224 H       1  UNL1        0.0639
     24 H          -3.8287   -0.9229   -0.1335 H       1  UNL1        0.1551
     25 H          -2.3220    1.9567    0.8852 H       1  UNL1        0.0457
     26 H          -2.2582    2.1557   -0.8976 H       1  UNL1        0.0457
     27 H          -3.4748    1.0884   -0.1657 H       1  UNL1        0.0457
     28 H          -5.9679   -4.9729    0.3412 H       1  UNL1        0.0655
     29 H          -4.3361   -6.3844    1.5763 H       1  UNL1        0.0619
     30 H          -2.0509   -5.5191    2.0236 H       1  UNL1        0.0618
     31 H          -1.4081   -3.2744    1.2957 H       1  UNL1        0.0637
     32 H          -4.9567   -1.5164   -2.2337 H       1  UNL1        0.0660
     33 H          -4.4255   -3.2233   -2.2750 H       1  UNL1        0.0660
     34 H          -6.1342   -2.8084   -2.5226 H       1  UNL1        0.0660
@<TRIPOS>BOND
     1     1     2   ar
     2     2     3   ar
     3     3     4   ar
     4     4     5   ar
     5     1     5   ar
     6     5     6   ar
     7     6     7   ar
     8     7     8   ar
     9     8     9   ar
    10     1     9   ar
    11     3    10    1
    12     2    11    1
    13    12    13   ar
    14    13    14   ar
    15    14    15   ar
    16    15    16   ar
    17    16    17   ar
    18    12    17   ar
    19    18    19    1
    20    13    18    1
    21    10    12    1
    22     6    20    1
    23     7    21    1
    24     8    22    1
    25     9    23    1
    26    10    24    1
    27    11    25    1
    28    11    26    1
    29    11    27    1
    30    14    28    1
    31    15    29    1
    32    16    30    1
    33    17    31    1
    34    19    32    1
    35    19    33    1
    36    19    34    1
