@<TRIPOS>MOLECULE
mol_832_akc_1809_4392202203181c813
10621
 77 81 0 0 0
SMALL
GASTEIGER

@<TRIPOS>ATOM
      1 O          -0.1498    7.3188   -0.2613 O.3     1  UNL1       -0.3313
      2 O          -0.4318    4.5139   -0.3692 O.3     1  UNL1       -0.3461
      3 O          -1.2077    2.4601   -1.2669 O.3     1  UNL1       -0.3431
      4 O          -3.1768    6.9666   -2.3119 O.3     1  UNL1       -0.3865
      5 O           0.7786    9.1107    1.0297 O.3     1  UNL1       -0.4606
      6 O          -2.9448    9.8084   -2.1177 O.3     1  UNL1       -0.3864
      7 O          -1.5193   10.7509    0.2527 O.3     1  UNL1       -0.3829
      8 O           0.9610    1.1137   -0.0378 O.3     1  UNL1       -0.3841
      9 O           0.0914    1.5253    2.5666 O.3     1  UNL1       -0.3864
     10 O          -2.8058    1.7957    2.0060 O.3     1  UNL1       -0.3866
     11 O           5.2589    7.9040    1.8129 O.3     1  UNL1       -0.4828
     12 O           3.5843    8.2421   -2.7470 O.3     1  UNL1       -0.5058
     13 O           6.0012    7.4325   -2.1801 O.2     1  UNL1       -0.2917
     14 O          10.5201    7.6363    5.2762 O.3     1  UNL1       -0.4915
     15 O          10.2970    5.1697    3.4799 O.3     1  UNL1       -0.5033
     16 C          -1.3151    6.6911   -0.8039 C.3     1  UNL1        0.1144
     17 C          -1.9918    7.6050   -1.8201 C.3     1  UNL1        0.1120
     18 C          -2.3404    8.9421   -1.1485 C.3     1  UNL1        0.1152
     19 C          -1.1169    9.5813   -0.4751 C.3     1  UNL1        0.1454
     20 C           0.5619    2.4397    0.3652 C.3     1  UNL1        0.1341
     21 C          -0.0764    3.2094   -0.8043 C.3     1  UNL1        0.1879
     22 C          -0.4560    2.3238    1.5072 C.3     1  UNL1        0.1140
     23 C          -1.7758    1.7002    1.0136 C.3     1  UNL1        0.1095
     24 C          -0.4069    8.5403    0.4254 C.3     1  UNL1        0.2308
     25 C          -0.8823    5.3569   -1.4362 C.3     1  UNL1        0.0796
     26 C          -2.2525    2.3690   -0.2879 C.3     1  UNL1        0.0873
     27 C          -3.3995    1.5872   -0.9217 C.3     1  UNL1       -0.0361
     28 C           1.9839    8.7738    0.4728 C.ar    1  UNL1        0.1310
     29 C           3.0306    8.5162    1.3606 C.ar    1  UNL1        0.0229
     30 C           4.2850    8.1248    0.8780 C.ar    1  UNL1        0.1389
     31 C           2.2139    8.7093   -0.9045 C.ar    1  UNL1        0.0226
     32 C           6.3913    7.1420    1.3532 C.3     1  UNL1        0.1323
     33 C           4.4936    8.0171   -0.4992 C.ar    1  UNL1        0.1007
     34 C           6.9316    7.6488    0.0228 C.3     1  UNL1        0.0520
     35 C           3.4538    8.3125   -1.3782 C.ar    1  UNL1        0.1343
     36 C           5.8266    7.6461   -0.9836 C.2     1  UNL1        0.1740
     37 C           7.4944    7.2211    2.3989 C.ar    1  UNL1       -0.0033
     38 C           8.4361    6.1882    2.5220 C.ar    1  UNL1       -0.0098
     39 C           7.6403    8.3433    3.2215 C.ar    1  UNL1       -0.0514
     40 C           9.4702    6.2559    3.4686 C.ar    1  UNL1        0.1588
     41 C           8.6749    8.4078    4.1584 C.ar    1  UNL1       -0.0159
     42 C           9.6003    7.3663    4.3053 C.ar    1  UNL1        0.1613
     43 C          11.5697    6.7296    5.5550 C.3     1  UNL1        0.0790
     44 H          -2.0011    6.4656    0.0193 H       1  UNL1        0.0647
     45 H          -1.3364    7.7971   -2.6814 H       1  UNL1        0.0647
     46 H          -3.1254    8.7788   -0.3976 H       1  UNL1        0.0648
     47 H          -0.4359    9.9497   -1.2475 H       1  UNL1        0.0683
     48 H           1.4591    2.9507    0.7307 H       1  UNL1        0.0671
     49 H           0.6401    3.2666   -1.6320 H       1  UNL1        0.0937
     50 H          -0.6515    3.3112    1.9417 H       1  UNL1        0.0648
     51 H          -1.6117    0.6292    0.8431 H       1  UNL1        0.0646
     52 H          -1.0598    8.3119    1.2767 H       1  UNL1        0.1084
     53 H          -1.7222    4.8821   -1.9515 H       1  UNL1        0.0587
     54 H          -0.0567    5.5111   -2.1389 H       1  UNL1        0.0587
     55 H          -2.6339    3.3750   -0.0720 H       1  UNL1        0.0621
     56 H          -4.2878    1.5925   -0.2835 H       1  UNL1        0.0255
     57 H          -3.6652    2.0171   -1.8933 H       1  UNL1        0.0255
     58 H          -3.1086    0.5476   -1.1064 H       1  UNL1        0.0255
     59 H          -3.9155    7.6021   -2.2339 H       1  UNL1        0.2100
     60 H          -2.2404   10.3072   -2.5707 H       1  UNL1        0.2100
     61 H          -2.0999   10.4855    0.9881 H       1  UNL1        0.2102
     62 H           0.3594    0.8435   -0.7601 H       1  UNL1        0.2101
     63 H           0.5305    0.7677    2.1304 H       1  UNL1        0.2100
     64 H          -2.6286    2.5796    2.5546 H       1  UNL1        0.2100
     65 H           2.8631    8.5954    2.4336 H       1  UNL1        0.0691
     66 H           1.4392    8.9462   -1.6215 H       1  UNL1        0.0691
     67 H           6.0608    6.0969    1.2703 H       1  UNL1        0.0789
     68 H           7.7365    6.9999   -0.3390 H       1  UNL1        0.0385
     69 H           7.3110    8.6742    0.0952 H       1  UNL1        0.0385
     70 H           8.3718    5.3094    1.8829 H       1  UNL1        0.0659
     71 H           6.9521    9.1827    3.1436 H       1  UNL1        0.0623
     72 H           4.4930    7.9219   -2.9479 H       1  UNL1        0.2922
     73 H           8.7646    9.2938    4.7842 H       1  UNL1        0.0655
     74 H          10.4481    4.9303    4.4059 H       1  UNL1        0.2923
     75 H          11.1812    5.8292    6.0397 H       1  UNL1        0.0660
     76 H          12.1579    6.4955    4.6635 H       1  UNL1        0.0660
     77 H          12.2393    7.2116    6.2746 H       1  UNL1        0.0660
@<TRIPOS>BOND
     1     1    16    1
     2     1    24    1
     3     2    25    1
     4     3    21    1
     5     3    26    1
     6     4    17    1
     7     4    59    1
     8     5    24    1
     9     5    28    1
    10     6    18    1
    11     6    60    1
    12     7    19    1
    13     7    61    1
    14     8    20    1
    15     8    62    1
    16     9    22    1
    17     9    63    1
    18    10    23    1
    19    10    64    1
    20    11    30    1
    21    11    32    1
    22    12    35    1
    23    12    72    1
    24    13    36    2
    25    14    42    1
    26    14    43    1
    27    15    40    1
    28    15    74    1
    29    16    17    1
    30    16    25    1
    31    16    44    1
    32    17    18    1
    33    17    45    1
    34    18    19    1
    35    18    46    1
    36    19    24    1
    37    19    47    1
    38    20    21    1
    39    20    22    1
    40    20    48    1
    41    22    23    1
    42    22    50    1
    43    23    26    1
    44    23    51    1
    45    24    52    1
    46    25    53    1
    47    25    54    1
    48    26    27    1
    49    26    55    1
    50    27    56    1
    51    27    57    1
    52    27    58    1
    53    28    29   ar
    54    28    31   ar
    55    29    30   ar
    56    29    65    1
    57    30    33   ar
    58    31    35   ar
    59    31    66    1
    60    32    34    1
    61    33    35   ar
    62    33    36    1
    63    34    36    1
    64    34    68    1
    65    34    69    1
    66    37    38   ar
    67    37    39   ar
    68    38    40   ar
    69    38    70    1
    70    39    41   ar
    71    39    71    1
    72    40    42   ar
    73    41    42   ar
    74    41    73    1
    75    43    75    1
    76    43    76    1
    77    43    77    1
    78    21    49    1
    79    21     2    1
    80    32    67    1
    81    32    37    1
