@<TRIPOS>MOLECULE
mol_833_akc_preprints2024010661v1
*****
 56 58 0 0 0
SMALL
GASTEIGER

@<TRIPOS>ATOM
      1 C          -1.4976    3.6066   -4.8805 C.ar    0  UNK0        0.0516
      2 N          -0.7235    3.8135   -5.9504 N.ar    0  UNK0       -0.2193
      3 C           0.5732    3.5718   -5.7512 C.ar    0  UNK0        0.2145
      4 N           1.1222    3.1523   -4.5993 N.ar    0  UNK0       -0.1998
      5 C           0.2976    2.9318   -3.5627 C.ar    0  UNK0        0.1249
      6 C          -1.0495    3.1597   -3.6534 C.ar    0  UNK0        0.0167
      7 C          -2.9911    3.7367   -4.9097 C.3     0  UNK0       -0.0094
      8 C          -3.3188    3.7143   -3.4137 C.3     0  UNK0       -0.0406
      9 C          -2.1912    2.9134   -2.7152 C.3     0  UNK0       -0.0092
     10 N           0.9011    2.4744   -2.3986 N.pl3   0  UNK0       -0.3428
     11 N           1.4272    3.7983   -6.8166 N.pl3   0  UNK0       -0.3274
     12 C          -2.0058    3.3421   -1.2584 C.3     0  UNK0       -0.0305
     13 C          -3.2094    2.9478   -0.3881 C.3     0  UNK0        0.0097
     14 N          -3.0819    3.5277    0.9423 N.pl3   0  UNK0       -0.3438
     15 C          -3.4797    4.8440    1.1956 C.ar    0  UNK0        0.0272
     16 C          -4.2746    7.0525    0.5102 C.ar    0  UNK0       -0.0479
     17 C          -3.9745    5.7161    0.2190 C.ar    0  UNK0       -0.0401
     18 C          -3.2634    5.3665    2.4768 C.ar    0  UNK0       -0.0401
     19 C          -3.5379    6.7087    2.7714 C.ar    0  UNK0       -0.0479
     20 C          -4.0406    7.5679    1.7869 C.ar    0  UNK0        0.0368
     21 C          -4.3237    8.9946    2.1467 C.2     0  UNK0        0.2446
     22 O          -4.2714    9.3311    3.3256 O.2     0  UNK0       -0.2702
     23 N          -4.6515    9.8270    1.1001 N.am    1  GLU1       -0.3034
     24 CA         -4.7094   11.3013    1.2312 C.3     1  GLU1        0.0632
     25 C          -3.3752   11.9862    0.7647 C.2     1  GLU1        0.0620
     26 CB         -5.9307   11.8605    0.4758 C.3     1  GLU1       -0.0241
     27 CG         -6.0068   11.5052   -1.0150 C.3     1  GLU1       -0.0112
     28 CD         -7.2968   11.9066   -1.7449 C.2     1  GLU1        0.0418
     29 O          -2.6468   11.2667    0.0071 O.co2   1  GLU1       -0.5479
     30 OXT        -3.1456   13.1416    1.2270 O.co2   1  GLU1       -0.5479
     31 OE1        -7.3398   11.5599   -2.9651 O.co2   1  GLU1       -0.5498
     32 OE2        -8.1843   12.5028   -1.0725 O.co2   1  GLU1       -0.5498
     33 H          -3.4318    2.8835   -5.4271 H       0  UNK0        0.0328
     34 H          -3.3153    4.6716   -5.3793 H       0  UNK0        0.0328
     35 H          -4.3083    3.2851   -3.2269 H       0  UNK0        0.0275
     36 H          -3.3393    4.7473   -3.0398 H       0  UNK0        0.0275
     37 H          -2.4294    1.8392   -2.7601 H       0  UNK0        0.0351
     38 H           0.4569    1.6458   -2.0273 H       0  UNK0        0.1437
     39 H           1.8887    2.3389   -2.5922 H       0  UNK0        0.1437
     40 H           0.9951    4.4939   -7.4113 H       0  UNK0        0.1452
     41 H           2.3379    4.0266   -6.4443 H       0  UNK0        0.1452
     42 H          -1.1164    2.8696   -0.8253 H       0  UNK0        0.0286
     43 H          -1.8185    4.4222   -1.2112 H       0  UNK0        0.0286
     44 H          -4.1705    3.2048   -0.8465 H       0  UNK0        0.0461
     45 H          -3.2140    1.8569   -0.2853 H       0  UNK0        0.0461
     46 H          -3.3362    2.9062    1.7057 H       0  UNK0        0.1461
     47 H          -4.6921    7.6706   -0.2803 H       0  UNK0        0.0626
     48 H          -4.1560    5.3893   -0.7983 H       0  UNK0        0.0636
     49 H          -2.8478    4.7383    3.2589 H       0  UNK0        0.0636
     50 H          -3.3458    7.0907    3.7719 H       0  UNK0        0.0626
     51 H          -4.2299    9.6045    0.2049 H       1  GLU1        0.1496
     52 HA         -4.8284   11.5367    2.2960 H       1  GLU1        0.0560
     53 HB1        -6.8362   11.4828    0.9691 H       1  GLU1        0.0290
     54 HB2        -5.9545   12.9527    0.5810 H       1  GLU1        0.0290
     55 HG1        -5.1666   11.9709   -1.5439 H       1  GLU1        0.0325
     56 HG2        -5.9104   10.4206   -1.1443 H       1  GLU1        0.0325
@<TRIPOS>UNITY_ATOM_ATTR
29 1
charge -1
32 1
charge -1
@<TRIPOS>BOND
     1     1     2   ar
     2     2     3   ar
     3     3     4   ar
     4     4     5   ar
     5     5     6   ar
     6     1     7    1
     7     1     6   ar
     8     6     9    1
     9     7     8    1
    10     8     9    1
    11     5    10    1
    12     3    11    1
    13    12    13    1
    14    13    14    1
    15    14    15    1
    16    17    15   ar
    17    15    18   ar
    18    16    17   ar
    19    18    19   ar
    20    19    20   ar
    21    16    20   ar
    22    20    21    1
    23    21    22    2
    24    21    23   am
    25    24    23    1
    26    24    25    1
    27    24    26    1
    28    26    27    1
    29    27    28    1
    30    25    29   ar
    31    25    30   ar
    32    28    31   ar
    33    28    32   ar
    34     7    33    1
    35     7    34    1
    36     8    35    1
    37     8    36    1
    38    10    38    1
    39    10    39    1
    40    11    40    1
    41    11    41    1
    42    12    42    1
    43    12    43    1
    44    13    44    1
    45    13    45    1
    46    14    46    1
    47    16    47    1
    48    17    48    1
    49    18    49    1
    50    19    50    1
    51    23    51    1
    52    24    52    1
    53    26    53    1
    54    26    54    1
    55    27    55    1
    56    27    56    1
    57     9    37    1
    58     9    12    1
