@<TRIPOS>MOLECULE
mol_834_akc_jijantimicag2024107092
5281035
 57 60 0 0 0
SMALL
GASTEIGER

@<TRIPOS>ATOM
      1 N           0.0172    1.0895    0.0673 N.ar    1  UNL1       -0.3171
      2 N          -0.7389   -5.6209   -1.1131 N.ar    1  UNL1       -0.1936
      3 N          -2.8611  -10.8528   -0.9901 N.pl3   1  UNL1       -0.3360
      4 C          -0.8959    0.0150    0.1613 C.ar    1  UNL1        0.0281
      5 C          -0.1731   -1.1745    0.1059 C.ar    1  UNL1       -0.0038
      6 C          -1.2645   -6.8876   -1.1064 C.ar    1  UNL1        0.2152
      7 C           1.2956    0.5377   -0.0503 C.ar    1  UNL1        0.0215
      8 C          -1.3935   -7.5823    0.1170 C.ar    1  UNL1        0.0482
      9 C          -0.4498   -4.9838    0.0557 C.ar    1  UNL1        0.2080
     10 C           1.1832   -0.8343   -0.0311 C.ar    1  UNL1       -0.0334
     11 C          -0.2929    2.4950    0.0718 C.ar    1  UNL1        0.0465
     12 C          -0.7031   -2.5078    0.1499 C.2     1  UNL1       -0.0467
     13 C           0.0644   -3.6096    0.0615 C.2     1  UNL1        0.0103
     14 C          -1.9080   -8.8963    0.1385 C.ar    1  UNL1       -0.0272
     15 C          -2.3446   -9.5693   -1.0126 C.ar    1  UNL1        0.0302
     16 C          -1.0154   -6.9568    1.3027 C.ar    1  UNL1       -0.0420
     17 C          -0.5664   -5.6489    1.2743 C.ar    1  UNL1        0.0105
     18 C          -1.6907   -7.5481   -2.2645 C.ar    1  UNL1        0.0121
     19 C          -2.3779    0.2013    0.2061 C.3     1  UNL1       -0.0233
     20 C           2.5863    1.2874   -0.0781 C.3     1  UNL1       -0.0239
     21 C          -2.2167   -8.8487   -2.2096 C.ar    1  UNL1       -0.0344
     22 C          -0.4594   -4.9594   -2.4127 C.3     1  UNL1        0.1415
     23 C          -1.3222    3.0100    0.8690 C.ar    1  UNL1       -0.0378
     24 C           0.4386    3.3877   -0.7252 C.ar    1  UNL1       -0.0378
     25 C          -3.0414  -11.6597    0.2171 C.3     1  UNL1        0.0004
     26 C          -3.4102  -11.4621   -2.2054 C.3     1  UNL1        0.0004
     27 C          -1.6287    4.3769    0.8474 C.ar    1  UNL1       -0.0598
     28 C           0.1562    4.7578   -0.7172 C.ar    1  UNL1       -0.0598
     29 C          -0.8856    5.2507    0.0603 C.ar    1  UNL1       -0.0616
     30 H           2.0336   -1.5012   -0.0910 H       1  UNL1        0.0641
     31 H          -1.7810   -2.6163    0.2495 H       1  UNL1        0.0626
     32 H           1.1438   -3.5494   -0.0183 H       1  UNL1        0.0683
     33 H          -1.9705   -9.3846    1.1071 H       1  UNL1        0.0644
     34 H          -1.0845   -7.4763    2.2586 H       1  UNL1        0.0628
     35 H          -0.2905   -5.1559    2.2058 H       1  UNL1        0.0683
     36 H          -1.6514   -7.0861   -3.2467 H       1  UNL1        0.0684
     37 H          -2.7085    0.5228    1.1976 H       1  UNL1        0.0292
     38 H          -2.7130    0.9245   -0.5461 H       1  UNL1        0.0292
     39 H          -2.9160   -0.7303   -0.0032 H       1  UNL1        0.0292
     40 H           2.7739    1.7208   -1.0636 H       1  UNL1        0.0292
     41 H           2.6192    2.0641    0.6909 H       1  UNL1        0.0292
     42 H           3.4229    0.6052    0.1166 H       1  UNL1        0.0292
     43 H          -2.5293   -9.2896   -3.1547 H       1  UNL1        0.0638
     44 H           0.1126   -5.6589   -3.0307 H       1  UNL1        0.0993
     45 H          -1.4154   -4.7018   -2.8745 H       1  UNL1        0.0993
     46 H           0.1518   -4.0644   -2.2992 H       1  UNL1        0.0993
     47 H          -1.8779    2.3904    1.5624 H       1  UNL1        0.0638
     48 H           1.2104    3.0486   -1.4060 H       1  UNL1        0.0638
     49 H          -4.1085  -11.8436    0.3852 H       1  UNL1        0.0428
     50 H          -2.5459  -12.6283    0.0856 H       1  UNL1        0.0428
     51 H          -2.6385  -11.2280    1.1335 H       1  UNL1        0.0428
     52 H          -4.2339  -10.8601   -2.6054 H       1  UNL1        0.0428
     53 H          -2.6335  -11.5789   -2.9687 H       1  UNL1        0.0428
     54 H          -3.8126  -12.4621   -2.0060 H       1  UNL1        0.0428
     55 H          -2.4400    4.7621    1.4608 H       1  UNL1        0.0618
     56 H           0.7441    5.4367   -1.3306 H       1  UNL1        0.0618
     57 H          -1.1150    6.3135    0.0542 H       1  UNL1        0.0618
@<TRIPOS>UNITY_ATOM_ATTR
2 1
charge 1
@<TRIPOS>BOND
     1     1     4   ar
     2     1     7   ar
     3     1    11    1
     4     2     6   ar
     5     2     9   ar
     6     2    22    1
     7     3    15    1
     8     3    25    1
     9     3    26    1
    10     4     5   ar
    11     4    19    1
    12     5    10   ar
    13     5    12    1
    14     6     8   ar
    15     6    18   ar
    16     7    10   ar
    17     7    20    1
    18     8    14   ar
    19     8    16   ar
    20     9    13    1
    21     9    17   ar
    22    10    30    1
    23    11    23   ar
    24    11    24   ar
    25    12    13    2
    26    12    31    1
    27    13    32    1
    28    14    15   ar
    29    14    33    1
    30    15    21   ar
    31    16    17   ar
    32    16    34    1
    33    17    35    1
    34    18    21   ar
    35    18    36    1
    36    19    37    1
    37    19    38    1
    38    19    39    1
    39    20    40    1
    40    20    41    1
    41    20    42    1
    42    21    43    1
    43    22    44    1
    44    22    45    1
    45    22    46    1
    46    23    27   ar
    47    23    47    1
    48    24    28   ar
    49    24    48    1
    50    25    49    1
    51    25    50    1
    52    25    51    1
    53    26    52    1
    54    26    53    1
    55    26    54    1
    56    27    29   ar
    57    27    55    1
    58    28    29   ar
    59    28    56    1
    60    29    57    1
