@<TRIPOS>MOLECULE
mol_835_akc_jijantimicag2024107092
6197
 43 44 0 0 0
SMALL
GASTEIGER

@<TRIPOS>ATOM
      1 O           1.8864   -0.3007   -0.0480 O.3     1  UNL1       -0.3911
      2 O           0.1240   -1.9772   -3.8214 O.2     1  UNL1       -0.2967
      3 O           3.5019   -2.6540    1.8614 O.2     1  UNL1       -0.2754
      4 O           1.1745   -6.1070    0.2939 O.2     1  UNL1       -0.2754
      5 N           2.2102   -4.4786    1.4749 N.am    1  UNL1       -0.2564
      6 C           1.0070   -0.3682   -2.2862 C.3     1  UNL1        0.0439
      7 C          -0.2611    1.8520   -2.3120 C.3     1  UNL1       -0.0425
      8 C           1.0992    1.1565   -2.4674 C.3     1  UNL1       -0.0385
      9 C           0.7865   -0.7831   -0.8195 C.3     1  UNL1        0.0650
     10 C          -1.4139   -0.2217   -3.2760 C.3     1  UNL1        0.0153
     11 C          -1.2465    1.2982   -3.3506 C.3     1  UNL1       -0.0411
     12 C          -0.0647   -0.9221   -3.2097 C.2     1  UNL1        0.1417
     13 C           0.6368   -2.3002   -0.6068 C.3     1  UNL1       -0.0225
     14 C           0.1413   -2.6905    0.8123 C.3     1  UNL1       -0.0222
     15 C          -0.1155    3.3658   -2.4618 C.3     1  UNL1       -0.0624
     16 C          -2.3303   -0.6668   -2.1412 C.3     1  UNL1       -0.0557
     17 C           1.1132   -2.3600    1.9446 C.3     1  UNL1        0.0277
     18 C          -0.1550   -4.1944    0.8868 C.3     1  UNL1        0.0277
     19 C           2.3843   -3.1516    1.7743 C.2     1  UNL1        0.2195
     20 C           1.1176   -5.0124    0.8448 C.2     1  UNL1        0.2195
     21 H           1.9715   -0.7784   -2.6189 H       1  UNL1        0.0403
     22 H           1.8222    1.5808   -1.7602 H       1  UNL1        0.0275
     23 H           1.4951    1.3678   -3.4704 H       1  UNL1        0.0275
     24 H          -0.6519    1.6675   -1.3051 H       1  UNL1        0.0299
     25 H          -0.1020   -0.2927   -0.4169 H       1  UNL1        0.0600
     26 H          -1.8811   -0.5457   -4.2161 H       1  UNL1        0.0375
     27 H          -2.2228    1.7860   -3.2424 H       1  UNL1        0.0274
     28 H          -0.8807    1.5557   -4.3539 H       1  UNL1        0.0274
     29 H          -0.0937   -2.7001   -1.3182 H       1  UNL1        0.0293
     30 H           1.5910   -2.7925   -0.8280 H       1  UNL1        0.0293
     31 H          -0.8003   -2.1559    0.9963 H       1  UNL1        0.0311
     32 H           0.2407    3.6374   -3.4609 H       1  UNL1        0.0232
     33 H          -1.0780    3.8614   -2.2973 H       1  UNL1        0.0232
     34 H           0.5937    3.7613   -1.7278 H       1  UNL1        0.0232
     35 H          -3.3749   -0.4582   -2.3927 H       1  UNL1        0.0236
     36 H          -2.2405   -1.7415   -1.9508 H       1  UNL1        0.0236
     37 H          -2.1195   -0.1448   -1.2033 H       1  UNL1        0.0236
     38 H           0.6786   -2.6284    2.9154 H       1  UNL1        0.0361
     39 H           1.3409   -1.2934    1.9987 H       1  UNL1        0.0361
     40 H          -0.6754   -4.4376    1.8213 H       1  UNL1        0.0361
     41 H          -0.8014   -4.5000    0.0580 H       1  UNL1        0.0361
     42 H           2.6907   -0.7974   -0.2879 H       1  UNL1        0.2098
     43 H           3.0643   -5.0056    1.3452 H       1  UNL1        0.1575
@<TRIPOS>BOND
     1     1     9    1
     2     1    42    1
     3     2    12    2
     4     3    19    2
     5     4    20    2
     6     5    19   am
     7     5    20   am
     8     5    43    1
     9     6     8    1
    10     6     9    1
    11     6    12    1
    12     6    21    1
    13     7     8    1
    14     7    11    1
    15     8    22    1
    16     8    23    1
    17     9    13    1
    18     9    25    1
    19    10    11    1
    20    10    12    1
    21    10    16    1
    22    10    26    1
    23    11    27    1
    24    11    28    1
    25    13    14    1
    26    13    29    1
    27    13    30    1
    28    14    17    1
    29    14    18    1
    30    14    31    1
    31    15    32    1
    32    15    33    1
    33    15    34    1
    34    16    35    1
    35    16    36    1
    36    16    37    1
    37    17    19    1
    38    17    38    1
    39    17    39    1
    40    18    20    1
    41    18    40    1
    42    18    41    1
    43     7    24    1
    44     7    15    1
