@<TRIPOS>MOLECULE
mol_837_akc_jbmc201304063
*****
 33 35 0 0 0
SMALL
GASTEIGER

@<TRIPOS>ATOM
      1 C           0.0420   -0.7523    0.0117 C.ar    1  UNL1        0.0007
      2 C           1.2864   -1.4036    0.0138 C.ar    1  UNL1       -0.0494
      3 C           2.4773   -0.6724    0.0094 C.ar    1  UNL1       -0.0469
      4 C           2.4042    0.7218    0.0088 C.ar    1  UNL1       -0.0565
      5 C           1.1590    1.3646    0.0053 C.ar    1  UNL1       -0.0355
      6 C          -0.0345    0.6537    0.0066 C.ar    1  UNL1        0.0717
      7 N          -1.2121    1.3112    0.0019 N.ar    1  UNL1       -0.2467
      8 C          -2.3696    0.5980    0.0075 C.ar    1  UNL1        0.0717
      9 C          -2.3649   -0.7955    0.0057 C.ar    1  UNL1       -0.0351
     10 C          -1.1515   -1.4731    0.0115 C.ar    1  UNL1       -0.0505
     11 C          -3.6258    1.3799   -0.0268 C.ar    1  UNL1        0.0004
     12 C          -3.6786    2.6383   -0.6538 C.ar    1  UNL1       -0.0526
     13 C          -4.8762    3.3546   -0.7550 C.ar    1  UNL1       -0.0611
     14 C          -6.0499    2.8313   -0.2207 C.ar    1  UNL1       -0.0617
     15 C          -6.0223    1.6044    0.4333 C.ar    1  UNL1       -0.0611
     16 C          -4.8228    0.8926    0.5349 C.ar    1  UNL1       -0.0526
     17 C           3.8066   -1.3809    0.0473 C.3     1  UNL1       -0.0305
     18 C           4.2556   -1.6501    1.4754 C.3     1  UNL1       -0.0613
     19 H           1.3270   -2.4921    0.0215 H       1  UNL1        0.0627
     20 H           3.3108    1.3226    0.0145 H       1  UNL1        0.0621
     21 H           1.1199    2.4511    0.0040 H       1  UNL1        0.0639
     22 H          -3.2874   -1.3632   -0.0240 H       1  UNL1        0.0639
     23 H          -1.1483   -2.5597    0.0065 H       1  UNL1        0.0625
     24 H          -2.7742    3.0638   -1.0867 H       1  UNL1        0.0624
     25 H          -4.8888    4.3177   -1.2582 H       1  UNL1        0.0618
     26 H          -6.9830    3.3811   -0.3092 H       1  UNL1        0.0618
     27 H          -6.9326    1.1960    0.8645 H       1  UNL1        0.0618
     28 H          -4.8375   -0.0543    1.0694 H       1  UNL1        0.0624
     29 H           3.7349   -2.3279   -0.5022 H       1  UNL1        0.0311
     30 H           4.5625   -0.7831   -0.4757 H       1  UNL1        0.0311
     31 H           3.5301   -2.2737    2.0093 H       1  UNL1        0.0233
     32 H           5.2178   -2.1715    1.4791 H       1  UNL1        0.0233
     33 H           4.3719   -0.7167    2.0365 H       1  UNL1        0.0233
@<TRIPOS>BOND
     1     1     2   ar
     2     1     6   ar
     3     1    10   ar
     4     2     3   ar
     5     3     4   ar
     6     4     5   ar
     7     5     6   ar
     8     6     7   ar
     9     7     8   ar
    10     8     9   ar
    11     9    10   ar
    12     8    11    1
    13    11    12   ar
    14    11    16   ar
    15    12    13   ar
    16    13    14   ar
    17    14    15   ar
    18    15    16   ar
    19     3    17    1
    20    17    18    1
    21     2    19    1
    22     4    20    1
    23     5    21    1
    24     9    22    1
    25    10    23    1
    26    12    24    1
    27    13    25    1
    28    14    26    1
    29    15    27    1
    30    16    28    1
    31    17    29    1
    32    17    30    1
    33    18    31    1
    34    18    32    1
    35    18    33    1
