@<TRIPOS>MOLECULE
mol_838_akc_aac02201_12
*****
 50 52 0 0 0
SMALL
GASTEIGER

@<TRIPOS>ATOM
      1 C           0.5683   -0.3152   -0.2371 C.ar    1  UNL1        0.2572
      2 C           1.5519   -1.2981    0.0562 C.ar    1  UNL1        0.1922
      3 C           2.8762   -0.9258    0.2689 C.ar    1  UNL1       -0.0127
      4 C           3.2323    0.4110    0.3415 C.ar    1  UNL1       -0.0496
      5 C           2.2855    1.4339    0.1735 C.ar    1  UNL1       -0.0042
      6 C           0.9387    1.0718   -0.1418 C.ar    1  UNL1        0.0579
      7 C          -0.0564    2.0385   -0.3748 C.ar    1  UNL1       -0.0420
      8 C          -1.3651    1.6743   -0.6183 C.ar    1  UNL1        0.0027
      9 C          -1.6725    0.3398   -0.7270 C.ar    1  UNL1        0.1716
     10 N          -0.7245   -0.6194   -0.6033 N.ar    1  UNL1       -0.1968
     11 C           2.7686    2.8223    0.3600 C.ar    1  UNL1       -0.0171
     12 C           3.9160    3.2819   -0.3118 C.ar    1  UNL1       -0.0538
     13 C           4.4290    4.5622   -0.0829 C.ar    1  UNL1       -0.0583
     14 C           3.7979    5.4255    0.8149 C.ar    1  UNL1       -0.0504
     15 C           2.6462    4.9907    1.4754 C.ar    1  UNL1       -0.0583
     16 C           2.1549    3.6981    1.2703 C.ar    1  UNL1       -0.0538
     17 C           4.3249    6.8097    1.0514 C.3     1  UNL1       -0.0397
     18 O           1.2334   -2.6372    0.0876 O.3     1  UNL1       -0.4857
     19 C           1.6509   -3.3127    1.2917 C.3     1  UNL1        0.0899
     20 C          -1.1345   -1.9940   -0.9703 C.3     1  UNL1        0.1411
     21 C           1.8031   -4.8130    1.0384 C.3     1  UNL1       -0.0186
     22 C           2.7410   -5.1950   -0.1127 C.3     1  UNL1       -0.0502
     23 C           4.2039   -4.7653    0.0202 C.3     1  UNL1       -0.0558
     24 C           4.9114   -5.3211    1.2449 C.3     1  UNL1       -0.0653
     25 H           3.6630   -1.6620    0.3987 H       1  UNL1        0.0656
     26 H           4.2731    0.6524    0.5642 H       1  UNL1        0.0625
     27 H           0.1747    3.1047   -0.3612 H       1  UNL1        0.0628
     28 H          -2.1351    2.4383   -0.7484 H       1  UNL1        0.0677
     29 H          -2.6895    0.0244   -0.9448 H       1  UNL1        0.1376
     30 H           4.4434    2.6373   -1.0134 H       1  UNL1        0.0624
     31 H           5.3324    4.8744   -0.6040 H       1  UNL1        0.0620
     32 H           2.1344    5.6522    2.1717 H       1  UNL1        0.0620
     33 H           1.2870    3.3828    1.8446 H       1  UNL1        0.0624
     34 H           3.7016    7.5420    0.5292 H       1  UNL1        0.0278
     35 H           4.3279    7.0382    2.1224 H       1  UNL1        0.0278
     36 H           5.3545    6.9108    0.6926 H       1  UNL1        0.0278
     37 H           2.5836   -2.9282    1.7155 H       1  UNL1        0.0696
     38 H           0.8677   -3.1576    2.0441 H       1  UNL1        0.0696
     39 H          -0.3902   -2.4174   -1.6489 H       1  UNL1        0.0993
     40 H          -1.2697   -2.5711   -0.0545 H       1  UNL1        0.0993
     41 H          -2.0813   -1.9587   -1.5193 H       1  UNL1        0.0993
     42 H           2.1274   -5.3015    1.9643 H       1  UNL1        0.0298
     43 H           0.8132   -5.2226    0.8003 H       1  UNL1        0.0298
     44 H           2.7115   -6.2866   -0.2247 H       1  UNL1        0.0266
     45 H           2.3442   -4.7841   -1.0492 H       1  UNL1        0.0266
     46 H           4.7413   -5.1071   -0.8729 H       1  UNL1        0.0263
     47 H           4.2836   -3.6770    0.0221 H       1  UNL1        0.0263
     48 H           4.8314   -6.4119    1.2863 H       1  UNL1        0.0230
     49 H           5.9758   -5.0631    1.2092 H       1  UNL1        0.0230
     50 H           4.5016   -4.9042    2.1694 H       1  UNL1        0.0230
@<TRIPOS>UNITY_ATOM_ATTR
10 1
charge 1
@<TRIPOS>BOND
     1     1     2   ar
     2     1     6   ar
     3     1    10   ar
     4     2     3   ar
     5     3     4   ar
     6     4     5   ar
     7     5     6   ar
     8     6     7   ar
     9     7     8   ar
    10     8     9   ar
    11     9    10   ar
    12     5    11    1
    13    11    12   ar
    14    11    16   ar
    15    12    13   ar
    16    13    14   ar
    17    14    15   ar
    18    15    16   ar
    19    14    17    1
    20     2    18    1
    21    18    19    1
    22    10    20    1
    23    19    21    1
    24    21    22    1
    25    22    23    1
    26    23    24    1
    27     3    25    1
    28     4    26    1
    29     7    27    1
    30     8    28    1
    31     9    29    1
    32    12    30    1
    33    13    31    1
    34    15    32    1
    35    16    33    1
    36    17    34    1
    37    17    35    1
    38    17    36    1
    39    19    37    1
    40    19    38    1
    41    20    39    1
    42    20    40    1
    43    20    41    1
    44    21    42    1
    45    21    43    1
    46    22    44    1
    47    22    45    1
    48    23    46    1
    49    23    47    1
    50    24    48    1
    51    24    49    1
    52    24    50    1
