@<TRIPOS>MOLECULE
mol_839_akc_jbmcl201403065
*****
 38 40 0 0 0
SMALL
GASTEIGER

@<TRIPOS>ATOM
      1 C          -0.0815   -0.7300    0.1026 C.ar    1  UNL1        0.0230
      2 C          -1.3922   -1.2841    0.1271 C.ar    1  UNL1       -0.0296
      3 C          -2.5307   -0.4813    0.1926 C.ar    1  UNL1        0.0768
      4 C          -2.3897    0.8946    0.1610 C.ar    1  UNL1        0.1437
      5 C          -1.1250    1.4652    0.1267 C.ar    1  UNL1        0.0011
      6 C           0.0184    0.6892    0.1307 C.ar    1  UNL1        0.0762
      7 N           1.1814    1.3423    0.1334 N.ar    1  UNL1       -0.2471
      8 C           2.3241    0.6378    0.1190 C.ar    1  UNL1        0.0661
      9 C           2.3384   -0.7479    0.0530 C.ar    1  UNL1       -0.0146
     10 C           1.1353   -1.4742    0.0011 C.ar    1  UNL1        0.0412
     11 CL         -4.0833   -1.2115    0.3071 Cl      1  UNL1       -0.0806
     12 F          -3.4659    1.6960    0.1592 F       1  UNL1       -0.2039
     13 N           1.1518   -2.8475   -0.2806 N.pl3   1  UNL1       -0.3250
     14 O           1.3298   -5.6673   -0.7625 O.3     1  UNL1       -0.3767
     15 C           1.9347   -4.7359   -1.6748 C.3     1  UNL1        0.0634
     16 C           2.3270   -3.4186   -0.9831 C.3     1  UNL1        0.0357
     17 C           0.5881   -3.8248    0.6758 C.3     1  UNL1        0.0357
     18 C           0.1809   -5.0753   -0.1284 C.3     1  UNL1        0.0634
     19 C           3.5884    1.3937    0.1547 C.2     1  UNL1       -0.0380
     20 C           3.6700    2.7360    0.1422 C.2     1  UNL1       -0.0569
     21 C           4.9476    3.5026    0.2142 C.3     1  UNL1        0.0627
     22 O           5.0736    4.2992   -0.9519 O.3     1  UNL1       -0.3910
     23 H          -1.5376   -2.3560    0.0967 H       1  UNL1        0.0640
     24 H          -1.0403    2.5475    0.0912 H       1  UNL1        0.0668
     25 H           3.2939   -1.2589    0.0250 H       1  UNL1        0.0657
     26 H           1.2410   -4.5474   -2.5026 H       1  UNL1        0.0575
     27 H           2.8285   -5.2121   -2.0906 H       1  UNL1        0.0575
     28 H           3.1239   -3.6145   -0.2546 H       1  UNL1        0.0486
     29 H           2.7090   -2.7335   -1.7489 H       1  UNL1        0.0486
     30 H           1.3591   -4.0961    1.4084 H       1  UNL1        0.0486
     31 H          -0.2675   -3.4509    1.2397 H       1  UNL1        0.0486
     32 H          -0.2602   -5.8295    0.5300 H       1  UNL1        0.0575
     33 H          -0.5603   -4.8270   -0.9001 H       1  UNL1        0.0575
     34 H           4.4982    0.8013    0.1996 H       1  UNL1        0.0636
     35 H           2.7623    3.3354    0.0986 H       1  UNL1        0.0595
     36 H           4.9401    4.1644    1.0848 H       1  UNL1        0.0601
     37 H           5.8235    2.8510    0.2863 H       1  UNL1        0.0601
     38 H           4.9614    3.7072   -1.7145 H       1  UNL1        0.2098
@<TRIPOS>BOND
     1     1     2   ar
     2     1     6   ar
     3     1    10   ar
     4     2     3   ar
     5     3     4   ar
     6     4     5   ar
     7     5     6   ar
     8     6     7   ar
     9     7     8   ar
    10     8     9   ar
    11     9    10   ar
    12     3    11    1
    13     4    12    1
    14    10    13    1
    15    16    13    1
    16    13    17    1
    17    14    15    1
    18    14    18    1
    19    15    16    1
    20    17    18    1
    21     8    19    1
    22    19    20    2
    23    20    21    1
    24    21    22    1
    25     2    23    1
    26     5    24    1
    27     9    25    1
    28    15    26    1
    29    15    27    1
    30    16    28    1
    31    16    29    1
    32    17    30    1
    33    17    31    1
    34    18    32    1
    35    18    33    1
    36    19    34    1
    37    20    35    1
    38    21    36    1
    39    21    37    1
    40    22    38    1
