@<TRIPOS>MOLECULE
mol_83_akc_molecules27175401
>82.sdf
 54 59 0 0 0
SMALL
GASTEIGER

@<TRIPOS>ATOM
      1 N          -1.3295   -0.1541   -2.1451 N.pl3   1  UNL1       -0.3430
      2 C          -0.1313    0.1797   -1.6239 C.ar    1  UNL1        0.1227
      3 C           0.6797    1.2518   -1.9129 C.ar    1  UNL1       -0.0022
      4 C           1.8508    1.0386   -1.1739 C.ar    1  UNL1        0.0517
      5 N           1.8138   -0.0818   -0.4609 N.ar    1  UNL1       -0.1707
      6 N           0.5852   -0.6253   -0.7256 N.ar    1  UNL1       -0.1861
      7 C           0.2673   -1.9209   -0.2702 C.2     1  UNL1        0.2521
      8 O          -0.9018   -2.2387   -0.0649 O.2     1  UNL1       -0.2705
      9 C           1.4281   -2.8807   -0.4718 C.3     1  UNL1        0.0403
     10 C           2.6006   -2.8867    0.5217 C.3     1  UNL1       -0.0367
     11 C           3.6589   -3.9542    0.1363 C.3     1  UNL1        0.0050
     12 C           3.5116   -4.4053   -1.3349 C.3     1  UNL1        0.2059
     13 C           2.1165   -5.0316   -1.5435 C.3     1  UNL1        0.0050
     14 C           1.0209   -4.3402   -0.7050 C.3     1  UNL1       -0.0367
     15 O           3.6946   -3.2596   -2.1699 O.3     1  UNL1       -0.1965
     16 O           5.1404   -3.1504   -2.2270 O.3     1  UNL1       -0.1960
     17 C           5.5370   -4.5154   -2.3455 C.3     1  UNL1        0.2114
     18 O           4.5150   -5.3284   -1.7422 O.3     1  UNL1       -0.3112
     19 C           5.7267   -4.8236   -3.8510 C.3     1  UNL1        0.0168
     20 C           6.8483   -3.9145   -4.4148 C.3     1  UNL1       -0.0424
     21 C           8.1650   -4.1698   -3.6575 C.3     1  UNL1       -0.0400
     22 C           8.5622   -5.6476   -3.8247 C.3     1  UNL1       -0.0473
     23 C           7.4514   -6.5616   -3.2768 C.3     1  UNL1       -0.0400
     24 C           6.1450   -6.2877   -4.0430 C.3     1  UNL1       -0.0424
     25 C           7.2488   -6.2536   -1.7815 C.3     1  UNL1       -0.0424
     26 C           6.8548   -4.7737   -1.5949 C.3     1  UNL1        0.0168
     27 C           7.9639   -3.8719   -2.1620 C.3     1  UNL1       -0.0424
     28 H          -1.8109   -1.0202   -1.8947 H       1  UNL1        0.1437
     29 H          -1.7473    0.3588   -2.9154 H       1  UNL1        0.1437
     30 H           0.4704    2.0589   -2.5979 H       1  UNL1        0.0667
     31 H           2.7478    1.6470   -1.1396 H       1  UNL1        0.0848
     32 H           1.7882   -2.5370   -1.4481 H       1  UNL1        0.0397
     33 H           2.2449   -3.0776    1.5420 H       1  UNL1        0.0274
     34 H           3.0947   -1.9110    0.5591 H       1  UNL1        0.0274
     35 H           3.5747   -4.8270    0.7965 H       1  UNL1        0.0318
     36 H           4.6576   -3.5415    0.3247 H       1  UNL1        0.0318
     37 H           2.1306   -6.1013   -1.3022 H       1  UNL1        0.0318
     38 H           1.8441   -4.9541   -2.6035 H       1  UNL1        0.0318
     39 H           0.9234   -4.8551    0.2622 H       1  UNL1        0.0274
     40 H           0.0491   -4.4381   -1.1990 H       1  UNL1        0.0274
     41 H           4.8007   -4.6305   -4.4007 H       1  UNL1        0.0354
     42 H           6.9895   -4.1153   -5.4847 H       1  UNL1        0.0272
     43 H           6.5667   -2.8577   -4.3321 H       1  UNL1        0.0272
     44 H           8.9560   -3.5256   -4.0574 H       1  UNL1        0.0301
     45 H           8.7429   -5.8686   -4.8834 H       1  UNL1        0.0271
     46 H           9.5012   -5.8441   -3.2925 H       1  UNL1        0.0271
     47 H           7.7376   -7.6109   -3.4045 H       1  UNL1        0.0301
     48 H           5.3493   -6.9570   -3.6954 H       1  UNL1        0.0272
     49 H           6.2874   -6.4956   -5.1114 H       1  UNL1        0.0272
     50 H           6.4749   -6.9120   -1.3679 H       1  UNL1        0.0272
     51 H           8.1701   -6.4657   -1.2269 H       1  UNL1        0.0272
     52 H           6.7277   -4.5642   -0.5266 H       1  UNL1        0.0354
     53 H           8.8980   -4.0461   -1.6139 H       1  UNL1        0.0272
     54 H           7.7085   -2.8150   -2.0189 H       1  UNL1        0.0272
@<TRIPOS>BOND
     1     1    28    1
     2     1    29    1
     3     2     1    1
     4     3     2   ar
     5     3    30    1
     6     4     3   ar
     7     4    31    1
     8     5     4   ar
     9     6     5   ar
    10     6     2   ar
    11     7     6   am
    12     8     7    2
    13    10     9    1
    14    10    33    1
    15    10    34    1
    16    11    10    1
    17    11    35    1
    18    11    36    1
    19    12    11    1
    20    13    12    1
    21    13    37    1
    22    13    38    1
    23    14    13    1
    24    14     9    1
    25    14    39    1
    26    14    40    1
    27    15    12    1
    28    16    15    1
    29    17    16    1
    30    18    17    1
    31    18    12    1
    32    19    17    1
    33    19    41    1
    34    20    19    1
    35    20    42    1
    36    20    43    1
    37    21    20    1
    38    21    44    1
    39    22    21    1
    40    22    45    1
    41    22    46    1
    42    23    22    1
    43    23    47    1
    44    24    23    1
    45    24    19    1
    46    24    48    1
    47    24    49    1
    48    25    23    1
    49    25    50    1
    50    25    51    1
    51    26    25    1
    52    26    17    1
    53    26    52    1
    54    27    26    1
    55    27    21    1
    56    27    53    1
    57    27    54    1
    58     9    32    1
    59     9     7    1
