@<TRIPOS>MOLECULE
mol_840_akc_acsjmedchem5b00515
N-(3-chloro-4-((3-fluorobenzyl)oxy)phenyl)-7-(4-((4-methyl-1,4-diazepan-1-yl)sulfonyl)phenyl)cinnolin-4-amine
 75 80 0 0 0
SMALL
GASTEIGER

@<TRIPOS>ATOM
      1 C          -2.3666    0.5230   -0.3371 C.ar    1  UNL1       -0.0533
      2 C          -2.3314   -0.8746   -0.2328 C.ar    1  UNL1       -0.0158
      3 C          -1.0651   -1.4781   -0.1407 C.ar    1  UNL1       -0.0262
      4 C           0.1198   -0.7410   -0.0887 C.ar    1  UNL1        0.0957
      5 N           1.2997   -1.3731    0.0142 N.ar    1  UNL1       -0.1491
      6 N           2.4690   -0.6728    0.1183 N.ar    1  UNL1       -0.1552
      7 C           2.4300    0.6720    0.1455 C.ar    1  UNL1        0.0717
      8 C           1.2507    1.3951    0.0279 C.ar    1  UNL1        0.0607
      9 C           0.0553    0.6631   -0.1111 C.ar    1  UNL1        0.0248
     10 C          -1.1983    1.2808   -0.2746 C.ar    1  UNL1       -0.0501
     11 N           1.2088    2.8032    0.2483 N.pl3   1  UNL1       -0.3127
     12 C          -3.5907   -1.6472   -0.1314 C.ar    1  UNL1       -0.0177
     13 C          -4.7439   -1.2595   -0.8445 C.ar    1  UNL1       -0.0522
     14 C          -5.9890   -1.8423   -0.5906 C.ar    1  UNL1       -0.0348
     15 C          -6.0869   -2.8488    0.3662 C.ar    1  UNL1        0.1055
     16 C          -4.9515   -3.3136    1.0301 C.ar    1  UNL1       -0.0348
     17 C          -3.7141   -2.7148    0.7784 C.ar    1  UNL1       -0.0522
     18 S          -7.6751   -3.4599    0.8646 S.O2    1  UNL1        0.0609
     19 O          -7.7281   -3.3323    2.3060 O.2     1  UNL1       -0.1528
     20 O          -8.6891   -2.8599    0.0225 O.2     1  UNL1       -0.1528
     21 C          -7.6336   -5.3840   -1.0066 C.3     1  UNL1        0.0217
     22 N          -7.5951   -5.1229    0.4616 N.3     1  UNL1       -0.1753
     23 C          -8.6125   -5.9368    1.1945 C.3     1  UNL1        0.0332
     24 C          -8.0528   -7.3079    1.6221 C.3     1  UNL1        0.0130
     25 N          -7.3744   -8.1424    0.6158 N.3     1  UNL1       -0.3040
     26 C          -7.8323   -7.9420   -0.7554 C.3     1  UNL1       -0.0001
     27 C          -7.0972   -6.7575   -1.3841 C.3     1  UNL1       -0.0257
     28 C          -7.4054   -9.5499    1.0065 C.3     1  UNL1       -0.0127
     29 C           2.1733    3.7491   -0.1662 C.ar    1  UNL1        0.0330
     30 C           2.4401    4.8754    0.6187 C.ar    1  UNL1       -0.0186
     31 C           3.3329    5.8579    0.1747 C.ar    1  UNL1        0.0843
     32 C           3.9509    5.7489   -1.0797 C.ar    1  UNL1        0.1393
     33 C           3.6861    4.6255   -1.8628 C.ar    1  UNL1       -0.0167
     34 C           2.7995    3.6426   -1.4150 C.ar    1  UNL1       -0.0370
     35 O           4.8373    6.7255   -1.4495 O.3     1  UNL1       -0.4859
     36 C           4.8500    7.0850   -2.8361 C.3     1  UNL1        0.1148
     37 C           5.9366    6.3904   -3.6281 C.ar    1  UNL1       -0.0077
     38 C           7.1192    5.9474   -3.0195 C.ar    1  UNL1       -0.0201
     39 C           8.1236    5.3671   -3.7881 C.ar    1  UNL1        0.1238
     40 C           7.9830    5.2221   -5.1628 C.ar    1  UNL1       -0.0264
     41 C           6.8134    5.6577   -5.7815 C.ar    1  UNL1       -0.0587
     42 C           5.7968    6.2407   -5.0187 C.ar    1  UNL1       -0.0552
     43 F           9.2497    4.9500   -3.1945 F       1  UNL1       -0.2055
     44 CL          3.6194    7.2204    1.2001 Cl      1  UNL1       -0.0797
     45 H          -3.3132    1.0521   -0.4233 H       1  UNL1        0.0624
     46 H          -0.9820   -2.5623   -0.0817 H       1  UNL1        0.0646
     47 H           3.3903    1.1514    0.2939 H       1  UNL1        0.0867
     48 H          -1.2754    2.3633   -0.3515 H       1  UNL1        0.0625
     49 H           0.9106    2.9702    1.2089 H       1  UNL1        0.1522
     50 H          -4.6934   -0.4588   -1.5793 H       1  UNL1        0.0624
     51 H          -6.8720   -1.4716   -1.1064 H       1  UNL1        0.0637
     52 H          -5.0338   -4.1000    1.7779 H       1  UNL1        0.0637
     53 H          -2.8569   -3.0531    1.3586 H       1  UNL1        0.0624
     54 H          -8.6573   -5.2658   -1.3814 H       1  UNL1        0.0444
     55 H          -7.0140   -4.6463   -1.5283 H       1  UNL1        0.0444
     56 H          -8.9343   -5.4323    2.1121 H       1  UNL1        0.0456
     57 H          -9.5153   -6.0578    0.5857 H       1  UNL1        0.0456
     58 H          -7.3369   -7.1432    2.4363 H       1  UNL1        0.0439
     59 H          -8.8968   -7.8585    2.0590 H       1  UNL1        0.0439
     60 H          -7.5736   -8.8200   -1.3624 H       1  UNL1        0.0427
     61 H          -8.9221   -7.8400   -0.8260 H       1  UNL1        0.0427
     62 H          -7.1695   -6.8536   -2.4755 H       1  UNL1        0.0290
     63 H          -6.0264   -6.8157   -1.1473 H       1  UNL1        0.0290
     64 H          -8.4224   -9.9573    0.9901 H       1  UNL1        0.0391
     65 H          -6.7819  -10.1512    0.3352 H       1  UNL1        0.0391
     66 H          -6.9931   -9.6813    2.0131 H       1  UNL1        0.0391
     67 H           1.9610    4.9956    1.5875 H       1  UNL1        0.0652
     68 H           4.1641    4.4778   -2.8284 H       1  UNL1        0.0655
     69 H           2.5876    2.7962   -2.0628 H       1  UNL1        0.0637
     70 H           3.8618    6.9422   -3.2936 H       1  UNL1        0.0748
     71 H           5.0583    8.1609   -2.8758 H       1  UNL1        0.0748
     72 H           7.2723    6.0513   -1.9489 H       1  UNL1        0.0650
     73 H           8.7867    4.7784   -5.7410 H       1  UNL1        0.0646
     74 H           6.6964    5.5521   -6.8571 H       1  UNL1        0.0619
     75 H           4.8942    6.5848   -5.5212 H       1  UNL1        0.0621
@<TRIPOS>BOND
     1     1     2   ar
     2     2     3   ar
     3     3     4   ar
     4     4     5   ar
     5     5     6   ar
     6     6     7   ar
     7     7     8   ar
     8     8     9   ar
     9     4     9   ar
    10     9    10   ar
    11     1    10   ar
    12     8    11    1
    13    12    13   ar
    14    13    14   ar
    15    14    15   ar
    16    15    16   ar
    17    16    17   ar
    18    12    17   ar
    19    18    19    2
    20    18    20    2
    21    21    22    1
    22    22    23    1
    23    23    24    1
    24    24    25    1
    25    25    26    1
    26    26    27    1
    27    21    27    1
    28    25    28    1
    29    18    22    1
    30    15    18    1
    31     2    12    1
    32    29    30   ar
    33    30    31   ar
    34    31    32   ar
    35    32    33   ar
    36    33    34   ar
    37    29    34   ar
    38    36    37    1
    39    37    38   ar
    40    38    39   ar
    41    39    40   ar
    42    40    41   ar
    43    41    42   ar
    44    37    42   ar
    45    39    43    1
    46    35    36    1
    47    32    35    1
    48    31    44    1
    49    11    29    1
    50     1    45    1
    51     3    46    1
    52     7    47    1
    53    10    48    1
    54    11    49    1
    55    13    50    1
    56    14    51    1
    57    16    52    1
    58    17    53    1
    59    21    54    1
    60    21    55    1
    61    23    56    1
    62    23    57    1
    63    24    58    1
    64    24    59    1
    65    26    60    1
    66    26    61    1
    67    27    62    1
    68    27    63    1
    69    28    64    1
    70    28    65    1
    71    28    66    1
    72    30    67    1
    73    33    68    1
    74    34    69    1
    75    36    70    1
    76    36    71    1
    77    38    72    1
    78    40    73    1
    79    41    74    1
    80    42    75    1
