@<TRIPOS>MOLECULE
mol_841_akc_s41598_017_00848_8
*****
 87 89 0 0 0
SMALL
GASTEIGER

@<TRIPOS>ATOM
      1 C          -7.6986    4.5760   -7.7094 C.ar    1  UNL1        0.0714
      2 C          -8.4252    5.5726   -8.3525 C.ar    1  UNL1       -0.0357
      3 C          -9.3574    5.2771   -9.3510 C.ar    1  UNL1       -0.0597
      4 C          -9.5708    3.9534   -9.7234 C.ar    1  UNL1       -0.0611
      5 C          -8.8551    2.9310   -9.1144 C.ar    1  UNL1       -0.0526
      6 C          -7.9084    3.2442   -8.1139 C.ar    1  UNL1        0.0004
      7 C          -7.1771    2.2478   -7.4584 C.ar    1  UNL1       -0.0508
      8 C          -6.2730    2.5916   -6.4565 C.ar    1  UNL1       -0.0375
      9 C          -6.1358    3.9319   -6.1174 C.ar    1  UNL1        0.0675
     10 N          -6.8247    4.9173   -6.7479 N.ar    1  UNL1       -0.2493
     11 C          -5.1423    4.3656   -5.0626 C.3     1  UNL1        0.0897
     12 O          -5.1268    3.4694   -3.9410 O.3     1  UNL1       -0.3719
     13 C          -4.2120    3.9412   -2.9491 C.3     1  UNL1        0.0677
     14 C          -4.0925    2.9283   -1.8157 C.3     1  UNL1        0.0665
     15 N          -3.0037    3.2944   -0.9399 N.ar    1  UNL1       -0.2492
     16 N          -0.9919    3.9208   -0.5383 N.ar    1  UNL1       -0.1327
     17 N          -1.7313    3.1847   -1.3522 N.ar    1  UNL1       -0.0653
     18 C          -3.0763    3.9781    0.2291 C.ar    1  UNL1        0.0505
     19 C          -1.7958    4.4693    0.4414 C.ar    1  UNL1        0.1133
     20 C          -1.2414    5.4804    1.4979 C.3     1  UNL1        0.2276
     21 P          -1.9418    5.1761    3.1610 P.3     1  UNL1        0.3579
     22 C           0.2761    5.5014    1.5833 C.3     1  UNL1        0.0425
     23 O          -3.3807    5.3787    2.7046 O.2     1  UNL1       -0.2568
     24 O          -1.6387    3.5574    3.1769 O.3     1  UNL1       -0.3041
     25 O          -2.6039    4.8883    4.7331 O.3     1  UNL1       -0.3041
     26 C          -0.9619    2.5245    2.5061 C.3     1  UNL1        0.0624
     27 C           0.3232    2.1951    3.2472 C.3     1  UNL1       -0.0385
     28 C          -1.8979    1.3076    2.4815 C.3     1  UNL1       -0.0385
     29 C          -3.3343    3.6936    5.0768 C.3     1  UNL1        0.0624
     30 C          -3.8216    3.8210    6.5178 C.3     1  UNL1       -0.0385
     31 C          -4.5293    3.3745    4.1767 C.3     1  UNL1       -0.0385
     32 C           0.8584    5.7301    0.1980 C.1     1  UNL1       -0.1034
     33 C           1.3579    5.9263   -0.9903 C.1     1  UNL1       -0.1191
     34 P          -1.8393    7.0919    0.8698 P.3     1  UNL1        0.3579
     35 O          -3.2686    6.6207    0.6461 O.2     1  UNL1       -0.2568
     36 O          -1.5664    7.9175    2.3558 O.3     1  UNL1       -0.3041
     37 O          -2.4045    8.6153    0.2760 O.3     1  UNL1       -0.3041
     38 C          -2.3696    8.1951    3.5627 C.3     1  UNL1        0.0624
     39 C          -1.3349    8.2832    4.6985 C.3     1  UNL1       -0.0385
     40 C          -3.1675    9.5195    3.8110 C.3     1  UNL1       -0.0385
     41 C          -3.3871    9.4854    0.7830 C.3     1  UNL1        0.0624
     42 C          -3.6167   10.6545   -0.1734 C.3     1  UNL1       -0.0385
     43 C          -4.7345    8.8368    1.1016 C.3     1  UNL1       -0.0385
     44 H          -8.2623    6.6105   -8.0596 H       1  UNL1        0.0639
     45 H          -9.9139    6.0807   -9.8271 H       1  UNL1        0.0618
     46 H         -10.3022    3.7150  -10.4920 H       1  UNL1        0.0618
     47 H          -9.0299    1.9029   -9.3930 H       1  UNL1        0.0624
     48 H          -7.3033    1.1995   -7.7262 H       1  UNL1        0.0625
     49 H          -5.6939    1.8264   -5.9451 H       1  UNL1        0.0636
     50 H          -4.1466    4.3952   -5.5200 H       1  UNL1        0.0625
     51 H          -5.4025    5.3731   -4.7138 H       1  UNL1        0.0625
     52 H          -3.2345    4.1071   -3.4176 H       1  UNL1        0.0578
     53 H          -4.5693    4.9002   -2.5545 H       1  UNL1        0.0578
     54 H          -5.0192    2.8892   -1.2306 H       1  UNL1        0.0532
     55 H          -3.9047    1.9174   -2.1919 H       1  UNL1        0.0532
     56 H          -4.0207    4.1779    0.7183 H       1  UNL1        0.0846
     57 H           0.6127    6.3070    2.2452 H       1  UNL1        0.0419
     58 H           0.6902    4.5737    1.9791 H       1  UNL1        0.0419
     59 H          -0.6886    2.7476    1.4856 H       1  UNL1        0.0595
     60 H           0.6058    2.9905    3.9447 H       1  UNL1        0.0255
     61 H           0.2527    1.2564    3.8062 H       1  UNL1        0.0255
     62 H           1.1382    2.0715    2.5247 H       1  UNL1        0.0255
     63 H          -2.7226    1.4653    1.7765 H       1  UNL1        0.0255
     64 H          -1.3770    0.3916    2.1874 H       1  UNL1        0.0255
     65 H          -2.3652    1.1407    3.4590 H       1  UNL1        0.0255
     66 H          -2.6333    2.8531    5.0763 H       1  UNL1        0.0595
     67 H          -4.7225    4.4405    6.5801 H       1  UNL1        0.0255
     68 H          -4.0686    2.8313    6.9196 H       1  UNL1        0.0255
     69 H          -3.0610    4.2780    7.1573 H       1  UNL1        0.0255
     70 H          -4.2202    3.1470    3.1528 H       1  UNL1        0.0255
     71 H          -5.0763    2.4996    4.5425 H       1  UNL1        0.0255
     72 H          -5.2238    4.2202    4.1273 H       1  UNL1        0.0255
     73 H           1.7579    6.0644   -1.9690 H       1  UNL1        0.1228
     74 H          -3.0730    7.3985    3.7334 H       1  UNL1        0.0595
     75 H          -1.7273    8.8107    5.5741 H       1  UNL1        0.0255
     76 H          -0.4469    8.8315    4.3660 H       1  UNL1        0.0255
     77 H          -1.0206    7.2893    5.0287 H       1  UNL1        0.0255
     78 H          -3.7160    9.4228    4.7574 H       1  UNL1        0.0255
     79 H          -2.5109   10.3924    3.9041 H       1  UNL1        0.0255
     80 H          -3.9655    9.7898    3.1280 H       1  UNL1        0.0255
     81 H          -2.9040    9.9770    1.6125 H       1  UNL1        0.0595
     82 H          -4.0638   10.3239   -1.1111 H       1  UNL1        0.0255
     83 H          -4.2754   11.3995    0.2932 H       1  UNL1        0.0255
     84 H          -2.6694   11.1464   -0.4129 H       1  UNL1        0.0255
     85 H          -4.6559    8.0634    1.8744 H       1  UNL1        0.0255
     86 H          -5.4549    9.5771    1.4655 H       1  UNL1        0.0255
     87 H          -5.1600    8.3604    0.2126 H       1  UNL1        0.0255
@<TRIPOS>BOND
     1     1     2   ar
     2     2     3   ar
     3     3     4   ar
     4     4     5   ar
     5     5     6   ar
     6     7     8   ar
     7     8     9   ar
     8     9    10   ar
     9     1     6   ar
    10     1    10   ar
    11     6     7   ar
    12     9    11    1
    13    11    12    1
    14    12    13    1
    15    13    14    1
    16    14    15    1
    17    17    15   ar
    18    15    18   ar
    19    16    17   ar
    20    18    19   ar
    21    16    19   ar
    22    19    20    1
    23    20    21    1
    24    20    22    1
    25    21    23    2
    26    21    24    1
    27    21    25    1
    28    24    26    1
    29    26    27    1
    30    26    28    1
    31    25    29    1
    32    29    30    1
    33    29    31    1
    34    22    32    1
    35    32    33    3
    36    20    34    1
    37    34    35    2
    38    34    36    1
    39    34    37    1
    40    36    38    1
    41    38    39    1
    42    38    40    1
    43    37    41    1
    44    41    42    1
    45    41    43    1
    46     2    44    1
    47     3    45    1
    48     4    46    1
    49     5    47    1
    50     7    48    1
    51     8    49    1
    52    11    50    1
    53    11    51    1
    54    13    52    1
    55    13    53    1
    56    14    54    1
    57    14    55    1
    58    18    56    1
    59    22    57    1
    60    22    58    1
    61    26    59    1
    62    27    60    1
    63    27    61    1
    64    27    62    1
    65    28    63    1
    66    28    64    1
    67    28    65    1
    68    29    66    1
    69    30    67    1
    70    30    68    1
    71    30    69    1
    72    31    70    1
    73    31    71    1
    74    31    72    1
    75    33    73    1
    76    38    74    1
    77    39    75    1
    78    39    76    1
    79    39    77    1
    80    40    78    1
    81    40    79    1
    82    40    80    1
    83    41    81    1
    84    42    82    1
    85    42    83    1
    86    42    84    1
    87    43    85    1
    88    43    86    1
    89    43    87    1
