@<TRIPOS>MOLECULE
mol_842_akc_bcpt12990
*****
 18 19 0 0 0
SMALL
GASTEIGER

@<TRIPOS>ATOM
      1 C          -0.0109   -0.7003   -0.0409 C.ar    1  UNL1        0.1146
      2 C           1.2215   -1.3711   -0.0505 C.ar    1  UNL1        0.1558
      3 C           2.4388   -0.6808   -0.0324 C.ar    1  UNL1        0.0583
      4 C           2.4488    0.7062    0.0109 C.ar    1  UNL1       -0.0260
      5 C           1.2372    1.3975    0.0293 C.ar    1  UNL1        0.0513
      6 C          -0.0044    0.7142   -0.0035 C.ar    1  UNL1        0.0223
      7 C          -1.2601    1.3644   -0.0054 C.ar    1  UNL1       -0.0496
      8 C          -2.4407    0.6344   -0.0480 C.ar    1  UNL1       -0.0430
      9 C          -2.3427   -0.7372   -0.0792 C.ar    1  UNL1        0.0284
     10 N          -1.1686   -1.3993   -0.0736 N.ar    1  UNL1       -0.2512
     11 O           1.2079   -2.7500   -0.0829 O.3     1  UNL1       -0.5036
     12 I           4.2702   -1.6879   -0.0816 I       1  UNL1       -0.0399
     13 CL          1.3311    3.1281    0.0877 Cl      1  UNL1       -0.0828
     14 H           3.3859    1.2570    0.0277 H       1  UNL1        0.0644
     15 H          -1.3297    2.4495    0.0199 H       1  UNL1        0.0625
     16 H          -3.4071    1.1257   -0.0580 H       1  UNL1        0.0633
     17 H          -3.2275   -1.3662   -0.1132 H       1  UNL1        0.0830
     18 H           2.1264   -3.0675   -0.0807 H       1  UNL1        0.2923
@<TRIPOS>BOND
     1     1     2   ar
     2     2     3   ar
     3     3     4   ar
     4     4     5   ar
     5     5     6   ar
     6     7     8   ar
     7     8     9   ar
     8     9    10   ar
     9     1     6   ar
    10     1    10   ar
    11     6     7   ar
    12     2    11    1
    13     3    12    1
    14     5    13    1
    15     4    14    1
    16     7    15    1
    17     8    16    1
    18     9    17    1
    19    11    18    1
