@<TRIPOS>MOLECULE
mol_843_akc_jbiopha201101003
*****
 41 42 0 0 0
SMALL
GASTEIGER

@<TRIPOS>ATOM
      1 C          -2.4995    0.0417   -2.6555 C.ar    1  UNL1        0.0741
      2 C          -3.1487    0.9365   -3.4932 C.ar    1  UNL1       -0.0173
      3 C          -4.4904    1.2521   -3.3155 C.ar    1  UNL1        0.0430
      4 C          -5.1972    0.7070   -2.2580 C.ar    1  UNL1       -0.0426
      5 C          -4.5542   -0.1792   -1.3959 C.ar    1  UNL1       -0.0494
      6 C          -3.2131   -0.5889   -1.6035 C.ar    1  UNL1        0.0213
      7 C          -2.5138   -1.5617   -0.8315 C.ar    1  UNL1        0.0380
      8 C          -1.1385   -1.7101   -1.0509 C.ar    1  UNL1       -0.0221
      9 C          -0.5346   -1.0086   -2.0727 C.ar    1  UNL1        0.0300
     10 N          -1.2006   -0.1746   -2.8889 N.ar    1  UNL1       -0.2548
     11 CL         -5.2748    2.3430   -4.3857 Cl      1  UNL1       -0.0835
     12 N          -3.0367   -2.3613    0.1956 N.pl3   1  UNL1       -0.3382
     13 C          -4.3851   -2.9234    0.2216 C.3     1  UNL1        0.0493
     14 C          -4.7760   -3.6634   -1.0854 C.3     1  UNL1       -0.0126
     15 N          -6.2789   -4.0831   -1.1826 N.4     1  UNL1        0.2597
     16 C          -6.6382   -4.9832   -0.0045 C.3     1  UNL1       -0.0393
     17 C          -7.1913   -2.8437   -1.2193 C.3     1  UNL1        0.0333
     18 C          -6.4684   -4.9132   -2.4812 C.3     1  UNL1        0.0333
     19 C          -8.6148   -3.1950   -1.2701 C.1     1  UNL1       -0.0561
     20 C          -9.7856   -3.4651   -1.2764 C.1     1  UNL1       -0.1140
     21 C          -6.1035   -4.1528   -3.6851 C.1     1  UNL1       -0.0561
     22 C          -5.7903   -3.5388   -4.6655 C.1     1  UNL1       -0.1140
     23 H          -2.5850    1.4045   -4.2972 H       1  UNL1        0.0653
     24 H          -6.2334    0.9860   -2.0851 H       1  UNL1        0.0632
     25 H          -5.1105   -0.5015   -0.5289 H       1  UNL1        0.0625
     26 H          -0.5429   -2.3903   -0.4496 H       1  UNL1        0.0651
     27 H           0.5285   -1.1093   -2.2761 H       1  UNL1        0.0830
     28 H          -2.7457   -1.9804    1.1007 H       1  UNL1        0.1463
     29 H          -4.4026   -3.6492    1.0427 H       1  UNL1        0.0514
     30 H          -5.1023   -2.1593    0.5149 H       1  UNL1        0.0514
     31 H          -4.5672   -3.0461   -1.9614 H       1  UNL1        0.0831
     32 H          -4.1869   -4.5853   -1.1715 H       1  UNL1        0.0831
     33 H          -6.5794   -4.3981    0.9170 H       1  UNL1        0.0779
     34 H          -7.6522   -5.3702   -0.1374 H       1  UNL1        0.0779
     35 H          -5.9286   -5.8157    0.0220 H       1  UNL1        0.0779
     36 H          -7.0066   -2.2744   -0.3045 H       1  UNL1        0.0960
     37 H          -6.8959   -2.2248   -2.0716 H       1  UNL1        0.0960
     38 H          -5.8388   -5.8039   -2.3818 H       1  UNL1        0.0960
     39 H          -7.5128   -5.2408   -2.5219 H       1  UNL1        0.0960
     40 H         -10.8302   -3.6894   -1.2670 H       1  UNL1        0.1230
     41 H          -5.5008   -3.0002   -5.5428 H       1  UNL1        0.1230
@<TRIPOS>UNITY_ATOM_ATTR
15 1
charge 1
@<TRIPOS>BOND
     1     1     2   ar
     2     2     3   ar
     3     3     4   ar
     4     4     5   ar
     5     5     6   ar
     6     7     8   ar
     7     8     9   ar
     8     9    10   ar
     9     1     6   ar
    10     1    10   ar
    11     6     7   ar
    12     3    11    1
    13     7    12    1
    14    12    13    1
    15    13    14    1
    16    14    15    1
    17    15    16    1
    18    15    17    1
    19    15    18    1
    20    17    19    1
    21    19    20    3
    22    18    21    1
    23    21    22    3
    24     2    23    1
    25     4    24    1
    26     5    25    1
    27     8    26    1
    28     9    27    1
    29    12    28    1
    30    13    29    1
    31    13    30    1
    32    14    31    1
    33    14    32    1
    34    16    33    1
    35    16    34    1
    36    16    35    1
    37    17    36    1
    38    17    37    1
    39    18    38    1
    40    18    39    1
    41    20    40    1
    42    22    41    1
