@<TRIPOS>MOLECULE
mol_845_akc_acsmedchemlett9b00453
*****
 55 59 0 0 0
SMALL
GASTEIGER

@<TRIPOS>ATOM
      1 C           0.0436   -0.9103   -0.1020 C.ar    1  UNL1        0.0216
      2 C           0.0753    0.3208    0.5862 C.ar    1  UNL1       -0.0502
      3 C           1.2219    1.1212    0.5817 C.ar    1  UNL1       -0.0532
      4 C           2.3830    0.7127   -0.0866 C.ar    1  UNL1       -0.0129
      5 C           2.3289   -0.5201   -0.7644 C.ar    1  UNL1       -0.0279
      6 C           1.1956   -1.3227   -0.7993 C.ar    1  UNL1        0.0733
      7 N           1.2574   -2.4662   -1.4970 N.ar    1  UNL1       -0.2548
      8 C           0.1598   -3.2444   -1.5388 C.ar    1  UNL1        0.0300
      9 C          -1.0146   -2.9460   -0.8810 C.ar    1  UNL1       -0.0217
     10 C          -1.0761   -1.7788   -0.1150 C.ar    1  UNL1        0.0431
     11 N          -2.2580   -1.4305    0.5864 N.pl3   1  UNL1       -0.2977
     12 C          -3.2246   -2.3022    1.1079 C.ar    1  UNL1        0.1412
     13 N          -3.8075   -4.3775    2.2295 N.ar    1  UNL1       -0.2583
     14 C          -2.8915   -3.5087    1.7315 C.ar    1  UNL1        0.0676
     15 N          -4.5147   -1.9142    1.0144 N.ar    1  UNL1       -0.2371
     16 C          -5.4330   -2.7729    1.5211 C.ar    1  UNL1        0.0478
     17 C          -5.0890   -3.9789    2.1071 C.ar    1  UNL1        0.0458
     18 C           3.6189    1.5131   -0.0632 C.ar    1  UNL1        0.0185
     19 C           4.5463    1.5351   -1.0875 C.ar    1  UNL1        0.0403
     20 N           5.7226    2.2024   -1.0575 N.ar    1  UNL1       -0.2222
     21 C           6.0102    2.9094    0.0430 C.ar    1  UNL1        0.2178
     22 N           5.1580    2.9962    1.0755 N.ar    1  UNL1       -0.2222
     23 C           4.0029    2.3001    1.0035 C.ar    1  UNL1        0.0403
     24 N           7.2606    3.4673    0.1770 N.pl3   1  UNL1       -0.2971
     25 C           7.4321    4.5343    1.1633 C.3     1  UNL1        0.0293
     26 C           8.9046    4.5760    1.6189 C.3     1  UNL1        0.0360
     27 N           9.8775    4.6543    0.4772 N.3     1  UNL1       -0.1784
     28 C           9.6031    3.5590   -0.5206 C.3     1  UNL1        0.0360
     29 C           8.1357    3.5489   -0.9948 C.3     1  UNL1        0.0293
     30 S          10.1570    6.1802   -0.2016 S.O2    1  UNL1        0.0291
     31 O          11.1006    6.0144   -1.2864 O.2     1  UNL1       -0.1583
     32 O           8.8831    6.8263   -0.4161 O.2     1  UNL1       -0.1583
     33 C          11.0051    7.0251    1.1204 C.3     1  UNL1        0.0707
     34 H          -0.7961    0.6657    1.1392 H       1  UNL1        0.0625
     35 H           1.1846    2.0698    1.1136 H       1  UNL1        0.0624
     36 H           3.2101   -0.9017   -1.2791 H       1  UNL1        0.0645
     37 H           0.2529   -4.1456   -2.1381 H       1  UNL1        0.0830
     38 H          -1.8622   -3.6148   -0.9791 H       1  UNL1        0.0651
     39 H          -2.7491   -0.6522    0.1519 H       1  UNL1        0.1536
     40 H          -1.8571   -3.8136    1.8486 H       1  UNL1        0.0865
     41 H          -6.4685   -2.4609    1.4406 H       1  UNL1        0.0846
     42 H          -5.8394   -4.6577    2.4976 H       1  UNL1        0.0845
     43 H           4.3857    0.9857   -2.0117 H       1  UNL1        0.0837
     44 H           3.3918    2.3859    1.8976 H       1  UNL1        0.0837
     45 H           7.1234    5.4912    0.7310 H       1  UNL1        0.0478
     46 H           6.8268    4.3780    2.0626 H       1  UNL1        0.0478
     47 H           9.1353    3.6575    2.1751 H       1  UNL1        0.0459
     48 H           9.0592    5.3995    2.3206 H       1  UNL1        0.0459
     49 H           9.8347    2.6048   -0.0272 H       1  UNL1        0.0459
     50 H          10.2840    3.6305   -1.3745 H       1  UNL1        0.0459
     51 H           8.0168    2.6893   -1.6637 H       1  UNL1        0.0478
     52 H           7.9092    4.4534   -1.5709 H       1  UNL1        0.0478
     53 H          10.3265    7.1622    1.9627 H       1  UNL1        0.0479
     54 H          11.8821    6.4444    1.4086 H       1  UNL1        0.0479
     55 H          11.3144    8.0026    0.7449 H       1  UNL1        0.0479
@<TRIPOS>BOND
     1     1     2   ar
     2     2     3   ar
     3     3     4   ar
     4     4     5   ar
     5     5     6   ar
     6     7     8   ar
     7     8     9   ar
     8     9    10   ar
     9     1     6   ar
    10     1    10   ar
    11     6     7   ar
    12    10    11    1
    13    11    12    1
    14    14    12   ar
    15    12    15   ar
    16    13    14   ar
    17    15    16   ar
    18    16    17   ar
    19    13    17   ar
    20     4    18    1
    21    23    18   ar
    22    19    18   ar
    23    19    20   ar
    24    20    21   ar
    25    21    22   ar
    26    22    23   ar
    27    21    24    1
    28    29    24    1
    29    25    24    1
    30    25    26    1
    31    26    27    1
    32    27    28    1
    33    28    29    1
    34    27    30    1
    35    30    31    2
    36    30    32    2
    37    30    33    1
    38     2    34    1
    39     3    35    1
    40     5    36    1
    41     8    37    1
    42     9    38    1
    43    11    39    1
    44    14    40    1
    45    16    41    1
    46    17    42    1
    47    19    43    1
    48    23    44    1
    49    25    45    1
    50    25    46    1
    51    26    47    1
    52    26    48    1
    53    28    49    1
    54    28    50    1
    55    29    51    1
    56    29    52    1
    57    33    53    1
    58    33    54    1
    59    33    55    1
