@<TRIPOS>MOLECULE
mol_846_akc_jhet4414
Methyl 4-(7-fluoro-8-methyl-3-([4-phenyl-1H-1,2,3-triazol-1-yl]methyl)quinolin-2-yl)piperazine-1-carboxylate
 59 63 0 0 0
SMALL
GASTEIGER

@<TRIPOS>ATOM
      1 C           0.9596    1.0771    0.1793 C.3     1  UNL1        0.0336
      2 C           0.0296    0.1195    0.9249 C.3     1  UNL1        0.0295
      3 N          -1.3206    0.1111    0.3525 N.pl3   1  UNL1       -0.3119
      4 C          -1.3670   -0.1317   -1.1058 C.3     1  UNL1        0.0295
      5 C          -0.3806    0.7928   -1.8646 C.3     1  UNL1        0.0336
      6 N           0.9517    0.8134   -1.2509 N.am    1  UNL1       -0.2645
      7 C           2.1006    0.7604   -2.0069 C.2     1  UNL1        0.4027
      8 O           2.1220    0.6461   -3.2300 O.2     1  UNL1       -0.2263
      9 O           3.2217    0.8388   -1.2388 O.3     1  UNL1       -0.4535
     10 C          -7.0027    1.6490    1.5423 C.ar    1  UNL1        0.1283
     11 C          -5.8682    1.4476    0.7381 C.ar    1  UNL1        0.0107
     12 C          -4.7450    0.7681    1.2464 C.ar    1  UNL1        0.0787
     13 C          -4.8585    0.2543    2.5488 C.ar    1  UNL1        0.0013
     14 C          -6.0114    0.4280    3.3301 C.ar    1  UNL1       -0.0498
     15 C          -7.0795    1.1519    2.8337 C.ar    1  UNL1       -0.0255
     16 C          -3.7805   -0.4429    3.0718 C.ar    1  UNL1       -0.0443
     17 C          -2.5787   -0.5725    2.3604 C.ar    1  UNL1        0.0144
     18 C          -2.4828    0.0224    1.0925 C.ar    1  UNL1        0.1270
     19 N          -3.5837    0.6185    0.5488 N.ar    1  UNL1       -0.2313
     20 C          -1.5133   -1.3890    3.0560 C.3     1  UNL1        0.0714
     21 N          -1.0401   -2.5198    2.2840 N.ar    1  UNL1       -0.2467
     22 N           0.2291   -2.9445    2.4421 N.ar    1  UNL1       -0.0648
     23 N           0.3849   -4.0145    1.6741 N.ar    1  UNL1       -0.1295
     24 C          -0.8095   -4.2675    1.0535 C.ar    1  UNL1        0.1126
     25 C          -1.7386   -3.3352    1.4470 C.ar    1  UNL1        0.0537
     26 C          -1.0599   -5.3925    0.1841 C.ar    1  UNL1        0.0036
     27 C          -0.4123   -6.6073    0.4305 C.ar    1  UNL1       -0.0525
     28 C          -0.6744   -7.7192   -0.3693 C.ar    1  UNL1       -0.0611
     29 C          -1.5749   -7.6177   -1.4293 C.ar    1  UNL1       -0.0617
     30 C          -2.2159   -6.4072   -1.6899 C.ar    1  UNL1       -0.0611
     31 C          -1.9613   -5.2963   -0.8847 C.ar    1  UNL1       -0.0525
     32 C          -5.8845    1.9595   -0.6735 C.3     1  UNL1       -0.0349
     33 F          -8.0485    2.3444    1.0738 F       1  UNL1       -0.2051
     34 C           4.4611    0.7702   -1.9371 C.3     1  UNL1        0.0833
     35 H           0.6314    2.1143    0.3208 H       1  UNL1        0.0481
     36 H           1.9611    0.9897    0.6091 H       1  UNL1        0.0481
     37 H           0.0293    0.4568    1.9614 H       1  UNL1        0.0480
     38 H           0.4575   -0.8828    0.8549 H       1  UNL1        0.0480
     39 H          -1.0748   -1.1760   -1.2835 H       1  UNL1        0.0480
     40 H          -2.3686   -0.0054   -1.5306 H       1  UNL1        0.0480
     41 H          -0.7541    1.8238   -1.8376 H       1  UNL1        0.0481
     42 H          -0.3151    0.4914   -2.9153 H       1  UNL1        0.0481
     43 H          -6.0703    0.0209    4.3378 H       1  UNL1        0.0625
     44 H          -7.9665    1.3280    3.4349 H       1  UNL1        0.0646
     45 H          -3.8721   -0.8871    4.0631 H       1  UNL1        0.0628
     46 H          -0.6686   -0.7704    3.3632 H       1  UNL1        0.0560
     47 H          -1.8994   -1.8323    3.9826 H       1  UNL1        0.0560
     48 H          -2.7852   -3.1965    1.2228 H       1  UNL1        0.0849
     49 H           0.2864   -6.6972    1.2604 H       1  UNL1        0.0624
     50 H          -0.1782   -8.6631   -0.1621 H       1  UNL1        0.0618
     51 H          -1.7776   -8.4847   -2.0532 H       1  UNL1        0.0618
     52 H          -2.9138   -6.3280   -2.5195 H       1  UNL1        0.0618
     53 H          -2.4651   -4.3588   -1.1065 H       1  UNL1        0.0624
     54 H          -5.0678    2.6689   -0.8405 H       1  UNL1        0.0279
     55 H          -5.7997    1.1244   -1.3766 H       1  UNL1        0.0279
     56 H          -6.8214    2.4792   -0.9041 H       1  UNL1        0.0279
     57 H           4.5198   -0.1408   -2.5404 H       1  UNL1        0.0661
     58 H           4.5945    1.6616   -2.5551 H       1  UNL1        0.0661
     59 H           5.2644    0.7411   -1.1940 H       1  UNL1        0.0661
@<TRIPOS>BOND
     1     1     2    1
     2     2     3    1
     3     3     4    1
     4     4     5    1
     5     5     6    1
     6     1     6    1
     7     7     8    2
     8     7     9    1
     9     6     7   am
    10    10    11   ar
    11    11    12   ar
    12    12    13   ar
    13    13    14   ar
    14    14    15   ar
    15    10    15   ar
    16    13    16   ar
    17    16    17   ar
    18    17    18   ar
    19    18    19   ar
    20    12    19   ar
    21    21    22   ar
    22    22    23   ar
    23    23    24   ar
    24    24    25   ar
    25    21    25   ar
    26    26    27   ar
    27    27    28   ar
    28    28    29   ar
    29    29    30   ar
    30    30    31   ar
    31    26    31   ar
    32    24    26    1
    33    20    21    1
    34    17    20    1
    35    11    32    1
    36    10    33    1
    37     3    18    1
    38     9    34    1
    39     1    35    1
    40     1    36    1
    41     2    37    1
    42     2    38    1
    43     4    39    1
    44     4    40    1
    45     5    41    1
    46     5    42    1
    47    14    43    1
    48    15    44    1
    49    16    45    1
    50    20    46    1
    51    20    47    1
    52    25    48    1
    53    27    49    1
    54    28    50    1
    55    29    51    1
    56    30    52    1
    57    31    53    1
    58    32    54    1
    59    32    55    1
    60    32    56    1
    61    34    57    1
    62    34    58    1
    63    34    59    1
