@<TRIPOS>MOLECULE
mol_848_akc_jejmech2024116256
*****
 64 68 0 0 0
SMALL
GASTEIGER

@<TRIPOS>ATOM
      1 C          -1.3111    1.3806    0.0821 C.ar    1  UNL1        0.1343
      2 N          -2.4239    0.6541    0.2467 N.ar    1  UNL1       -0.1989
      3 C          -2.2850   -0.6758    0.3541 C.ar    1  UNL1        0.2177
      4 N          -1.1148   -1.3214    0.2731 N.ar    1  UNL1       -0.2143
      5 C          -0.0017   -0.5988    0.1577 C.ar    1  UNL1        0.0816
      6 C          -0.0369    0.7858    0.0788 C.ar    1  UNL1        0.0441
      7 C           1.1642    1.4981   -0.0824 C.ar    1  UNL1       -0.0038
      8 C           1.2450   -1.2227    0.0899 C.ar    1  UNL1        0.0099
      9 C           2.4511   -0.5247   -0.1319 C.ar    1  UNL1        0.1643
     10 C           2.3958    0.8619   -0.2607 C.ar    1  UNL1        0.1623
     11 N          -1.4115    2.7422   -0.2510 N.pl3   1  UNL1       -0.3146
     12 N          -3.3757   -1.4763    0.5814 N.pl3   1  UNL1       -0.3093
     13 C          -1.8226    5.5128   -0.7687 C.3     1  UNL1       -0.0502
     14 C          -2.2284    4.4315   -1.7755 C.3     1  UNL1       -0.0371
     15 C          -2.5561    3.1000   -1.0876 C.3     1  UNL1        0.0135
     16 C          -1.1690    3.6831    0.8446 C.3     1  UNL1        0.0135
     17 C          -0.7529    5.0136    0.2082 C.3     1  UNL1       -0.0371
     18 O           3.5056    1.6053   -0.5471 O.3     1  UNL1       -0.4914
     19 O           3.5248   -1.3648   -0.1812 O.3     1  UNL1       -0.4851
     20 C           3.2630    2.7653   -1.3534 C.3     1  UNL1        0.0790
     21 C           4.7779   -1.0741   -0.7841 C.3     1  UNL1        0.1004
     22 C          -4.6513   -0.8673    0.8578 C.3     1  UNL1        0.0370
     23 C          -5.5775   -1.9111    1.4455 C.ar    1  UNL1       -0.0303
     24 C          -5.1224   -2.7744    2.4624 C.ar    1  UNL1       -0.0560
     25 C          -5.9742   -3.7229    3.0352 C.ar    1  UNL1       -0.0475
     26 C          -7.2918   -3.8108    2.5945 C.ar    1  UNL1        0.0179
     27 C          -7.7626   -2.9577    1.5987 C.ar    1  UNL1       -0.0475
     28 C          -6.9082   -2.0138    1.0287 C.ar    1  UNL1       -0.0560
     29 BR         -8.4490   -5.0913    3.3652 Br      1  UNL1       -0.0503
     30 C           6.6588    0.4460   -0.9563 C.3     1  UNL1       -0.0496
     31 C           5.7294   -0.2248    0.0467 C.3     1  UNL1       -0.0158
     32 C           4.7621   -0.5200   -2.2018 C.3     1  UNL1       -0.0158
     33 C           6.0615    0.2585   -2.3497 C.3     1  UNL1       -0.0496
     34 H           1.1194    2.5817   -0.1015 H       1  UNL1        0.0663
     35 H           1.2776   -2.3084    0.1733 H       1  UNL1        0.0677
     36 H          -3.3568   -2.2874   -0.0228 H       1  UNL1        0.1492
     37 H          -1.4523    6.3944   -1.3044 H       1  UNL1        0.0266
     38 H          -2.7061    5.8282   -0.2008 H       1  UNL1        0.0266
     39 H          -3.0883    4.7720   -2.3625 H       1  UNL1        0.0280
     40 H          -1.4008    4.2770   -2.4793 H       1  UNL1        0.0280
     41 H          -3.4711    3.1911   -0.4897 H       1  UNL1        0.0464
     42 H          -2.7300    2.3467   -1.8665 H       1  UNL1        0.0464
     43 H          -0.3734    3.3463    1.5189 H       1  UNL1        0.0464
     44 H          -2.0745    3.8165    1.4502 H       1  UNL1        0.0464
     45 H           0.1896    4.8751   -0.3438 H       1  UNL1        0.0280
     46 H          -0.5656    5.7651    0.9784 H       1  UNL1        0.0280
     47 H           2.3672    2.6806   -1.9828 H       1  UNL1        0.0660
     48 H           3.1896    3.6486   -0.7108 H       1  UNL1        0.0660
     49 H           4.1103    2.8964   -2.0307 H       1  UNL1        0.0660
     50 H           5.2619   -2.0584   -0.8626 H       1  UNL1        0.0733
     51 H          -4.5595   -0.0661    1.6002 H       1  UNL1        0.0512
     52 H          -5.0799   -0.4390   -0.0577 H       1  UNL1        0.0512
     53 H          -4.0947   -2.7066    2.8112 H       1  UNL1        0.0621
     54 H          -5.5942   -4.3826    3.8085 H       1  UNL1        0.0629
     55 H          -8.7980   -3.0229    1.2621 H       1  UNL1        0.0629
     56 H          -7.2936   -1.3474    0.2507 H       1  UNL1        0.0621
     57 H           6.7795    1.5091   -0.7204 H       1  UNL1        0.0266
     58 H           7.6585   -0.0025   -0.9157 H       1  UNL1        0.0266
     59 H           5.2234    0.5042    0.6828 H       1  UNL1        0.0301
     60 H           6.3038   -0.8571    0.7361 H       1  UNL1        0.0301
     61 H           4.7144   -1.3388   -2.9309 H       1  UNL1        0.0301
     62 H           3.8973    0.1065   -2.4278 H       1  UNL1        0.0301
     63 H           5.8808    1.2257   -2.8304 H       1  UNL1        0.0266
     64 H           6.7642   -0.2866   -2.9900 H       1  UNL1        0.0266
@<TRIPOS>BOND
     1     1     2   ar
     2     1     6   ar
     3     2     3   ar
     4     3     4   ar
     5     4     5   ar
     6     7     6   ar
     7     5     6   ar
     8     5     8   ar
     9     7    10   ar
    10     8     9   ar
    11     9    10   ar
    12     1    11    1
    13     3    12    1
    14    15    11    1
    15    11    16    1
    16    13    14    1
    17    13    17    1
    18    14    15    1
    19    16    17    1
    20    10    18    1
    21     9    19    1
    22    18    20    1
    23    19    21    1
    24    12    22    1
    25    22    23    1
    26    23    24   ar
    27    23    28   ar
    28    24    25   ar
    29    25    26   ar
    30    26    27   ar
    31    27    28   ar
    32    26    29    1
    33    31    21    1
    34    21    32    1
    35    30    31    1
    36    30    33    1
    37    32    33    1
    38     7    34    1
    39     8    35    1
    40    12    36    1
    41    13    37    1
    42    13    38    1
    43    14    39    1
    44    14    40    1
    45    15    41    1
    46    15    42    1
    47    16    43    1
    48    16    44    1
    49    17    45    1
    50    17    46    1
    51    20    47    1
    52    20    48    1
    53    20    49    1
    54    21    50    1
    55    22    51    1
    56    22    52    1
    57    24    53    1
    58    25    54    1
    59    27    55    1
    60    28    56    1
    61    30    57    1
    62    30    58    1
    63    31    59    1
    64    31    60    1
    65    32    61    1
    66    32    62    1
    67    33    63    1
    68    33    64    1
