@<TRIPOS>MOLECULE
mol_849_akc
*****
 73 77 0 0 0
SMALL
GASTEIGER

@<TRIPOS>ATOM
      1 C          -1.1771   -1.3167    0.1488 C.2     1  UNL1        0.1621
      2 C          -2.2887   -0.4968   -0.4737 C.3     1  UNL1        0.0157
      3 C          -2.2747    0.9249    0.1061 C.3     1  UNL1       -0.0228
      4 C          -0.8946    1.5558   -0.1681 C.3     1  UNL1       -0.0086
      5 C           0.2846    0.6206    0.0009 C.2     1  UNL1        0.0158
      6 C           0.1867   -0.7188    0.1388 C.2     1  UNL1        0.0240
      7 C           1.4357   -1.5962    0.3051 C.3     1  UNL1        0.0471
      8 N           1.5263    1.2199   -0.0081 N.pl3   1  UNL1       -0.3205
      9 C           2.7234    0.5289   -0.1188 C.2     1  UNL1        0.0157
     10 C           2.7313   -0.8251   -0.0170 C.2     1  UNL1        0.0650
     11 C          -2.5623    0.8844    1.6211 C.3     1  UNL1       -0.0591
     12 C          -3.3626    1.7797   -0.5662 C.3     1  UNL1       -0.0591
     13 O          -1.3973   -2.4091    0.6552 O.2     1  UNL1       -0.2923
     14 C           1.3178   -2.9307   -0.4357 C.ar    1  UNL1       -0.0350
     15 C           3.9160    1.4290   -0.3495 C.3     1  UNL1       -0.0260
     16 C           3.9849   -1.5759   -0.2678 C.2     1  UNL1        0.3375
     17 O           4.8288   -1.2348   -1.0880 O.2     1  UNL1       -0.2452
     18 O           4.0645   -2.6841    0.5072 O.3     1  UNL1       -0.4616
     19 C           5.2205   -3.5081    0.2798 C.3     1  UNL1        0.0900
     20 C           5.1754   -4.2324   -1.0591 C.3     1  UNL1       -0.0306
     21 C           1.0449   -5.4280   -1.7222 C.ar    1  UNL1        0.1211
     22 C           0.9774   -4.2420   -2.4563 C.ar    1  UNL1       -0.0196
     23 C           1.1182   -3.0022   -1.8194 C.ar    1  UNL1       -0.0542
     24 C           1.3921   -4.1351    0.2924 C.ar    1  UNL1       -0.0542
     25 C           1.2569   -5.3664   -0.3465 C.ar    1  UNL1       -0.0196
     26 O           0.8670   -6.6898   -2.2216 O.3     1  UNL1       -0.4858
     27 C           1.1191   -6.8871   -3.6190 C.3     1  UNL1        0.1346
     28 C          -0.0440   -6.5957   -4.5012 C.ar    1  UNL1        0.1199
     29 C          -1.4013   -6.6994   -4.2752 C.ar    1  UNL1        0.0524
     30 N           0.1598   -6.1278   -5.7752 N.ar    1  UNL1       -0.1310
     31 N          -1.0223   -5.9258   -6.3396 N.ar    1  UNL1       -0.0650
     32 N          -1.9645   -6.2410   -5.4304 N.ar    1  UNL1       -0.2470
     33 C          -3.3727   -6.1568   -5.7771 C.3     1  UNL1        0.0682
     34 C          -4.0230   -4.9000   -5.2504 C.ar    1  UNL1       -0.0261
     35 C          -3.6014   -3.6312   -5.6793 C.ar    1  UNL1       -0.0568
     36 C          -4.2099   -2.4751   -5.1853 C.ar    1  UNL1       -0.0614
     37 C          -5.2517   -2.5725   -4.2655 C.ar    1  UNL1       -0.0617
     38 C          -5.6949   -3.8256   -3.8487 C.ar    1  UNL1       -0.0614
     39 C          -5.0875   -4.9830   -4.3401 C.ar    1  UNL1       -0.0568
     40 H          -3.2490   -0.9903   -0.2797 H       1  UNL1        0.0350
     41 H          -2.1413   -0.4901   -1.5622 H       1  UNL1        0.0350
     42 H          -0.7616    2.4333    0.4794 H       1  UNL1        0.0331
     43 H          -0.8580    1.9294   -1.2016 H       1  UNL1        0.0331
     44 H           1.4855   -1.8217    1.3820 H       1  UNL1        0.0450
     45 H           1.5587    2.2229   -0.1752 H       1  UNL1        0.1516
     46 H          -2.5983    1.8949    2.0422 H       1  UNL1        0.0235
     47 H          -3.5277    0.4053    1.8217 H       1  UNL1        0.0235
     48 H          -1.7974    0.3302    2.1754 H       1  UNL1        0.0235
     49 H          -4.3588    1.3538   -0.4046 H       1  UNL1        0.0235
     50 H          -3.3646    2.7994   -0.1640 H       1  UNL1        0.0235
     51 H          -3.2029    1.8509   -1.6479 H       1  UNL1        0.0235
     52 H           3.7805    1.9945   -1.2783 H       1  UNL1        0.0290
     53 H           3.9949    2.1483    0.4744 H       1  UNL1        0.0290
     54 H           4.8791    0.9234   -0.4035 H       1  UNL1        0.0290
     55 H           6.1293   -2.9029    0.3760 H       1  UNL1        0.0695
     56 H           5.2423   -4.2510    1.0840 H       1  UNL1        0.0695
     57 H           5.0383   -3.5463   -1.8997 H       1  UNL1        0.0262
     58 H           6.1043   -4.7870   -1.2230 H       1  UNL1        0.0262
     59 H           4.3396   -4.9370   -1.0908 H       1  UNL1        0.0262
     60 H           0.7865   -4.2392   -3.5246 H       1  UNL1        0.0654
     61 H           1.0462   -2.0929   -2.4136 H       1  UNL1        0.0622
     62 H           1.5493   -4.1171    1.3678 H       1  UNL1        0.0622
     63 H           1.3172   -6.2821    0.2356 H       1  UNL1        0.0654
     64 H           2.0123   -6.3322   -3.9333 H       1  UNL1        0.0764
     65 H           1.3695   -7.9484   -3.7357 H       1  UNL1        0.0764
     66 H          -1.9789   -7.0171   -3.4196 H       1  UNL1        0.0846
     67 H          -3.4642   -6.2020   -6.8686 H       1  UNL1        0.0559
     68 H          -3.8526   -7.0544   -5.3702 H       1  UNL1        0.0559
     69 H          -2.7898   -3.5332   -6.3995 H       1  UNL1        0.0621
     70 H          -3.8691   -1.4980   -5.5183 H       1  UNL1        0.0618
     71 H          -5.7203   -1.6728   -3.8754 H       1  UNL1        0.0618
     72 H          -6.5140   -3.9022   -3.1380 H       1  UNL1        0.0618
     73 H          -5.4550   -5.9499   -4.0030 H       1  UNL1        0.0621
@<TRIPOS>BOND
     1     1     2    1
     2     1     6    1
     3     2     3    1
     4     3     4    1
     5     4     5    1
     6     7     6    1
     7     6     5    2
     8     5     8    1
     9     7    10    1
    10     8     9    1
    11     9    10    2
    12     3    11    1
    13     3    12    1
    14     1    13    2
    15     7    14    1
    16     9    15    1
    17    10    16    1
    18    16    17    2
    19    16    18    1
    20    18    19    1
    21    19    20    1
    22    23    14   ar
    23    14    24   ar
    24    21    22   ar
    25    21    25   ar
    26    22    23   ar
    27    24    25   ar
    28    21    26    1
    29    26    27    1
    30    27    28    1
    31    29    28   ar
    32    28    30   ar
    33    29    32   ar
    34    30    31   ar
    35    31    32   ar
    36    32    33    1
    37    33    34    1
    38    34    35   ar
    39    34    39   ar
    40    35    36   ar
    41    36    37   ar
    42    37    38   ar
    43    38    39   ar
    44     2    40    1
    45     2    41    1
    46     4    42    1
    47     4    43    1
    48     7    44    1
    49     8    45    1
    50    11    46    1
    51    11    47    1
    52    11    48    1
    53    12    49    1
    54    12    50    1
    55    12    51    1
    56    15    52    1
    57    15    53    1
    58    15    54    1
    59    19    55    1
    60    19    56    1
    61    20    57    1
    62    20    58    1
    63    20    59    1
    64    22    60    1
    65    23    61    1
    66    24    62    1
    67    25    63    1
    68    27    64    1
    69    27    65    1
    70    29    66    1
    71    33    67    1
    72    33    68    1
    73    35    69    1
    74    36    70    1
    75    37    71    1
    76    38    72    1
    77    39    73    1
