@<TRIPOS>MOLECULE
mol_84_acsinfecdis2c00325
>83.sdf
 40 42 0 0 0
SMALL
GASTEIGER

@<TRIPOS>ATOM
      1 O           1.3276    0.8189   -0.6859 O.2     1  UNL1       -0.2693
      2 C           2.5112    0.6360   -0.4170 C.2     1  UNL1        0.2549
      3 N           3.1421    1.1397    0.7092 N.am    1  UNL1       -0.2811
      4 C           2.5034    1.8986    1.7035 C.ar    1  UNL1        0.0340
      5 C           1.2131    1.6160    2.1538 C.ar    1  UNL1       -0.0405
      6 C           0.6244    2.4166    3.1346 C.ar    1  UNL1       -0.0597
      7 C           1.3067    3.5265    3.6332 C.ar    1  UNL1       -0.0570
      8 C           2.6002    3.8244    3.1835 C.ar    1  UNL1       -0.0287
      9 C           3.2971    5.0897    3.6226 C.3     1  UNL1        0.0344
     10 N           2.7435    6.2133    2.8838 N.pl3   1  UNL1       -0.3397
     11 C           3.3552    7.4660    2.9321 C.ar    1  UNL1        0.0274
     12 C           4.2827    7.8373    3.9168 C.ar    1  UNL1       -0.0408
     13 C           4.8120    9.1285    3.9656 C.ar    1  UNL1       -0.0600
     14 C           4.4021   10.0908    3.0508 C.ar    1  UNL1       -0.0616
     15 C           3.4491    9.7574    2.0888 C.ar    1  UNL1       -0.0600
     16 C           2.9265    8.4611    2.0440 C.ar    1  UNL1       -0.0408
     17 C           3.2067    2.9773    2.2446 C.ar    1  UNL1       -0.0358
     18 C           3.4083   -0.0410   -1.3448 C.ar    1  UNL1        0.0763
     19 C           3.3246   -0.0595   -2.7260 C.ar    1  UNL1       -0.0402
     20 C           4.3326   -0.8757   -3.3226 C.ar    1  UNL1       -0.0234
     21 C           5.1284   -1.4650   -2.3659 C.ar    1  UNL1        0.1641
     22 S           4.7185   -0.9959   -0.7859 S.2     1  UNL1       -0.0599
     23 N           6.2080   -2.3919   -2.5965 N.pl3   1  UNL1        0.0632
     24 O           6.4238   -2.6991   -3.7765 O.2     1  UNL1       -0.1256
     25 O           6.8392   -2.8121   -1.6185 O.2     1  UNL1       -0.1256
     26 H           4.1501    1.2057    0.6554 H       1  UNL1        0.1551
     27 H           0.6597    0.7638    1.7673 H       1  UNL1        0.0636
     28 H          -0.3762    2.1871    3.4923 H       1  UNL1        0.0618
     29 H           0.8169    4.1771    4.3557 H       1  UNL1        0.0621
     30 H           3.1543    5.2242    4.7012 H       1  UNL1        0.0511
     31 H           4.3740    4.9924    3.4366 H       1  UNL1        0.0511
     32 H           2.4239    5.9708    1.9489 H       1  UNL1        0.1464
     33 H           4.6130    7.1243    4.6666 H       1  UNL1        0.0636
     34 H           5.5420    9.3840    4.7318 H       1  UNL1        0.0618
     35 H           4.8017   11.1042    3.0926 H       1  UNL1        0.0618
     36 H           3.1058   10.5077    1.3839 H       1  UNL1        0.0618
     37 H           2.1649    8.2338    1.2993 H       1  UNL1        0.0636
     38 H           4.2025    3.2158    1.8785 H       1  UNL1        0.0639
     39 H           2.5675    0.4887   -3.2782 H       1  UNL1        0.0631
     40 H           4.4440   -1.0336   -4.3900 H       1  UNL1        0.0646
@<TRIPOS>BOND
     1     2     1    2
     2     3     2   am
     3     3    26    1
     4     4     3    1
     5     5     4   ar
     6     5    27    1
     7     6     5   ar
     8     6    28    1
     9     7     6   ar
    10     7    29    1
    11     8     7   ar
    12     9     8    1
    13     9    30    1
    14     9    31    1
    15    10     9    1
    16    10    32    1
    17    11    10    1
    18    12    11   ar
    19    12    33    1
    20    13    12   ar
    21    13    34    1
    22    14    13   ar
    23    14    35    1
    24    15    14   ar
    25    15    36    1
    26    16    15   ar
    27    16    11   ar
    28    16    37    1
    29    17     8   ar
    30    17     4   ar
    31    17    38    1
    32    18     2    1
    33    19    18   ar
    34    19    39    1
    35    20    19   ar
    36    20    40    1
    37    21    20   ar
    38    22    21   ar
    39    22    18   ar
    40    23    21    1
    41    24    23    2
    42    25    23    2
