@<TRIPOS>MOLECULE
mol_850_akc
*****
 73 77 0 0 0
SMALL
GASTEIGER

@<TRIPOS>ATOM
      1 C          -1.0099   -1.3030   -0.2274 C.2     1  UNL1        0.1621
      2 C          -2.1953   -0.4349   -0.6064 C.3     1  UNL1        0.0157
      3 C          -2.1135    1.0011   -0.0645 C.3     1  UNL1       -0.0228
      4 C          -0.7349    1.5965   -0.3975 C.3     1  UNL1       -0.0086
      5 C           0.4173    0.6833   -0.0668 C.2     1  UNL1        0.0158
      6 C           0.2986   -0.6497    0.0628 C.2     1  UNL1        0.0240
      7 C           1.5172   -1.5151    0.3563 C.3     1  UNL1        0.0471
      8 N           1.6615    1.2757    0.0396 N.pl3   1  UNL1       -0.3205
      9 C           2.8529    0.5682   -0.1153 C.2     1  UNL1        0.0157
     10 C           2.8330   -0.7889   -0.0181 C.2     1  UNL1        0.0650
     11 C          -2.3549    1.0216    1.4581 C.3     1  UNL1       -0.0591
     12 C          -3.2002    1.8618   -0.7362 C.3     1  UNL1       -0.0591
     13 O          -1.1038   -2.5305   -0.2512 O.2     1  UNL1       -0.2923
     14 C           1.5298   -1.9711    1.8286 C.ar    1  UNL1       -0.0350
     15 C           4.0289    1.4659   -0.4133 C.3     1  UNL1       -0.0260
     16 C           3.9627   -1.7210   -0.2682 C.2     1  UNL1        0.3375
     17 O           3.8098   -2.8767   -0.6394 O.2     1  UNL1       -0.2452
     18 O           5.1589   -1.1428   -0.0130 O.3     1  UNL1       -0.4616
     19 C           6.3223   -1.9389   -0.2779 C.3     1  UNL1        0.0900
     20 C           6.6684   -2.7521    0.9510 C.3     1  UNL1       -0.0306
     21 C           1.5897   -2.8338    4.5245 C.ar    1  UNL1        0.1211
     22 C           0.9419   -3.5946    3.5522 C.ar    1  UNL1       -0.0196
     23 C           0.9173   -3.1763    2.2146 C.ar    1  UNL1       -0.0542
     24 C           2.1260   -1.1865    2.8328 C.ar    1  UNL1       -0.0542
     25 C           2.1605   -1.6150    4.1626 C.ar    1  UNL1       -0.0196
     26 O           1.6040   -3.3593    5.7903 O.3     1  UNL1       -0.4858
     27 C           2.5956   -2.8116    6.6740 C.3     1  UNL1        0.1346
     28 C           2.8501   -3.6809    7.8503 C.ar    1  UNL1        0.1199
     29 C           2.1767   -4.7913    8.3152 C.ar    1  UNL1        0.0524
     30 N           3.9486   -3.4651    8.6444 N.ar    1  UNL1       -0.1310
     31 N           4.0077   -4.4304    9.5479 N.ar    1  UNL1       -0.0650
     32 N           2.9527   -5.2427    9.3421 N.ar    1  UNL1       -0.2470
     33 C           2.8934   -6.5433    9.9805 C.3     1  UNL1        0.0682
     34 C           2.1513   -6.5395   11.2915 C.ar    1  UNL1       -0.0261
     35 C           0.9688   -7.2802   11.4367 C.ar    1  UNL1       -0.0568
     36 C           0.3498   -7.3894   12.6830 C.ar    1  UNL1       -0.0614
     37 C           0.9013   -6.7557   13.7943 C.ar    1  UNL1       -0.0617
     38 C           2.0553   -5.9875   13.6559 C.ar    1  UNL1       -0.0614
     39 C           2.6756   -5.8749   12.4105 C.ar    1  UNL1       -0.0568
     40 H          -3.1061   -0.9222   -0.2378 H       1  UNL1        0.0350
     41 H          -2.2405   -0.4279   -1.7030 H       1  UNL1        0.0350
     42 H          -0.6135    2.5511    0.1288 H       1  UNL1        0.0331
     43 H          -0.6711    1.8256   -1.4712 H       1  UNL1        0.0331
     44 H           1.4464   -2.4068   -0.2823 H       1  UNL1        0.0450
     45 H           1.7051    2.2740   -0.1538 H       1  UNL1        0.1516
     46 H          -2.1514    2.0156    1.8731 H       1  UNL1        0.0235
     47 H          -3.3960    0.7746    1.6944 H       1  UNL1        0.0235
     48 H          -1.7189    0.3068    1.9899 H       1  UNL1        0.0235
     49 H          -4.1980    1.4414   -0.5683 H       1  UNL1        0.0235
     50 H          -3.1950    2.8842   -0.3419 H       1  UNL1        0.0235
     51 H          -3.0463    1.9232   -1.8197 H       1  UNL1        0.0235
     52 H           3.8352    2.0322   -1.3309 H       1  UNL1        0.0290
     53 H           4.1514    2.1863    0.4051 H       1  UNL1        0.0290
     54 H           4.9872    0.9726   -0.5483 H       1  UNL1        0.0290
     55 H           6.1848   -2.5730   -1.1618 H       1  UNL1        0.0695
     56 H           7.1382   -1.2447   -0.5067 H       1  UNL1        0.0695
     57 H           5.8803   -3.4793    1.1698 H       1  UNL1        0.0262
     58 H           7.6110   -3.2877    0.8113 H       1  UNL1        0.0262
     59 H           6.7537   -2.1016    1.8275 H       1  UNL1        0.0262
     60 H           0.4673   -4.5316    3.8267 H       1  UNL1        0.0654
     61 H           0.4167   -3.7971    1.4761 H       1  UNL1        0.0622
     62 H           2.5854   -0.2312    2.5969 H       1  UNL1        0.0622
     63 H           2.6436   -0.9660    4.8870 H       1  UNL1        0.0654
     64 H           3.5527   -2.7065    6.1449 H       1  UNL1        0.0764
     65 H           2.2621   -1.8292    7.0274 H       1  UNL1        0.0764
     66 H           1.2901   -5.3036    7.9724 H       1  UNL1        0.0846
     67 H           2.4262   -7.2322    9.2663 H       1  UNL1        0.0559
     68 H           3.9211   -6.8951   10.1330 H       1  UNL1        0.0559
     69 H           0.5316   -7.8002   10.5868 H       1  UNL1        0.0621
     70 H          -0.5539   -7.9839   12.7906 H       1  UNL1        0.0618
     71 H           0.4336   -6.8627   14.7696 H       1  UNL1        0.0618
     72 H           2.4830   -5.4873   14.5211 H       1  UNL1        0.0618
     73 H           3.5848   -5.2811   12.3243 H       1  UNL1        0.0621
@<TRIPOS>BOND
     1     1     2    1
     2     1     6    1
     3     2     3    1
     4     3     4    1
     5     4     5    1
     6     7     6    1
     7     6     5    2
     8     5     8    1
     9     7    10    1
    10     8     9    1
    11     9    10    2
    12     3    11    1
    13     3    12    1
    14     1    13    2
    15     9    15    1
    16    10    16    1
    17    16    17    2
    18    16    18    1
    19    18    19    1
    20    19    20    1
    21    23    14   ar
    22    14    24   ar
    23    21    22   ar
    24    21    25   ar
    25    22    23   ar
    26    24    25   ar
    27    21    26    1
    28    26    27    1
    29    27    28    1
    30    29    28   ar
    31    28    30   ar
    32    29    32   ar
    33    30    31   ar
    34    31    32   ar
    35    32    33    1
    36    33    34    1
    37    34    35   ar
    38    34    39   ar
    39    35    36   ar
    40    36    37   ar
    41    37    38   ar
    42    38    39   ar
    43     2    40    1
    44     2    41    1
    45     4    42    1
    46     4    43    1
    47     8    45    1
    48    11    46    1
    49    11    47    1
    50    11    48    1
    51    12    49    1
    52    12    50    1
    53    12    51    1
    54    15    52    1
    55    15    53    1
    56    15    54    1
    57    19    55    1
    58    19    56    1
    59    20    57    1
    60    20    58    1
    61    20    59    1
    62    22    60    1
    63    23    61    1
    64    24    62    1
    65    25    63    1
    66    27    64    1
    67    27    65    1
    68    29    66    1
    69    33    67    1
    70    33    68    1
    71    35    69    1
    72    36    70    1
    73    37    71    1
    74    38    72    1
    75    39    73    1
    76     7    44    1
    77     7    14    1
