@<TRIPOS>MOLECULE
mol_851_akc_jijpddr2024100531
*****
 20 20 0 0 0
SMALL
GASTEIGER

@<TRIPOS>ATOM
      1 C           1.2036    1.2151    0.0087 C.ar    1  UNL1       -0.0443
      2 C           2.5967    1.0842    0.0291 C.ar    1  UNL1       -0.0182
      3 C           3.1754   -0.1897    0.0279 C.ar    1  UNL1        0.1320
      4 C           2.3677   -1.3276   -0.0346 C.ar    1  UNL1       -0.0182
      5 C           0.9752   -1.1941   -0.0450 C.ar    1  UNL1       -0.0443
      6 C           0.3987    0.0765   -0.0205 C.ar    1  UNL1        0.0181
      7 BR         -1.4826    0.2524   -0.0357 Br      1  UNL1       -0.0503
      8 O           4.5924   -0.2337    0.0286 O.3     1  UNL1       -0.4227
      9 C           5.2592   -1.2604    0.6786 C.2     1  UNL1        0.3379
     10 O           4.7631   -2.1937    1.2942 O.2     1  UNL1       -0.2452
     11 C           6.7307   -1.1311    0.5812 C.2     1  UNL1        0.0330
     12 C           7.4169   -0.1334    0.0072 C.2     1  UNL1        0.0221
     13 C           8.9366   -0.1506    0.0296 C.1     1  UNL1        0.0916
     14 N          10.1974   -0.1648    0.0481 N.1     1  UNL1       -0.1915
     15 H           0.7548    2.2067    0.0166 H       1  UNL1        0.0630
     16 H           3.2190    1.9715    0.0521 H       1  UNL1        0.0655
     17 H           2.7936   -2.3254   -0.0688 H       1  UNL1        0.0655
     18 H           0.3526   -2.0839   -0.0703 H       1  UNL1        0.0630
     19 H           7.2553   -1.9558    1.0588 H       1  UNL1        0.0696
     20 H           6.9529    0.7175   -0.4769 H       1  UNL1        0.0735
@<TRIPOS>BOND
     1     1     2   ar
     2     2     3   ar
     3     3     4   ar
     4     4     5   ar
     5     5     6   ar
     6     1     6   ar
     7     6     7    1
     8     3     8    1
     9     8     9    1
    10     9    10    2
    11     9    11    1
    12    11    12    2
    13    12    13    1
    14    13    14    3
    15     1    15    1
    16     2    16    1
    17     4    17    1
    18     5    18    1
    19    11    19    1
    20    12    20    1
