@<TRIPOS>MOLECULE
mol_852_akc_jmolstruc2024138015
*****
 47 50 0 0 0
SMALL
GASTEIGER

@<TRIPOS>ATOM
      1 C           0.7774    0.1226    0.8056 C.ar    1  UNL1       -0.0527
      2 C          -0.3153   -0.6797    1.1493 C.ar    1  UNL1       -0.0611
      3 C          -1.6072   -0.2713    0.8293 C.ar    1  UNL1       -0.0617
      4 C          -1.8057    0.9332    0.1612 C.ar    1  UNL1       -0.0611
      5 C          -0.7109    1.7200   -0.2135 C.ar    1  UNL1       -0.0527
      6 C           0.5946    1.3162    0.0944 C.ar    1  UNL1        0.0011
      7 C           1.7629    2.1909   -0.2646 C.2     1  UNL1        0.1035
      8 C           1.5323    3.7144   -0.3058 C.3     1  UNL1        0.1334
      9 O           0.9664    4.1947   -1.5189 O.3     1  UNL1       -0.4858
     10 C           1.8291    4.6754   -2.4675 C.ar    1  UNL1        0.1211
     11 C           3.1192    4.2029   -2.7049 C.ar    1  UNL1       -0.0199
     12 C           1.3167    5.6813   -3.2902 C.ar    1  UNL1       -0.0199
     13 C           2.0878    6.2181   -4.3231 C.ar    1  UNL1       -0.0583
     14 C           3.3755    5.7393   -4.5545 C.ar    1  UNL1       -0.0615
     15 C           3.8889    4.7301   -3.7460 C.ar    1  UNL1       -0.0583
     16 N           2.9904    1.8294   -0.4950 N.2     1  UNL1       -0.1814
     17 N           3.3721    0.5374   -0.5767 N.pl3   1  UNL1       -0.2149
     18 C           4.6339    0.1198   -0.2942 C.ar    1  UNL1        0.1783
     19 C           6.9547   -0.0892    0.4004 C.ar    1  UNL1        0.0049
     20 C           6.2866   -1.2832    0.2177 C.ar    1  UNL1        0.0803
     21 N           4.9715   -1.1494   -0.2143 N.ar    1  UNL1       -0.2236
     22 S           5.9196    1.2238    0.0552 S.2     1  UNL1       -0.0586
     23 C           6.8533   -2.5962    0.5218 C.ar    1  UNL1        0.0010
     24 C           8.7239   -4.0425    1.1101 C.ar    1  UNL1       -0.0428
     25 C           7.8517   -5.1172    1.2594 C.ar    1  UNL1        0.0410
     26 C           6.4902   -4.9546    1.0214 C.ar    1  UNL1       -0.0428
     27 C           5.9957   -3.7002    0.6512 C.ar    1  UNL1       -0.0512
     28 C           8.2274   -2.7884    0.7381 C.ar    1  UNL1       -0.0512
     29 CL          8.4594   -6.6492    1.7503 Cl      1  UNL1       -0.0835
     30 H           1.7636   -0.1976    1.1309 H       1  UNL1        0.0624
     31 H          -0.1558   -1.6148    1.6804 H       1  UNL1        0.0618
     32 H          -2.4584   -0.8870    1.1112 H       1  UNL1        0.0618
     33 H          -2.8162    1.2640   -0.0706 H       1  UNL1        0.0618
     34 H          -0.9076    2.6474   -0.7461 H       1  UNL1        0.0624
     35 H           0.8325    3.9734    0.4982 H       1  UNL1        0.0764
     36 H           2.4626    4.2407   -0.0518 H       1  UNL1        0.0764
     37 H           3.5588    3.4084   -2.1189 H       1  UNL1        0.0654
     38 H           0.3095    6.0561   -3.1217 H       1  UNL1        0.0654
     39 H           1.6824    7.0073   -4.9521 H       1  UNL1        0.0619
     40 H           3.9750    6.1444   -5.3650 H       1  UNL1        0.0618
     41 H           4.8873    4.3392   -3.9259 H       1  UNL1        0.0619
     42 H           2.7220   -0.1726   -0.9036 H       1  UNL1        0.1765
     43 H           7.9601    0.0947    0.7453 H       1  UNL1        0.0716
     44 H           9.7884   -4.1679    1.2894 H       1  UNL1        0.0632
     45 H           5.8056   -5.7908    1.1320 H       1  UNL1        0.0632
     46 H           4.9264   -3.5842    0.4815 H       1  UNL1        0.0625
     47 H           8.9362   -1.9721    0.6289 H       1  UNL1        0.0625
@<TRIPOS>BOND
     1     1     2   ar
     2     2     3   ar
     3     3     4   ar
     4     4     5   ar
     5     5     6   ar
     6     1     6   ar
     7     6     7    1
     8     7     8    1
     9     8     9    1
    10     9    10    1
    11    12    13   ar
    12    13    14   ar
    13    14    15   ar
    14    11    15   ar
    15    11    10   ar
    16    10    12   ar
    17     7    16    2
    18    16    17    1
    19    17    18    1
    20    19    20   ar
    21    20    21   ar
    22    19    22   ar
    23    21    18   ar
    24    18    22   ar
    25    20    23    1
    26    24    25   ar
    27    25    26   ar
    28    26    27   ar
    29    24    28   ar
    30    27    23   ar
    31    23    28   ar
    32    25    29    1
    33     1    30    1
    34     2    31    1
    35     3    32    1
    36     4    33    1
    37     5    34    1
    38     8    35    1
    39     8    36    1
    40    11    37    1
    41    12    38    1
    42    13    39    1
    43    14    40    1
    44    15    41    1
    45    17    42    1
    46    19    43    1
    47    24    44    1
    48    26    45    1
    49    27    46    1
    50    28    47    1
