@<TRIPOS>MOLECULE
mol_853_akc_jmolstruc2024138015
*****
 47 50 0 0 0
SMALL
GASTEIGER

@<TRIPOS>ATOM
      1 C           1.4027    0.0236    0.2765 C.ar    1  UNL1       -0.0527
      2 C           0.6362   -1.1385    0.3927 C.ar    1  UNL1       -0.0611
      3 C          -0.6920   -1.1426   -0.0288 C.ar    1  UNL1       -0.0617
      4 C          -1.2559    0.0102   -0.5721 C.ar    1  UNL1       -0.0611
      5 C          -0.4927    1.1770   -0.6832 C.ar    1  UNL1       -0.0527
      6 C           0.8372    1.1925   -0.2501 C.ar    1  UNL1        0.0011
      7 C           1.6684    2.4393   -0.3189 C.2     1  UNL1        0.1035
      8 C           0.9297    3.7643   -0.1234 C.3     1  UNL1        0.1334
      9 O           0.4844    4.2517   -1.3831 O.3     1  UNL1       -0.4858
     10 C          -0.3545    5.3360   -1.3672 C.ar    1  UNL1        0.1211
     11 C          -0.6892    6.0945   -0.2437 C.ar    1  UNL1       -0.0199
     12 C          -0.8916    5.6866   -2.6091 C.ar    1  UNL1       -0.0199
     13 C          -1.7543    6.7808   -2.7295 C.ar    1  UNL1       -0.0583
     14 C          -2.0838    7.5338   -1.6057 C.ar    1  UNL1       -0.0615
     15 C          -1.5522    7.1897   -0.3639 C.ar    1  UNL1       -0.0583
     16 N           2.9527    2.3015   -0.5076 N.2     1  UNL1       -0.1814
     17 N           3.7537    3.4020   -0.5852 N.pl3   1  UNL1       -0.2149
     18 C           5.0650    3.3674   -0.9541 C.ar    1  UNL1        0.1783
     19 C           7.3291    2.8120   -1.6603 C.ar    1  UNL1        0.0049
     20 C           7.0355    4.1607   -1.6503 C.ar    1  UNL1        0.0803
     21 N           5.7444    4.4625   -1.2295 N.ar    1  UNL1       -0.2236
     22 S           5.9726    1.9089   -1.1312 S.2     1  UNL1       -0.0586
     23 C           7.9461    5.2127   -2.1035 C.ar    1  UNL1        0.0010
     24 C          10.1601    6.0249   -2.7302 C.ar    1  UNL1       -0.0428
     25 C           9.6120    7.2522   -3.0970 C.ar    1  UNL1        0.0410
     26 C           8.2474    7.4815   -2.9508 C.ar    1  UNL1       -0.0428
     27 C           7.4235    6.4680   -2.4532 C.ar    1  UNL1       -0.0512
     28 C           9.3293    5.0098   -2.2336 C.ar    1  UNL1       -0.0512
     29 CL         10.6261    8.4848   -3.7381 Cl      1  UNL1       -0.0835
     30 H           2.4390    0.0144    0.6085 H       1  UNL1        0.0624
     31 H           1.0773   -2.0398    0.8113 H       1  UNL1        0.0618
     32 H          -1.2890   -2.0484    0.0631 H       1  UNL1        0.0618
     33 H          -2.2880    0.0014   -0.9130 H       1  UNL1        0.0618
     34 H          -0.9530    2.0546   -1.1321 H       1  UNL1        0.0624
     35 H           0.0807    3.5864    0.5490 H       1  UNL1        0.0764
     36 H           1.5914    4.4921    0.3569 H       1  UNL1        0.0764
     37 H          -0.2944    5.8703    0.7414 H       1  UNL1        0.0654
     38 H          -0.6404    5.1049   -3.4924 H       1  UNL1        0.0654
     39 H          -2.1644    7.0456   -3.7007 H       1  UNL1        0.0619
     40 H          -2.7490    8.3879   -1.6962 H       1  UNL1        0.0618
     41 H          -1.8065    7.7783    0.5143 H       1  UNL1        0.0619
     42 H           3.3481    4.3297   -0.6714 H       1  UNL1        0.1765
     43 H           8.2330    2.3075   -1.9665 H       1  UNL1        0.0716
     44 H          11.2258    5.8460   -2.8345 H       1  UNL1        0.0632
     45 H           7.8148    8.4396   -3.2282 H       1  UNL1        0.0632
     46 H           6.3541    6.6602   -2.3572 H       1  UNL1        0.0625
     47 H           9.7904    4.0657   -1.9526 H       1  UNL1        0.0625
@<TRIPOS>BOND
     1     1     2   ar
     2     2     3   ar
     3     3     4   ar
     4     4     5   ar
     5     5     6   ar
     6     1     6   ar
     7     6     7    1
     8     7     8    1
     9     8     9    1
    10     9    10    1
    11    12    13   ar
    12    13    14   ar
    13    14    15   ar
    14    11    15   ar
    15    11    10   ar
    16    10    12   ar
    17     7    16    2
    18    16    17    1
    19    17    18    1
    20    19    20   ar
    21    20    21   ar
    22    19    22   ar
    23    21    18   ar
    24    18    22   ar
    25    20    23    1
    26    24    25   ar
    27    25    26   ar
    28    26    27   ar
    29    24    28   ar
    30    27    23   ar
    31    23    28   ar
    32    25    29    1
    33     1    30    1
    34     2    31    1
    35     3    32    1
    36     4    33    1
    37     5    34    1
    38     8    35    1
    39     8    36    1
    40    11    37    1
    41    12    38    1
    42    13    39    1
    43    14    40    1
    44    15    41    1
    45    17    42    1
    46    19    43    1
    47    24    44    1
    48    26    45    1
    49    27    46    1
    50    28    47    1
