@<TRIPOS>MOLECULE
mol_85_akc_ph15080998
>84.sdf
 38 40 0 0 0
SMALL
GASTEIGER

@<TRIPOS>ATOM
      1 F           3.7983   -1.2651    7.2499 F       1  UNL1       -0.1707
      2 C           2.7132   -1.3890    6.4561 C.3     1  UNL1        0.3917
      3 F           2.2213   -2.6338    6.6312 F       1  UNL1       -0.1707
      4 F           1.7838   -0.5149    6.8963 F       1  UNL1       -0.1707
      5 C           3.0396   -1.1394    5.0018 C.3     1  UNL1        0.0626
      6 C           4.5146   -0.8301    4.8053 C.3     1  UNL1        0.0808
      7 S           4.8846   -0.5466    3.0910 S.O2    1  UNL1        0.0179
      8 O           4.5709   -1.7358    2.3268 O.2     1  UNL1       -0.1678
      9 O           4.4254    0.7642    2.6870 O.2     1  UNL1       -0.1678
     10 C           6.6133   -0.4490    3.0662 C.ar    1  UNL1        0.2263
     11 C           7.3953    0.6729    3.1162 C.ar    1  UNL1        0.2455
     12 N           8.7048    0.2700    3.0854 N.ar    1  UNL1       -0.2771
     13 C           9.8958    0.9892    3.1648 C.ar    1  UNL1        0.0317
     14 C          11.0589    0.3262    3.1163 C.ar    1  UNL1        0.0582
     15 CL         12.5638    1.1456    3.2345 Cl      1  UNL1       -0.0820
     16 C          11.0556   -1.1166    2.9543 C.ar    1  UNL1       -0.0307
     17 C           9.9144   -1.8500    2.9068 C.ar    1  UNL1        0.0265
     18 C           8.6639   -1.1293    2.9955 C.ar    1  UNL1        0.1493
     19 N           7.4192   -1.5707    3.0237 N.ar    1  UNL1       -0.2069
     20 C          10.0152   -3.3286    2.7124 C.ar    1  UNL1       -0.0115
     21 C          11.0689   -4.0809    3.2487 C.ar    1  UNL1       -0.0358
     22 C          11.1140   -5.4473    3.0131 C.ar    1  UNL1        0.0281
     23 N          10.1829   -6.1179    2.3081 N.ar    1  UNL1       -0.2632
     24 C           9.1576   -5.3910    1.8211 C.ar    1  UNL1        0.0281
     25 C           9.0342   -4.0201    1.9911 C.ar    1  UNL1       -0.0358
     26 N           7.0234    2.0192    3.2674 N.pl3   1  UNL1        0.0774
     27 O           6.3566    2.2804    4.2741 O.2     1  UNL1       -0.1245
     28 O           7.4618    2.8156    2.4333 O.2     1  UNL1       -0.1245
     29 H           2.7627   -2.0208    4.4111 H       1  UNL1        0.0368
     30 H           2.4295   -0.3126    4.6204 H       1  UNL1        0.0368
     31 H           4.8067    0.0677    5.3590 H       1  UNL1        0.0507
     32 H           5.1287   -1.6745    5.1350 H       1  UNL1        0.0507
     33 H           9.8454    2.0669    3.2710 H       1  UNL1        0.0829
     34 H          12.0336   -1.5785    2.8466 H       1  UNL1        0.0640
     35 H          11.8527   -3.6326    3.8492 H       1  UNL1        0.0639
     36 H          11.9270   -6.0551    3.4005 H       1  UNL1        0.0830
     37 H           8.4096   -5.9542    1.2696 H       1  UNL1        0.0830
     38 H           8.1752   -3.5169    1.5578 H       1  UNL1        0.0639
@<TRIPOS>BOND
     1     2     1    1
     2     3     2    1
     3     4     2    1
     4     5     2    1
     5     5    29    1
     6     5    30    1
     7     6     5    1
     8     6    31    1
     9     6    32    1
    10     7     6    1
    11     8     7    2
    12     9     7    2
    13    10     7    1
    14    11    10   ar
    15    12    11   ar
    16    13    12   ar
    17    13    33    1
    18    14    13   ar
    19    15    14    1
    20    16    14   ar
    21    16    34    1
    22    17    16   ar
    23    18    17   ar
    24    18    12   ar
    25    19    18   ar
    26    19    10   ar
    27    20    17    1
    28    21    20   ar
    29    21    35    1
    30    22    21   ar
    31    22    36    1
    32    23    22   ar
    33    24    23   ar
    34    24    37    1
    35    25    24   ar
    36    25    20   ar
    37    25    38    1
    38    26    11    1
    39    27    26    2
    40    28    26    2
