@<TRIPOS>MOLECULE
mol_87_akc_jphymed2022154221
>86.sdf
 28 29 0 0 0
SMALL
GASTEIGER

@<TRIPOS>ATOM
      1 C           1.1144   -0.5484   -0.0238 C.3     1  UNL1       -0.0596
      2 C           2.5499    0.0006   -0.0454 C.3     1  UNL1       -0.0109
      3 C           2.7121    0.9534   -1.2336 C.3     1  UNL1       -0.0596
      4 C           2.9776    0.6169    1.3157 C.3     1  UNL1        0.1250
      5 C           4.4270    1.1597    1.2959 C.3     1  UNL1       -0.0138
      6 C           4.8006    1.6790    2.6979 C.3     1  UNL1       -0.0143
      7 C           3.6118    1.4481    3.6455 C.3     1  UNL1        0.1200
      8 C           3.9247    1.8945    5.0670 C.3     1  UNL1       -0.0291
      9 O           3.3670    0.0246    3.6558 O.3     1  UNL1       -0.2234
     10 O           2.9739   -0.4634    2.2937 O.3     1  UNL1       -0.2229
     11 C           2.3793    2.1159    3.0847 C.2     1  UNL1       -0.0510
     12 C           2.0555    1.6923    1.8554 C.2     1  UNL1       -0.0505
     13 H           0.9108   -1.1166   -0.9387 H       1  UNL1        0.0233
     14 H           0.9547   -1.2235    0.8227 H       1  UNL1        0.0233
     15 H           0.3724    0.2546    0.0322 H       1  UNL1        0.0233
     16 H           3.1982   -0.8675   -0.2298 H       1  UNL1        0.0327
     17 H           2.1847    1.8986   -1.0723 H       1  UNL1        0.0233
     18 H           3.7677    1.1756   -1.4183 H       1  UNL1        0.0233
     19 H           2.3184    0.5015   -2.1508 H       1  UNL1        0.0233
     20 H           4.5472    1.9732    0.5716 H       1  UNL1        0.0298
     21 H           5.1266    0.3621    1.0168 H       1  UNL1        0.0298
     22 H           5.6882    1.1391    3.0503 H       1  UNL1        0.0298
     23 H           5.0640    2.7427    2.6454 H       1  UNL1        0.0298
     24 H           4.0987    2.9746    5.1237 H       1  UNL1        0.0261
     25 H           3.1046    1.6395    5.7482 H       1  UNL1        0.0261
     26 H           4.8146    1.3813    5.4486 H       1  UNL1        0.0261
     27 H           1.8154    2.8596    3.6314 H       1  UNL1        0.0599
     28 H           1.1998    2.0675    1.3097 H       1  UNL1        0.0599
@<TRIPOS>BOND
     1     1    13    1
     2     1    14    1
     3     1    15    1
     4     2     1    1
     5     2    16    1
     6     3     2    1
     7     3    17    1
     8     3    18    1
     9     3    19    1
    10     4     2    1
    11     5     4    1
    12     5    20    1
    13     5    21    1
    14     6     5    1
    15     6    22    1
    16     6    23    1
    17     7     6    1
    18     7     8    1
    19     8    24    1
    20     8    25    1
    21     8    26    1
    22     9     7    1
    23    10     9    1
    24    10     4    1
    25    11     7    1
    26    11    27    1
    27    12    11    2
    28    12     4    1
    29    12    28    1
