@<TRIPOS>MOLECULE
mol_88_akc_slct202201664
>87.sdf
 37 39 0 0 0
SMALL
GASTEIGER

@<TRIPOS>ATOM
      1 C           1.0422   -2.4084    1.1783 C.3     1  UNL1        0.0820
      2 O           2.4468   -2.4179    0.9095 O.3     1  UNL1       -0.4643
      3 C           2.9791   -1.1785    0.6944 C.2     1  UNL1        0.3445
      4 O           2.3091   -0.1567    0.6545 O.2     1  UNL1       -0.2448
      5 C           4.4179   -1.2048    0.5803 C.ar    1  UNL1        0.1289
      6 C           5.2683   -0.1703    0.9263 C.ar    1  UNL1        0.1815
      7 O           6.5512   -0.5487    0.6664 O.2     1  UNL1       -0.3535
      8 N           6.5726   -1.8344    0.1671 N.ar    1  UNL1       -0.0815
      9 C           5.2910   -2.2251    0.0977 C.ar    1  UNL1        0.1025
     10 C           4.9704   -3.5806   -0.4438 C.3     1  UNL1        0.0189
     11 C           4.6979   -3.3891   -1.9192 C.ar    1  UNL1       -0.0414
     12 C           5.7522   -3.4439   -2.8463 C.ar    1  UNL1       -0.0568
     13 C           5.5180   -3.2201   -4.2050 C.ar    1  UNL1       -0.0431
     14 C           4.2286   -2.9358   -4.6467 C.ar    1  UNL1        0.0410
     15 CL          3.9436   -2.6263   -6.3149 Cl      1  UNL1       -0.0835
     16 C           3.1682   -2.8943   -3.7448 C.ar    1  UNL1       -0.0431
     17 C           3.4002   -3.1280   -2.3873 C.ar    1  UNL1       -0.0568
     18 C           5.1146    1.1532    1.5220 C.ar    1  UNL1        0.0208
     19 C           4.1502    1.3852    2.5138 C.ar    1  UNL1       -0.0510
     20 C           3.9629    2.6592    3.0533 C.ar    1  UNL1       -0.0611
     21 C           4.7541    3.7189    2.6203 C.ar    1  UNL1       -0.0617
     22 C           5.7375    3.4997    1.6577 C.ar    1  UNL1       -0.0611
     23 C           5.9200    2.2254    1.1139 C.ar    1  UNL1       -0.0510
     24 H           0.8685   -2.0737    2.2059 H       1  UNL1        0.0661
     25 H           0.4961   -1.7756    0.4709 H       1  UNL1        0.0661
     26 H           0.6707   -3.4310    1.0763 H       1  UNL1        0.0661
     27 H           5.8099   -4.2721   -0.2998 H       1  UNL1        0.0378
     28 H           4.1112   -4.0362    0.0567 H       1  UNL1        0.0378
     29 H           6.7683   -3.6458   -2.5102 H       1  UNL1        0.0621
     30 H           6.3462   -3.2569   -4.9076 H       1  UNL1        0.0632
     31 H           2.1616   -2.6738   -4.0899 H       1  UNL1        0.0632
     32 H           2.5585   -3.0958   -1.7003 H       1  UNL1        0.0621
     33 H           3.5177    0.5782    2.8762 H       1  UNL1        0.0625
     34 H           3.1922    2.8224    3.8011 H       1  UNL1        0.0618
     35 H           4.6017    4.7138    3.0318 H       1  UNL1        0.0618
     36 H           6.3585    4.3274    1.3220 H       1  UNL1        0.0618
     37 H           6.6852    2.0828    0.3534 H       1  UNL1        0.0625
@<TRIPOS>BOND
     1     1    24    1
     2     1    25    1
     3     1    26    1
     4     2     1    1
     5     3     2    1
     6     4     3    2
     7     5     3    1
     8     6     5   ar
     9     7     6   ar
    10     8     7   ar
    11     9     8   ar
    12     9     5   ar
    13    10     9    1
    14    10    27    1
    15    10    28    1
    16    11    10    1
    17    12    11   ar
    18    12    29    1
    19    13    12   ar
    20    13    30    1
    21    14    13   ar
    22    15    14    1
    23    16    14   ar
    24    16    31    1
    25    17    16   ar
    26    17    11   ar
    27    17    32    1
    28    18     6    1
    29    19    18   ar
    30    19    33    1
    31    20    19   ar
    32    20    34    1
    33    21    20   ar
    34    21    35    1
    35    22    21   ar
    36    22    36    1
    37    23    22   ar
    38    23    18   ar
    39    23    37    1
