@<TRIPOS>MOLECULE
mol_89_akc_jejmech2022114367
>88.sdf
 43 46 0 0 0
SMALL
GASTEIGER

@<TRIPOS>ATOM
      1 C           0.9501    0.1967    0.1015 C.3     1  UNL1       -0.0216
      2 C           2.4344   -0.0006    0.0736 C.ar    1  UNL1        0.0512
      3 C           3.1022   -1.2434    0.0596 C.ar    1  UNL1        0.0491
      4 C           4.4965   -1.1890    0.0567 C.ar    1  UNL1        0.1468
      5 N           5.2546   -0.0823    0.0361 N.ar    1  UNL1       -0.2176
      6 C           4.5190    1.0374    0.0365 C.ar    1  UNL1        0.1185
      7 N           3.1832    1.1405    0.0575 N.ar    1  UNL1       -0.2399
      8 N           4.9793   -2.4765    0.0504 N.ar    1  UNL1       -0.3025
      9 C           3.9220   -3.3556    0.0557 C.ar    1  UNL1        0.0189
     10 C           2.7390   -2.6351    0.0415 C.ar    1  UNL1        0.0289
     11 C           1.4329   -3.2799   -0.0602 C.ar    1  UNL1        0.0731
     12 N           0.4771   -2.5738   -0.7041 N.ar    1  UNL1       -0.2549
     13 C          -0.7312   -3.1516   -0.8668 C.ar    1  UNL1        0.0283
     14 C          -1.0391   -4.4235   -0.4277 C.ar    1  UNL1       -0.0436
     15 C          -0.0495   -5.1407    0.2321 C.ar    1  UNL1       -0.0583
     16 C           1.2022   -4.5613    0.4280 C.ar    1  UNL1       -0.0356
     17 C1*         6.3765   -2.8818   -0.0290 C.3     1  UNL1        0.1654
     18 O4*         7.0965   -2.3678    1.1117 O.3     1  UNL1       -0.3457
     19 C4*         8.3867   -1.9137    0.6576 C.3     1  UNL1        0.1126
     20 C5*         8.4912   -0.4002    0.8488 C.3     1  UNL1        0.0730
     21 O5*         9.7757    0.0593    0.4423 O.3     1  UNL1       -0.3924
     22 C3*         8.5380   -2.3349   -0.8095 C.3     1  UNL1        0.1135
     23 O3*         9.1409   -3.6350   -0.9126 O.3     1  UNL1       -0.3864
     24 C2*         7.0954   -2.4050   -1.2919 C.3     1  UNL1        0.1285
     25 O2*         6.9015   -3.2758   -2.4058 O.3     1  UNL1       -0.3847
     26 H           0.5145   -0.0830   -0.8601 H       1  UNL1        0.0293
     27 H           0.5028   -0.3906    0.9081 H       1  UNL1        0.0293
     28 H           0.7005    1.2482    0.2784 H       1  UNL1        0.0293
     29 H           5.0669    1.9732    0.0175 H       1  UNL1        0.1047
     30 H           4.1051   -4.4245    0.0204 H       1  UNL1        0.0817
     31 H          -1.4705   -2.5383   -1.3765 H       1  UNL1        0.0830
     32 H          -2.0231   -4.8463   -0.5967 H       1  UNL1        0.0633
     33 H          -0.2470   -6.1495    0.5869 H       1  UNL1        0.0619
     34 H           1.9748   -5.1160    0.9484 H       1  UNL1        0.0639
     35 H1*         6.4008   -3.9771    0.0402 H       1  UNL1        0.0866
     36 H4*         9.1479   -2.4047    1.2744 H       1  UNL1        0.0647
     37 H5*1        7.7381    0.1326    0.2654 H       1  UNL1        0.0584
     38 H5*2        8.3385   -0.1426    1.9024 H       1  UNL1        0.0584
     39 H5*         9.7917    1.0192    0.6089 H       1  UNL1        0.2095
     40 H3*         9.1448   -1.6573   -1.4171 H       1  UNL1        0.0647
     41 H3*        10.0480   -3.5556   -0.5514 H       1  UNL1        0.2100
     42 H2*         6.7696   -1.4065   -1.5976 H       1  UNL1        0.0665
     43 H2*         7.7540   -3.3376   -2.8734 H       1  UNL1        0.2101
@<TRIPOS>BOND
     1     1    26    1
     2     1    27    1
     3     1    28    1
     4     2     1    1
     5     3     2   ar
     6     4     3   ar
     7     5     4   ar
     8     6     5   ar
     9     6    29    1
    10     7     6   ar
    11     7     2   ar
    12     8     4   ar
    13     9     8   ar
    14     9    30    1
    15    10     9   ar
    16    10     3   ar
    17    11    10    1
    18    12    11   ar
    19    13    12   ar
    20    13    31    1
    21    14    13   ar
    22    14    32    1
    23    15    14   ar
    24    15    33    1
    25    16    15   ar
    26    16    11   ar
    27    16    34    1
    28    17     8    1
    29    17    35    1
    30    18    17    1
    31    19    18    1
    32    19    36    1
    33    20    19    1
    34    20    37    1
    35    20    38    1
    36    21    20    1
    37    21    39    1
    38    22    19    1
    39    22    40    1
    40    23    22    1
    41    23    41    1
    42    24    22    1
    43    24    17    1
    44    24    42    1
    45    25    24    1
    46    25    43    1
