@<TRIPOS>MOLECULE
mol_91_akc_pharmaceutics14071373
>90.sdf
 41 42 0 0 0
SMALL
GASTEIGER

@<TRIPOS>ATOM
      1 C          -6.5255   -3.9484   -3.2679 C.3     1  UNL1       -0.0397
      2 C          -5.7648   -2.9897   -2.3984 C.ar    1  UNL1       -0.0503
      3 C          -4.9744   -1.9759   -2.9586 C.ar    1  UNL1       -0.0570
      4 C          -4.2586   -1.1014   -2.1378 C.ar    1  UNL1       -0.0351
      5 C          -4.3436   -1.2407   -0.7482 C.ar    1  UNL1        0.1053
      6 C          -5.1273   -2.2456   -0.1785 C.ar    1  UNL1       -0.0351
      7 C          -5.8349   -3.1177   -1.0044 C.ar    1  UNL1       -0.0570
      8 S          -3.4737   -0.1033    0.2969 S.O2    1  UNL1        0.0590
      9 O          -3.7649   -0.4428    1.6766 O.2     1  UNL1       -0.1530
     10 O          -2.1210    0.0113   -0.1970 O.2     1  UNL1       -0.1530
     11 N          -4.2233    1.3638   -0.0401 N.3     1  UNL1       -0.1794
     12 C          -5.6955    1.5013   -0.0536 C.3     1  UNL1        0.0919
     13 C          -6.3910    1.1663    1.2703 C.3     1  UNL1       -0.0037
     14 C          -6.1217    1.9056    2.5606 C.ar    1  UNL1       -0.0454
     15 C          -5.2905    3.0204    2.6928 C.ar    1  UNL1       -0.0585
     16 C          -5.2181    3.7106    3.9081 C.ar    1  UNL1       -0.0615
     17 C          -5.9516    3.2808    5.0138 C.ar    1  UNL1       -0.0617
     18 C          -6.7279    2.1327    4.9185 C.ar    1  UNL1       -0.0615
     19 C          -6.8072    1.4510    3.7045 C.ar    1  UNL1       -0.0585
     20 C          -6.0854    2.8740   -0.6234 C.2     1  UNL1        0.1665
     21 O          -5.3639    3.8688   -0.4979 O.2     1  UNL1       -0.2944
     22 C          -7.3764    2.9619   -1.4087 C.3     1  UNL1        0.0825
     23 CL         -7.2048    2.0455   -2.9212 Cl      1  UNL1       -0.1173
     24 H          -6.1884   -4.9729   -3.0793 H       1  UNL1        0.0278
     25 H          -7.5976   -3.8782   -3.0568 H       1  UNL1        0.0278
     26 H          -6.3758   -3.7347   -4.3306 H       1  UNL1        0.0278
     27 H          -4.9077   -1.8656   -4.0398 H       1  UNL1        0.0621
     28 H          -3.6442   -0.3227   -2.5837 H       1  UNL1        0.0637
     29 H          -5.1906   -2.3590    0.9017 H       1  UNL1        0.0637
     30 H          -6.4382   -3.9053   -0.5566 H       1  UNL1        0.0621
     31 H          -3.6985    1.9585   -0.6873 H       1  UNL1        0.1488
     32 H          -6.0622    0.7846   -0.7938 H       1  UNL1        0.0559
     33 H          -6.2328    0.1005    1.4735 H       1  UNL1        0.0333
     34 H          -7.4709    1.2713    1.0955 H       1  UNL1        0.0333
     35 H          -4.6839    3.3822    1.8673 H       1  UNL1        0.0620
     36 H          -4.5880    4.5934    3.9922 H       1  UNL1        0.0618
     37 H          -5.9081    3.8328    5.9485 H       1  UNL1        0.0618
     38 H          -7.2781    1.7700    5.7825 H       1  UNL1        0.0618
     39 H          -7.4200    0.5528    3.6506 H       1  UNL1        0.0620
     40 H          -8.2143    2.5664   -0.8319 H       1  UNL1        0.0508
     41 H          -7.5806    4.0030   -1.6737 H       1  UNL1        0.0508
@<TRIPOS>BOND
     1     1    24    1
     2     1    25    1
     3     1    26    1
     4     2     1    1
     5     3     2   ar
     6     3    27    1
     7     4     3   ar
     8     4    28    1
     9     5     4   ar
    10     6     5   ar
    11     6    29    1
    12     7     6   ar
    13     7     2   ar
    14     7    30    1
    15     8     5    1
    16     9     8    2
    17    10     8    2
    18    11     8    1
    19    11    31    1
    20    12    11    1
    21    12    32    1
    22    13    12    1
    23    13    33    1
    24    13    34    1
    25    14    13    1
    26    15    14   ar
    27    15    35    1
    28    16    15   ar
    29    16    36    1
    30    17    16   ar
    31    17    37    1
    32    18    17   ar
    33    18    38    1
    34    19    18   ar
    35    19    14   ar
    36    19    39    1
    37    20    12    1
    38    21    20    2
    39    22    20    1
    40    22    40    1
    41    22    41    1
    42    23    22    1
