@<TRIPOS>MOLECULE
mol_92_akc_jexppara2022108269
>91.sdf
 55 57 0 0 0
SMALL
GASTEIGER

@<TRIPOS>ATOM
      1 C           2.3324   -0.5270    5.2406 C.3     1  UNL1        0.0790
      2 O           2.5843    0.8114    4.8353 O.3     1  UNL1       -0.4914
      3 C           2.7527    1.0475    3.4952 C.ar    1  UNL1        0.1618
      4 C           2.2870    0.2886    2.4150 C.ar    1  UNL1        0.1619
      5 O           1.4378   -0.7754    2.6479 O.3     1  UNL1       -0.4883
      6 C           0.6454   -1.1381    1.5122 C.3     1  UNL1        0.0901
      7 C          -0.5645   -1.9766    1.9100 C.3     1  UNL1       -0.0131
      8 C          -1.5419   -2.1140    0.7359 C.3     1  UNL1       -0.0041
      9 C          -0.9410   -2.7423   -0.4722 C.ar    1  UNL1        0.0830
     10 C          -0.9564   -4.0527   -0.8934 C.ar    1  UNL1        0.0490
     11 N          -0.2507   -4.0337   -2.0627 N.ar    1  UNL1       -0.2471
     12 C          -0.0827   -5.1124   -3.0198 C.3     1  UNL1        0.0682
     13 C           1.0894   -5.9996   -2.6870 C.ar    1  UNL1       -0.0261
     14 C           0.9300   -7.1149   -1.8531 C.ar    1  UNL1       -0.0566
     15 C           2.0145   -7.9474   -1.5628 C.ar    1  UNL1       -0.0585
     16 C           3.2785   -7.6792   -2.0969 C.ar    1  UNL1       -0.0504
     17 C           4.4472   -8.5733   -1.8031 C.3     1  UNL1       -0.0397
     18 C           3.4416   -6.5647   -2.9274 C.ar    1  UNL1       -0.0585
     19 C           2.3597   -5.7281   -3.2137 C.ar    1  UNL1       -0.0566
     20 N           0.1739   -2.7901   -2.3536 N.ar    1  UNL1       -0.0652
     21 N          -0.2457   -1.9891   -1.3839 N.ar    1  UNL1       -0.1345
     22 C           2.6504    0.6745    1.1126 C.ar    1  UNL1       -0.0160
     23 C           3.3267    1.8700    0.8719 C.ar    1  UNL1       -0.0546
     24 C           3.6940    2.6893    1.9361 C.ar    1  UNL1       -0.0400
     25 C           4.2764    4.0568    1.6716 C.3     1  UNL1       -0.0096
     26 C           3.2063    5.1159    1.6636 C.2     1  UNL1       -0.0868
     27 C           2.8679    5.8563    0.6000 C.2     1  UNL1       -0.1023
     28 C           3.4358    2.2518    3.2437 C.ar    1  UNL1       -0.0128
     29 H           1.2556   -0.7181    5.2439 H       1  UNL1        0.0660
     30 H           2.8728   -1.2675    4.6443 H       1  UNL1        0.0660
     31 H           2.6883   -0.6287    6.2727 H       1  UNL1        0.0660
     32 H           0.2687   -0.2365    1.0117 H       1  UNL1        0.0696
     33 H           1.2758   -1.7208    0.8312 H       1  UNL1        0.0696
     34 H          -0.2330   -2.9614    2.2609 H       1  UNL1        0.0302
     35 H          -1.0774   -1.5059    2.7572 H       1  UNL1        0.0302
     36 H          -2.4129   -2.6970    1.0570 H       1  UNL1        0.0330
     37 H          -1.9209   -1.1212    0.4624 H       1  UNL1        0.0330
     38 H          -1.3963   -4.9504   -0.4871 H       1  UNL1        0.0845
     39 H          -1.0145   -5.6895   -3.0320 H       1  UNL1        0.0559
     40 H           0.0299   -4.6710   -4.0171 H       1  UNL1        0.0559
     41 H          -0.0416   -7.3522   -1.4253 H       1  UNL1        0.0621
     42 H           1.8633   -8.8090   -0.9163 H       1  UNL1        0.0620
     43 H           4.7739   -9.0793   -2.7172 H       1  UNL1        0.0278
     44 H           5.2791   -7.9882   -1.3982 H       1  UNL1        0.0278
     45 H           4.1902   -9.3399   -1.0647 H       1  UNL1        0.0278
     46 H           4.4162   -6.3408   -3.3565 H       1  UNL1        0.0620
     47 H           2.5169   -4.8628   -3.8556 H       1  UNL1        0.0621
     48 H           2.3777    0.0858    0.2397 H       1  UNL1        0.0655
     49 H           3.5194    2.1718   -0.1534 H       1  UNL1        0.0622
     50 H           5.0199    4.2967    2.4395 H       1  UNL1        0.0355
     51 H           4.8201    4.0449    0.7180 H       1  UNL1        0.0355
     52 H           2.6730    5.2725    2.6001 H       1  UNL1        0.0570
     53 H           3.3565    5.7364   -0.3616 H       1  UNL1        0.0532
     54 H           2.0749    6.5950    0.6708 H       1  UNL1        0.0532
     55 H           3.7397    2.8686    4.0868 H       1  UNL1        0.0658
@<TRIPOS>BOND
     1     1    29    1
     2     1    30    1
     3     1    31    1
     4     2     1    1
     5     3     2    1
     6     4     3   ar
     7     5     4    1
     8     6     5    1
     9     6    32    1
    10     6    33    1
    11     7     6    1
    12     7    34    1
    13     7    35    1
    14     8     7    1
    15     8    36    1
    16     8    37    1
    17     9     8    1
    18    10     9   ar
    19    10    38    1
    20    11    10   ar
    21    12    11    1
    22    12    39    1
    23    12    40    1
    24    13    12    1
    25    14    13   ar
    26    14    41    1
    27    15    14   ar
    28    15    42    1
    29    16    15   ar
    30    17    16    1
    31    17    43    1
    32    17    44    1
    33    17    45    1
    34    18    16   ar
    35    18    46    1
    36    19    18   ar
    37    19    13   ar
    38    19    47    1
    39    20    11   ar
    40    21    20   ar
    41    21     9   ar
    42    22     4   ar
    43    22    48    1
    44    23    22   ar
    45    23    49    1
    46    24    23   ar
    47    25    24    1
    48    25    50    1
    49    25    51    1
    50    26    25    1
    51    26    52    1
    52    27    26    2
    53    27    53    1
    54    27    54    1
    55    28    24   ar
    56    28     3   ar
    57    28    55    1
