@<TRIPOS>MOLECULE
mol_95_akc_cmdc202200023
>94.sdf
 28 29 0 0 0
SMALL
GASTEIGER

@<TRIPOS>ATOM
      1 O          -2.2464    0.4762    0.1378 O.2     1  UNL1       -0.2733
      2 C          -1.0799    0.1103    0.0933 C.2     1  UNL1        0.2433
      3 C          -0.6446   -1.3397    0.0444 C.3     1  UNL1        0.1161
      4 N           0.7865   -1.1899    0.0722 N.am    1  UNL1       -0.1676
      5 N           1.5891   -2.2935   -0.0672 N.2     1  UNL1       -0.1802
      6 C           2.7928   -2.2361    0.4155 C.2     1  UNL1        0.0882
      7 C           3.6835   -3.3625    0.2794 C.ar    1  UNL1        0.1501
      8 C           3.5711   -4.5615   -0.4063 C.ar    1  UNL1       -0.0125
      9 C           4.7601   -5.2994   -0.1618 C.ar    1  UNL1        0.0086
     10 C           5.5156   -4.5015    0.6630 C.ar    1  UNL1        0.2802
     11 O           4.8868   -3.3246    0.9390 O.2     1  UNL1       -0.4330
     12 N           6.7955   -4.7042    1.2619 N.pl3   1  UNL1        0.0926
     13 O           7.3451   -5.7903    1.0294 O.2     1  UNL1       -0.1231
     14 O           7.2592   -3.7953    1.9649 O.2     1  UNL1       -0.1231
     15 C           1.1656    0.1658   -0.0165 C.2     1  UNL1        0.3319
     16 O           2.3022    0.5954   -0.1509 O.2     1  UNL1       -0.2501
     17 N           0.0194    0.9169    0.0513 N.am    1  UNL1       -0.2114
     18 C          -0.0323    2.3663    0.1181 C.3     1  UNL1        0.0849
     19 C           0.1377    2.7913    1.5675 C.1     1  UNL1       -0.0859
     20 C           0.2836    3.1560    2.8108 C.1     1  UNL1       -0.1176
     21 H          -0.9581   -1.8106   -0.8898 H       1  UNL1        0.0582
     22 H          -0.9773   -1.8849    0.9296 H       1  UNL1        0.0582
     23 H           3.1733   -1.3697    0.9828 H       1  UNL1        0.0883
     24 H           2.7253   -4.8632   -1.0109 H       1  UNL1        0.0656
     25 H           5.0274   -6.2787   -0.5303 H       1  UNL1        0.0673
     26 H           0.7809    2.7859   -0.4824 H       1  UNL1        0.0606
     27 H          -0.9941    2.7244   -0.2616 H       1  UNL1        0.0606
     28 H           0.4045    3.4522    3.8276 H       1  UNL1        0.1228
@<TRIPOS>BOND
     1     2     1    2
     2     3     2    1
     3     3    21    1
     4     3    22    1
     5     4     3    1
     6     5     4    1
     7     6     5    2
     8     6    23    1
     9     7     6    1
    10     8     7   ar
    11     8    24    1
    12     9     8   ar
    13     9    25    1
    14    10     9   ar
    15    11    10   ar
    16    11     7   ar
    17    12    10    1
    18    13    12    2
    19    14    12    2
    20    15     4   am
    21    16    15    2
    22    17    15   am
    23    17     2   am
    24    18    17    1
    25    18    26    1
    26    18    27    1
    27    19    18    1
    28    20    19    3
    29    20    28    1
