@<TRIPOS>MOLECULE
mol_97_akc_d2md00078d
>96.sdf
 65 68 0 0 0
SMALL
GASTEIGER

@<TRIPOS>ATOM
      1 C          -1.0571    1.3691   -2.9316 C.3     1  UNL1        0.0788
      2 O           0.1007    1.0479   -2.1765 O.3     1  UNL1       -0.4951
      3 C           1.2598    0.8928   -2.8757 C.ar    1  UNL1        0.1201
      4 C           1.4562    1.1421   -4.2256 C.ar    1  UNL1       -0.0194
      5 C           2.7529    1.1824   -4.7550 C.ar    1  UNL1       -0.0505
      6 C           3.8865    1.0153   -3.9403 C.ar    1  UNL1       -0.0162
      7 C           3.6185    0.4307   -2.6898 C.ar    1  UNL1       -0.0505
      8 C           2.3410    0.4618   -2.1272 C.ar    1  UNL1       -0.0194
      9 C           5.1538    1.8699   -4.1589 C.ar    1  UNL1        0.0053
     10 C           5.8962    2.1956   -3.0197 C.ar    1  UNL1        0.0680
     11 C           5.7699    3.4885   -2.5612 C.ar    1  UNL1        0.0719
     12 C           5.7024    3.4825   -1.0530 C.3     1  UNL1        0.0589
     13 N           5.9799    2.0926   -0.7093 N.am    1  UNL1       -0.2779
     14 C           6.2857    1.3802   -1.8585 C.2     1  UNL1        0.2501
     15 O           6.7771    0.2717   -1.9593 O.2     1  UNL1       -0.2699
     16 C           5.9612    1.5348    0.6776 C.3     1  UNL1        0.1084
     17 C           5.3950    0.0893    0.6951 C.3     1  UNL1       -0.0352
     18 C           7.3937    1.4818    1.2250 C.3     1  UNL1       -0.0352
     19 C           5.0380    2.3508    1.6610 C.2     1  UNL1        0.2366
     20 O           4.0690    1.8420    2.2249 O.2     1  UNL1       -0.2735
     21 N           5.3960    3.6720    1.8606 N.am    1  UNL1       -0.3088
     22 C           4.6945    4.5996    2.7677 C.3     1  UNL1        0.0262
     23 C           4.8762    4.1583    4.2263 C.3     1  UNL1       -0.0442
     24 C           5.3148    5.9941    2.5876 C.3     1  UNL1       -0.0442
     25 C           3.1949    4.7107    2.4322 C.3     1  UNL1       -0.0442
     26 N           5.4033    4.5356   -3.3196 N.ar    1  UNL1       -0.2492
     27 C           5.1500    4.2602   -4.6096 C.ar    1  UNL1        0.0722
     28 C           5.0705    2.9382   -5.1158 C.ar    1  UNL1        0.0123
     29 C           4.8069    2.7616   -6.5111 C.ar    1  UNL1       -0.0102
     30 C           4.5271    3.8501   -7.3354 C.ar    1  UNL1        0.1208
     31 O           4.1977    3.8168   -8.6618 O.3     1  UNL1       -0.4951
     32 C           4.0189    2.5476   -9.2734 C.3     1  UNL1        0.0788
     33 C           4.5491    5.1296   -6.7934 C.ar    1  UNL1       -0.0179
     34 C           4.8743    5.3228   -5.4506 C.ar    1  UNL1       -0.0323
     35 H          -0.9186    2.2611   -3.5524 H       1  UNL1        0.0660
     36 H          -1.3488    0.5062   -3.5367 H       1  UNL1        0.0660
     37 H          -1.8656    1.5859   -2.2280 H       1  UNL1        0.0660
     38 H           0.6365    1.4045   -4.8865 H       1  UNL1        0.0654
     39 H           2.8305    1.4848   -5.7911 H       1  UNL1        0.0625
     40 H           4.4011    0.0565   -2.0457 H       1  UNL1        0.0625
     41 H           2.2109    0.2037   -1.0784 H       1  UNL1        0.0654
     42 H           6.4572    4.1437   -0.6254 H       1  UNL1        0.0530
     43 H           4.6871    3.7399   -0.7345 H       1  UNL1        0.0530
     44 H           5.9827   -0.6089    0.0922 H       1  UNL1        0.0255
     45 H           5.3801   -0.3181    1.7129 H       1  UNL1        0.0255
     46 H           4.3640    0.0649    0.3247 H       1  UNL1        0.0255
     47 H           7.8637    2.4708    1.2233 H       1  UNL1        0.0255
     48 H           7.4085    1.1092    2.2548 H       1  UNL1        0.0255
     49 H           8.0244    0.8249    0.6169 H       1  UNL1        0.0255
     50 H           6.3324    3.9379    1.5838 H       1  UNL1        0.1493
     51 H           5.9394    4.0706    4.4784 H       1  UNL1        0.0250
     52 H           4.4241    4.8789    4.9167 H       1  UNL1        0.0250
     53 H           4.4151    3.1841    4.4191 H       1  UNL1        0.0250
     54 H           5.2130    6.3385    1.5521 H       1  UNL1        0.0250
     55 H           4.8476    6.7322    3.2392 H       1  UNL1        0.0250
     56 H           6.3927    5.9774    2.8123 H       1  UNL1        0.0250
     57 H           3.0434    4.9883    1.3822 H       1  UNL1        0.0250
     58 H           2.6549    3.7738    2.6035 H       1  UNL1        0.0250
     59 H           2.7102    5.4721    3.0537 H       1  UNL1        0.0250
     60 H           4.8005    1.7515   -6.9080 H       1  UNL1        0.0661
     61 H           4.9359    1.9528   -9.2314 H       1  UNL1        0.0660
     62 H           3.1744    2.0116   -8.8285 H       1  UNL1        0.0660
     63 H           3.7848    2.7214  -10.3292 H       1  UNL1        0.0660
     64 H           4.3080    5.9881   -7.4156 H       1  UNL1        0.0655
     65 H           4.8850    6.3331   -5.0475 H       1  UNL1        0.0640
@<TRIPOS>BOND
     1     1    35    1
     2     1    36    1
     3     1    37    1
     4     2     1    1
     5     3     2    1
     6     4     3   ar
     7     4    38    1
     8     5     4   ar
     9     5    39    1
    10     6     5   ar
    11     7     6   ar
    12     7    40    1
    13     8     7   ar
    14     8     3   ar
    15     8    41    1
    16     9     6    1
    17    10     9   ar
    18    11    10   ar
    19    12    11    1
    20    12    42    1
    21    12    43    1
    22    13    12    1
    23    14    13   am
    24    14    10    1
    25    15    14    2
    26    16    13    1
    27    17    16    1
    28    17    44    1
    29    17    45    1
    30    17    46    1
    31    18    16    1
    32    18    47    1
    33    18    48    1
    34    18    49    1
    35    19    16    1
    36    20    19    2
    37    21    19   am
    38    21    50    1
    39    22    21    1
    40    23    22    1
    41    23    51    1
    42    23    52    1
    43    23    53    1
    44    24    22    1
    45    24    54    1
    46    24    55    1
    47    24    56    1
    48    25    22    1
    49    25    57    1
    50    25    58    1
    51    25    59    1
    52    26    11   ar
    53    27    26   ar
    54    28    27   ar
    55    28     9   ar
    56    29    28   ar
    57    29    60    1
    58    30    29   ar
    59    31    30    1
    60    32    31    1
    61    32    61    1
    62    32    62    1
    63    32    63    1
    64    33    30   ar
    65    33    64    1
    66    34    33   ar
    67    34    27   ar
    68    34    65    1
