@<TRIPOS>MOLECULE
mol_98_akc_jexppara2022108253
>97.sdf
 40 43 0 0 0
SMALL
GASTEIGER

@<TRIPOS>ATOM
      1 F          -0.0077    4.9972    1.1140 F       1  UNL1       -0.2051
      2 C           1.1391    4.3104    1.0199 C.ar    1  UNL1        0.1295
      3 C           1.1516    2.9924    0.5433 C.ar    1  UNL1        0.0238
      4 C          -0.0881    2.2738    0.0496 C.3     1  UNL1        0.0526
      5 N          -1.3216    3.0276    0.0746 N.am    1  UNL1       -0.2238
      6 C          -2.1366    3.0117    1.1730 C.2     1  UNL1        0.2861
      7 O          -1.9672    2.3858    2.2093 O.2     1  UNL1       -0.2620
      8 S          -3.5324    4.0349    0.9027 S.3     1  UNL1       -0.0258
      9 C          -2.9421    4.5671   -0.6263 C.2     1  UNL1        0.0798
     10 C          -3.4622    5.5255   -1.4059 C.2     1  UNL1       -0.0336
     11 C          -4.6214    6.2937   -1.0925 C.ar    1  UNL1        0.0034
     12 C          -5.8954    5.9190   -1.4533 C.ar    1  UNL1        0.0100
     13 N          -6.7650    6.8226   -0.9059 N.ar    1  UNL1       -0.3600
     14 C          -6.0742    7.7808   -0.1972 C.ar    1  UNL1        0.0492
     15 C          -4.7069    7.5012   -0.3314 C.ar    1  UNL1        0.0370
     16 C          -3.8188    8.3949    0.3090 C.ar    1  UNL1        0.1359
     17 C          -4.2710    9.4804    1.0719 C.ar    1  UNL1       -0.0307
     18 C          -5.6383    9.7007    1.1923 C.ar    1  UNL1       -0.0576
     19 C          -6.5606    8.8624    0.5542 C.ar    1  UNL1       -0.0376
     20 N          -2.3942    8.1985    0.1609 N.pl3   1  UNL1        0.0571
     21 O          -1.9309    8.2168   -0.9878 O.2     1  UNL1       -0.1261
     22 O          -1.7305    8.0794    1.1999 O.2     1  UNL1       -0.1261
     23 C          -1.6941    3.8392   -0.9727 C.2     1  UNL1        0.2605
     24 O          -1.1067    3.9585   -2.0389 O.2     1  UNL1       -0.2690
     25 C           2.3974    2.3378    0.5161 C.ar    1  UNL1        0.0484
     26 CL          2.5474    0.6949   -0.0087 Cl      1  UNL1       -0.0831
     27 C           3.5721    2.9896    0.9135 C.ar    1  UNL1       -0.0429
     28 C           3.5279    4.3099    1.3529 C.ar    1  UNL1       -0.0577
     29 C           2.3049    4.9668    1.4144 C.ar    1  UNL1       -0.0260
     30 H           0.0862    1.9667   -0.9890 H       1  UNL1        0.0520
     31 H          -0.2344    1.3709    0.6547 H       1  UNL1        0.0520
     32 H          -2.9561    5.7748   -2.3390 H       1  UNL1        0.0637
     33 H          -6.2637    5.0744   -2.0216 H       1  UNL1        0.0813
     34 H          -7.7724    6.7820   -0.9854 H       1  UNL1        0.1654
     35 H          -3.5667   10.1469    1.5643 H       1  UNL1        0.0640
     36 H          -5.9993   10.5376    1.7877 H       1  UNL1        0.0619
     37 H          -7.6275    9.0445    0.6527 H       1  UNL1        0.0638
     38 H           4.5276    2.4709    0.8763 H       1  UNL1        0.0632
     39 H           4.4402    4.8218    1.6476 H       1  UNL1        0.0619
     40 H           2.2437    5.9945    1.7625 H       1  UNL1        0.0646
@<TRIPOS>BOND
     1     2     1    1
     2     3     2   ar
     3     4     3    1
     4     4    30    1
     5     4    31    1
     6     5     4    1
     7     6     5   am
     8     7     6    2
     9     8     6    1
    10     9     8    1
    11    10     9    2
    12    10    32    1
    13    11    10    1
    14    12    11   ar
    15    12    33    1
    16    13    12   ar
    17    13    34    1
    18    14    13   ar
    19    15    14   ar
    20    15    11   ar
    21    16    15   ar
    22    17    16   ar
    23    17    35    1
    24    18    17   ar
    25    18    36    1
    26    19    18   ar
    27    19    14   ar
    28    19    37    1
    29    20    16    1
    30    21    20    2
    31    22    20    2
    32    23     9    1
    33    23     5   am
    34    24    23    2
    35    25     3   ar
    36    26    25    1
    37    27    25   ar
    38    27    38    1
    39    28    27   ar
    40    28    39    1
    41    29    28   ar
    42    29     2   ar
    43    29    40    1
