@<TRIPOS>MOLECULE
mol_99_akc_s00436_022_07431_9
>98.sdf
 51 51 0 0 0
SMALL
GASTEIGER

@<TRIPOS>ATOM
      1 C           9.2122    3.3612   -4.7275 C.3     1  UNL1       -0.0653
      2 C           8.7134    2.5368   -3.5530 C.3     1  UNL1       -0.0559
      3 C           9.2048    1.0943   -3.6402 C.3     1  UNL1       -0.0533
      4 C           8.6962    0.2691   -2.4608 C.3     1  UNL1       -0.0531
      5 C           9.1861   -1.1723   -2.5520 C.3     1  UNL1       -0.0531
      6 C           8.6749   -2.0035   -1.3766 C.3     1  UNL1       -0.0531
      7 C           9.1924   -3.4351   -1.4763 C.3     1  UNL1       -0.0530
      8 C           8.7303   -4.2888   -0.2959 C.3     1  UNL1       -0.0514
      9 C           9.2122   -5.7367   -0.3966 C.3     1  UNL1       -0.0332
     10 C          10.7332   -5.8653   -0.3811 C.3     1  UNL1        0.0469
     11 N          11.1451   -7.2612   -0.5256 N.ar    1  UNL1       -0.2114
     12 C          11.4338   -7.9194   -1.7124 C.ar    1  UNL1        0.1016
     13 C          11.8055   -9.1851   -1.3420 C.ar    1  UNL1        0.2667
     14 C          12.2558  -10.3426   -2.1460 C.3     1  UNL1        0.1801
     15 O          13.5807  -10.7452   -1.7711 O.3     1  UNL1       -0.4538
     16 C          14.5700   -9.9584   -2.2785 C.2     1  UNL1        0.3044
     17 C          15.9218  -10.4540   -1.8620 C.3     1  UNL1        0.0332
     18 O          14.3694   -8.9605   -2.9541 O.2     1  UNL1       -0.2512
     19 N          11.7038   -9.1549    0.0608 N.ar    1  UNL1       -0.0663
     20 C          12.0112  -10.2190    1.0115 C.3     1  UNL1        0.1683
     21 N          11.3038   -7.9940    0.5613 N.ar    1  UNL1        0.0946
     22 H           8.8497    4.3906   -4.6483 H       1  UNL1        0.0230
     23 H          10.3063    3.3854   -4.7517 H       1  UNL1        0.0230
     24 H           8.8564    2.9460   -5.6758 H       1  UNL1        0.0230
     25 H           9.0601    2.9922   -2.6180 H       1  UNL1        0.0263
     26 H           7.6174    2.5564   -3.5370 H       1  UNL1        0.0263
     27 H           8.8626    0.6439   -4.5802 H       1  UNL1        0.0265
     28 H          10.3016    1.0782   -3.6560 H       1  UNL1        0.0265
     29 H           9.0421    0.7161   -1.5209 H       1  UNL1        0.0265
     30 H           7.5997    0.2846   -2.4435 H       1  UNL1        0.0265
     31 H           8.8469   -1.6206   -3.4941 H       1  UNL1        0.0265
     32 H          10.2832   -1.1875   -2.5652 H       1  UNL1        0.0265
     33 H           9.0113   -1.5550   -0.4335 H       1  UNL1        0.0265
     34 H           7.5789   -2.0029   -1.3666 H       1  UNL1        0.0265
     35 H           8.8494   -3.8886   -2.4141 H       1  UNL1        0.0265
     36 H          10.2862   -3.4011   -1.5132 H       1  UNL1        0.0265
     37 H           9.0828   -3.8481    0.6444 H       1  UNL1        0.0266
     38 H           7.6340   -4.2879   -0.2558 H       1  UNL1        0.0266
     39 H           8.7947   -6.3076    0.4419 H       1  UNL1        0.0283
     40 H           8.8119   -6.1955   -1.3089 H       1  UNL1        0.0283
     41 H          11.1927   -5.3120   -1.2063 H       1  UNL1        0.0510
     42 H          11.1481   -5.4643    0.5521 H       1  UNL1        0.0510
     43 H          11.3465   -7.3938   -2.6452 H       1  UNL1        0.0893
     44 H          11.5839  -11.1844   -1.9511 H       1  UNL1        0.0812
     45 H          12.1979  -10.1237   -3.2191 H       1  UNL1        0.0812
     46 H          16.4873  -10.7596   -2.7449 H       1  UNL1        0.0342
     47 H          16.4440   -9.6579   -1.3253 H       1  UNL1        0.0342
     48 H          15.8296  -11.3128   -1.1905 H       1  UNL1        0.0342
     49 H          12.8394   -9.8982    1.6500 H       1  UNL1        0.1018
     50 H          11.1260  -10.4159    1.6230 H       1  UNL1        0.1018
     51 H          12.2925  -11.1372    0.4925 H       1  UNL1        0.1018
@<TRIPOS>UNITY_ATOM_ATTR
19 1
charge 1
@<TRIPOS>BOND
     1     1    22    1
     2     1    23    1
     3     1    24    1
     4     2     1    1
     5     2    25    1
     6     2    26    1
     7     3     2    1
     8     3    27    1
     9     3    28    1
    10     4     3    1
    11     4    29    1
    12     4    30    1
    13     5     4    1
    14     5    31    1
    15     5    32    1
    16     6     5    1
    17     6    33    1
    18     6    34    1
    19     7     6    1
    20     7    35    1
    21     7    36    1
    22     8     7    1
    23     8    37    1
    24     8    38    1
    25     9     8    1
    26     9    39    1
    27     9    40    1
    28    10     9    1
    29    10    41    1
    30    10    42    1
    31    11    10    1
    32    12    11   ar
    33    12    43    1
    34    13    12   ar
    35    14    13    1
    36    14    44    1
    37    14    45    1
    38    15    14    1
    39    16    15    1
    40    17    16    1
    41    17    46    1
    42    17    47    1
    43    17    48    1
    44    18    16    2
    45    19    13   ar
    46    20    19    1
    47    20    49    1
    48    20    50    1
    49    20    51    1
    50    21    19   ar
    51    21    11   ar
