@<TRIPOS>MOLECULE
mol_9_akc_1573406417666210216154428
>9.sdf
 25 25 0 0 0
SMALL
GASTEIGER

@<TRIPOS>ATOM
      1 C           1.2895    0.6865    0.0902 C.3     1  UNL1        0.0788
      2 O           2.4572   -0.1106   -0.0737 O.3     1  UNL1       -0.4951
      3 C           3.0549   -0.0763   -1.3036 C.ar    1  UNL1        0.1201
      4 C           2.6143    0.6629   -2.4017 C.ar    1  UNL1       -0.0194
      5 C           3.3156    0.6099   -3.6085 C.ar    1  UNL1       -0.0496
      6 C           4.4596   -0.1839   -3.7230 C.ar    1  UNL1       -0.0052
      7 C           5.1916   -0.2522   -5.0036 C.2     1  UNL1        0.0528
      8 N           4.7869    0.4131   -6.0379 N.2     1  UNL1       -0.1885
      9 N           5.5372    0.2574   -7.1668 N.am    1  UNL1       -0.2186
     10 C           5.2026    0.9071   -8.3241 C.2     1  UNL1        0.1473
     11 N           4.1142    1.7079   -8.2464 N.am    1  UNL1       -0.3394
     12 S           6.0691    0.7293   -9.7268 S.2     1  UNL1       -0.0174
     13 C           4.9104   -0.9240   -2.6295 C.ar    1  UNL1       -0.0496
     14 C           4.2041   -0.8659   -1.4240 C.ar    1  UNL1       -0.0194
     15 H           1.5102    1.7477   -0.0666 H       1  UNL1        0.0660
     16 H           0.4858    0.3482   -0.5726 H       1  UNL1        0.0660
     17 H           0.9432    0.5684    1.1212 H       1  UNL1        0.0660
     18 H           1.7299    1.2888   -2.3568 H       1  UNL1        0.0654
     19 H           2.9589    1.1910   -4.4562 H       1  UNL1        0.0625
     20 H           6.0897   -0.8956   -5.0352 H       1  UNL1        0.0851
     21 H           6.3439   -0.3585   -7.1747 H       1  UNL1        0.1762
     22 H           3.7736    2.2263   -9.0426 H       1  UNL1        0.1440
     23 H           3.6378    1.7451   -7.3539 H       1  UNL1        0.1440
     24 H           5.7978   -1.5464   -2.6976 H       1  UNL1        0.0625
     25 H           4.5488   -1.4428   -0.5683 H       1  UNL1        0.0654
@<TRIPOS>BOND
     1     1    15    1
     2     1    16    1
     3     1    17    1
     4     2     1    1
     5     3     2    1
     6     4     3   ar
     7     4    18    1
     8     5     4   ar
     9     5    19    1
    10     6     5   ar
    11     7     6    1
    12     7    20    1
    13     8     7    2
    14     9     8    1
    15     9    21    1
    16    10     9    1
    17    11    10    1
    18    11    22    1
    19    11    23    1
    20    12    10    2
    21    13     6   ar
    22    13    24    1
    23    14    13   ar
    24    14     3   ar
    25    14    25    1
