> 1_AKC_1573406414666180226163222
>1.sdf
 OpenBabel10042211333D

 43 47  0  0  0  0  0  0  0  0999 V2000
    5.6525    1.5092    0.7691 C   0  0  0  0  0  0  0  0  0  0  0  0
    4.5765    2.2483    1.3345 O   0  0  0  0  0  0  0  0  0  0  0  0
    3.3328    1.8617    0.9176 C   0  0  0  0  0  0  0  0  0  0  0  0
    2.9668    0.5536    0.6041 C   0  0  0  0  0  0  0  0  0  0  0  0
    1.6738    0.2313    0.2051 C   0  0  0  0  0  0  0  0  0  0  0  0
    1.4027   -1.0585   -0.0188 N   0  0  0  0  0  0  0  0  0  0  0  0
    0.1529   -1.4202   -0.4002 C   0  0  0  0  0  0  0  0  0  0  0  0
   -0.8549   -0.4895   -0.6360 C   0  0  0  0  0  0  0  0  0  0  0  0
   -2.1395   -1.0144   -1.1693 C   0  0  0  0  0  0  0  0  0  0  0  0
   -3.1835   -0.3759   -1.1774 O   0  0  0  0  0  0  0  0  0  0  0  0
   -2.1451   -2.4345   -1.7243 C   0  0  0  0  0  0  0  0  0  0  0  0
   -2.9036   -2.7655   -2.6217 O   0  0  0  0  0  0  0  0  0  0  0  0
   -1.2080   -3.3895   -1.1134 C   0  0  0  0  0  0  0  0  0  0  0  0
   -0.1054   -2.8695   -0.4270 C   0  0  0  0  0  0  0  0  0  0  0  0
    0.6887   -3.7835    0.2868 C   0  0  0  0  0  0  0  0  0  0  0  0
    0.3992   -5.1536    0.2958 C   0  0  0  0  0  0  0  0  0  0  0  0
   -0.6704   -5.6496   -0.4465 C   0  0  0  0  0  0  0  0  0  0  0  0
   -1.4714   -4.7666   -1.1683 C   0  0  0  0  0  0  0  0  0  0  0  0
   -0.6215    0.8596   -0.2894 C   0  0  0  0  0  0  0  0  0  0  0  0
   -1.7338    1.8137   -0.1269 C   0  0  0  0  0  0  0  0  0  0  0  0
   -2.3308    1.9134    1.1444 C   0  0  0  0  0  0  0  0  0  0  0  0
   -3.4134    2.7577    1.3694 C   0  0  0  0  0  0  0  0  0  0  0  0
   -3.9140    3.5209    0.3201 C   0  0  0  0  0  0  0  0  0  0  0  0
   -5.2693    4.5419    0.5954 Cl  0  0  0  0  0  0  0  0  0  0  0  0
   -3.3213    3.4581   -0.9429 C   0  0  0  0  0  0  0  0  0  0  0  0
   -2.2315    2.6076   -1.1664 C   0  0  0  0  0  0  0  0  0  0  0  0
    0.6955    1.2423    0.1104 C   0  0  0  0  0  0  0  0  0  0  0  0
    1.0751    2.5643    0.4516 C   0  0  0  0  0  0  0  0  0  0  0  0
    2.3756    2.8651    0.8641 C   0  0  0  0  0  0  0  0  0  0  0  0
    5.5339    1.3783   -0.3135 H   0  0  0  0  0  0  0  0  0  0  0  0
    5.7621    0.5426    1.2692 H   0  0  0  0  0  0  0  0  0  0  0  0
    6.5678    2.0794    0.9397 H   0  0  0  0  0  0  0  0  0  0  0  0
    3.6855   -0.2557    0.7002 H   0  0  0  0  0  0  0  0  0  0  0  0
    1.5250   -3.4236    0.8853 H   0  0  0  0  0  0  0  0  0  0  0  0
    1.0062   -5.8278    0.8988 H   0  0  0  0  0  0  0  0  0  0  0  0
   -0.8926   -6.7153   -0.4463 H   0  0  0  0  0  0  0  0  0  0  0  0
   -2.3219   -5.1445   -1.7296 H   0  0  0  0  0  0  0  0  0  0  0  0
   -1.9582    1.3073    1.9688 H   0  0  0  0  0  0  0  0  0  0  0  0
   -3.8643    2.7981    2.3567 H   0  0  0  0  0  0  0  0  0  0  0  0
   -3.7188    4.0614   -1.7535 H   0  0  0  0  0  0  0  0  0  0  0  0
   -1.8059    2.5479   -2.1622 H   0  0  0  0  0  0  0  0  0  0  0  0
    0.3624    3.3881    0.4129 H   0  0  0  0  0  0  0  0  0  0  0  0
    2.6441    3.8859    1.1339 H   0  0  0  0  0  0  0  0  0  0  0  0
  1 30  1  0  0  0  0
  1 31  1  0  0  0  0
  1 32  1  0  0  0  0
  2  1  1  0  0  0  0
  3  2  1  0  0  0  0
  4  3  2  0  0  0  0
  4 33  1  0  0  0  0
  5  4  1  0  0  0  0
  6  5  2  0  0  0  0
  7  6  1  0  0  0  0
  8  7  2  0  0  0  0
  9  8  1  0  0  0  0
 10  9  2  0  0  0  0
 11  9  1  0  0  0  0
 12 11  2  0  0  0  0
 13 11  1  0  0  0  0
 14 13  2  0  0  0  0
 14  7  1  0  0  0  0
 15 14  1  0  0  0  0
 15 34  1  0  0  0  0
 16 15  2  0  0  0  0
 16 35  1  0  0  0  0
 17 16  1  0  0  0  0
 17 36  1  0  0  0  0
 18 17  2  0  0  0  0
 18 13  1  0  0  0  0
 18 37  1  0  0  0  0
 19  8  1  0  0  0  0
 20 19  1  0  0  0  0
 21 20  2  0  0  0  0
 21 38  1  0  0  0  0
 22 21  1  0  0  0  0
 22 39  1  0  0  0  0
 23 22  2  0  0  0  0
 24 23  1  0  0  0  0
 25 23  1  0  0  0  0
 25 40  1  0  0  0  0
 26 25  2  0  0  0  0
 26 20  1  0  0  0  0
 26 41  1  0  0  0  0
 27 19  2  0  0  0  0
 27  5  1  0  0  0  0
 28 27  1  0  0  0  0
 28 42  1  0  0  0  0
 29 28  2  0  0  0  0
 29  3  1  0  0  0  0
 29 43  1  0  0  0  0
M  END
>  <energy>
125.29852551863594

$$$$
> 2_AKC_1573406414666180226163222
>2.sdf
 OpenBabel10042211343D

 42 46  0  0  0  0  0  0  0  0999 V2000
    5.3289    0.2987    1.4381 C   0  0  0  0  0  0  0  0  0  0  0  0
    3.9087    0.4589    1.0025 C   0  0  0  0  0  0  0  0  0  0  0  0
    3.0807   -0.6513    0.7956 C   0  0  0  0  0  0  0  0  0  0  0  0
    1.7544   -0.5195    0.3990 C   0  0  0  0  0  0  0  0  0  0  0  0
    1.0160   -1.6290    0.2570 N   0  0  0  0  0  0  0  0  0  0  0  0
   -0.2720   -1.5260   -0.1608 C   0  0  0  0  0  0  0  0  0  0  0  0
   -0.8577   -0.3027   -0.4714 C   0  0  0  0  0  0  0  0  0  0  0  0
   -2.2342   -0.3220   -1.0320 C   0  0  0  0  0  0  0  0  0  0  0  0
   -2.9415    0.6696   -1.1413 O   0  0  0  0  0  0  0  0  0  0  0  0
   -2.7959   -1.6529   -1.4888 C   0  0  0  0  0  0  0  0  0  0  0  0
   -3.6875   -1.7024   -2.3230 O   0  0  0  0  0  0  0  0  0  0  0  0
   -2.2508   -2.8673   -0.8706 C   0  0  0  0  0  0  0  0  0  0  0  0
   -1.0260   -2.7883   -0.1995 C   0  0  0  0  0  0  0  0  0  0  0  0
   -0.5735   -3.9547    0.4483 C   0  0  0  0  0  0  0  0  0  0  0  0
   -1.3051   -5.1447    0.4065 C   0  0  0  0  0  0  0  0  0  0  0  0
   -2.4986   -5.2015   -0.3048 C   0  0  0  0  0  0  0  0  0  0  0  0
   -2.9722   -4.0653   -0.9518 C   0  0  0  0  0  0  0  0  0  0  0  0
   -0.1301    0.8806   -0.2361 C   0  0  0  0  0  0  0  0  0  0  0  0
   -0.7680    2.2123   -0.3245 C   0  0  0  0  0  0  0  0  0  0  0  0
   -1.5006    2.6912    0.7801 C   0  0  0  0  0  0  0  0  0  0  0  0
   -2.1325    3.9348    0.7449 C   0  0  0  0  0  0  0  0  0  0  0  0
   -2.0267    4.7199   -0.3977 C   0  0  0  0  0  0  0  0  0  0  0  0
   -2.8738    6.4084   -0.4437 Br  0  0  0  0  0  0  0  0  0  0  0  0
   -1.2913    4.2738   -1.4979 C   0  0  0  0  0  0  0  0  0  0  0  0
   -0.6647    3.0218   -1.4639 C   0  0  0  0  0  0  0  0  0  0  0  0
    1.2268    0.7704    0.1899 C   0  0  0  0  0  0  0  0  0  0  0  0
    2.0590    1.8872    0.4294 C   0  0  0  0  0  0  0  0  0  0  0  0
    3.3783    1.7318    0.8433 C   0  0  0  0  0  0  0  0  0  0  0  0
    5.9760    0.9758    0.8717 H   0  0  0  0  0  0  0  0  0  0  0  0
    5.4131    0.5318    2.5018 H   0  0  0  0  0  0  0  0  0  0  0  0
    5.6964   -0.7174    1.2727 H   0  0  0  0  0  0  0  0  0  0  0  0
    3.4779   -1.6503    0.9506 H   0  0  0  0  0  0  0  0  0  0  0  0
    0.3620   -3.9406    1.0122 H   0  0  0  0  0  0  0  0  0  0  0  0
   -0.9317   -6.0236    0.9244 H   0  0  0  0  0  0  0  0  0  0  0  0
   -3.0649   -6.1277   -0.3498 H   0  0  0  0  0  0  0  0  0  0  0  0
   -3.9116   -4.1046   -1.5008 H   0  0  0  0  0  0  0  0  0  0  0  0
   -1.6004    2.0752    1.6721 H   0  0  0  0  0  0  0  0  0  0  0  0
   -2.7109    4.2655    1.6043 H   0  0  0  0  0  0  0  0  0  0  0  0
   -1.2136    4.8884   -2.3923 H   0  0  0  0  0  0  0  0  0  0  0  0
   -0.1156    2.6810   -2.3367 H   0  0  0  0  0  0  0  0  0  0  0  0
    1.6886    2.9035    0.3006 H   0  0  0  0  0  0  0  0  0  0  0  0
    3.9844    2.6110    1.0426 H   0  0  0  0  0  0  0  0  0  0  0  0
  1 29  1  0  0  0  0
  1 30  1  0  0  0  0
  1 31  1  0  0  0  0
  2  1  1  0  0  0  0
  3  2  2  0  0  0  0
  3 32  1  0  0  0  0
  4  3  1  0  0  0  0
  5  4  2  0  0  0  0
  6  5  1  0  0  0  0
  7  6  2  0  0  0  0
  8  7  1  0  0  0  0
  9  8  2  0  0  0  0
 10  8  1  0  0  0  0
 11 10  2  0  0  0  0
 12 10  1  0  0  0  0
 13 12  2  0  0  0  0
 13  6  1  0  0  0  0
 14 13  1  0  0  0  0
 14 33  1  0  0  0  0
 15 14  2  0  0  0  0
 15 34  1  0  0  0  0
 16 15  1  0  0  0  0
 16 35  1  0  0  0  0
 17 16  2  0  0  0  0
 17 12  1  0  0  0  0
 17 36  1  0  0  0  0
 18  7  1  0  0  0  0
 19 18  1  0  0  0  0
 20 19  2  0  0  0  0
 20 37  1  0  0  0  0
 21 20  1  0  0  0  0
 21 38  1  0  0  0  0
 22 21  2  0  0  0  0
 23 22  1  0  0  0  0
 24 22  1  0  0  0  0
 24 39  1  0  0  0  0
 25 24  2  0  0  0  0
 25 19  1  0  0  0  0
 25 40  1  0  0  0  0
 26 18  2  0  0  0  0
 26  4  1  0  0  0  0
 27 26  1  0  0  0  0
 27 41  1  0  0  0  0
 28 27  2  0  0  0  0
 28  2  1  0  0  0  0
 28 42  1  0  0  0  0
M  END
>  <energy>
124.46576515590833

$$$$
> 3_AKC_1573406414666180226163222
>3.sdf
 OpenBabel10042211353D

 44 48  0  0  0  0  0  0  0  0999 V2000
    0.9930    5.5602    0.6093 C   0  0  0  0  0  0  0  0  0  0  0  0
    0.5457    4.1568    0.3431 C   0  0  0  0  0  0  0  0  0  0  0  0
    1.4451    3.0925    0.4841 C   0  0  0  0  0  0  0  0  0  0  0  0
    1.0806    1.7761    0.2373 C   0  0  0  0  0  0  0  0  0  0  0  0
    2.0163    0.8301    0.4123 N   0  0  0  0  0  0  0  0  0  0  0  0
    1.7339   -0.4596    0.1196 C   0  0  0  0  0  0  0  0  0  0  0  0
    0.4864   -0.8426   -0.3590 C   0  0  0  0  0  0  0  0  0  0  0  0
    0.3371   -2.2280   -0.8566 C   0  0  0  0  0  0  0  0  0  0  0  0
   -0.6221   -2.5755   -1.5302 O   0  0  0  0  0  0  0  0  0  0  0  0
    1.4419   -3.2352   -0.5923 C   0  0  0  0  0  0  0  0  0  0  0  0
    1.2808   -4.4118   -0.8796 O   0  0  0  0  0  0  0  0  0  0  0  0
    2.6887   -2.7713    0.0324 C   0  0  0  0  0  0  0  0  0  0  0  0
    2.8139   -1.4245    0.3946 C   0  0  0  0  0  0  0  0  0  0  0  0
    3.9909   -1.0558    1.0783 C   0  0  0  0  0  0  0  0  0  0  0  0
    5.0088   -1.9831    1.3433 C   0  0  0  0  0  0  0  0  0  0  0  0
    4.8779   -3.3017    0.9250 C   0  0  0  0  0  0  0  0  0  0  0  0
    3.7141   -3.7001    0.2740 C   0  0  0  0  0  0  0  0  0  0  0  0
   -0.5627    0.1038   -0.3981 C   0  0  0  0  0  0  0  0  0  0  0  0
   -1.9754   -0.3366   -0.5113 C   0  0  0  0  0  0  0  0  0  0  0  0
   -2.8006   -0.0098   -1.5996 C   0  0  0  0  0  0  0  0  0  0  0  0
   -4.1422   -0.4237   -1.6461 C   0  0  0  0  0  0  0  0  0  0  0  0
   -4.6597   -1.2087   -0.6098 C   0  0  0  0  0  0  0  0  0  0  0  0
   -3.8552   -1.5598    0.4767 C   0  0  0  0  0  0  0  0  0  0  0  0
   -2.5315   -1.1136    0.5256 C   0  0  0  0  0  0  0  0  0  0  0  0
   -6.0556   -1.6618   -0.6502 N   0  0  0  0  0  0  0  0  0  0  0  0
   -6.8505   -1.0255   -1.3614 O   0  0  0  0  0  0  0  0  0  0  0  0
   -6.3603   -2.6461    0.0390 O   0  0  0  0  0  0  0  0  0  0  0  0
   -0.2399    1.4767   -0.1608 C   0  0  0  0  0  0  0  0  0  0  0  0
   -1.1494    2.5606   -0.2836 C   0  0  0  0  0  0  0  0  0  0  0  0
   -0.7564    3.8815   -0.0590 C   0  0  0  0  0  0  0  0  0  0  0  0
    1.7226    5.8689   -0.1438 H   0  0  0  0  0  0  0  0  0  0  0  0
    1.4420    5.6240    1.6044 H   0  0  0  0  0  0  0  0  0  0  0  0
    0.1488    6.2554    0.5788 H   0  0  0  0  0  0  0  0  0  0  0  0
    2.4667    3.2989    0.8036 H   0  0  0  0  0  0  0  0  0  0  0  0
    4.1198   -0.0305    1.4291 H   0  0  0  0  0  0  0  0  0  0  0  0
    5.9061   -1.6674    1.8732 H   0  0  0  0  0  0  0  0  0  0  0  0
    5.6770   -4.0190    1.1161 H   0  0  0  0  0  0  0  0  0  0  0  0
    3.5991   -4.7392   -0.0305 H   0  0  0  0  0  0  0  0  0  0  0  0
   -2.4008    0.5707   -2.4291 H   0  0  0  0  0  0  0  0  0  0  0  0
   -4.7592   -0.1415   -2.4973 H   0  0  0  0  0  0  0  0  0  0  0  0
   -4.2338   -2.1769    1.2868 H   0  0  0  0  0  0  0  0  0  0  0  0
   -1.9243   -1.3977    1.3829 H   0  0  0  0  0  0  0  0  0  0  0  0
   -2.1832    2.4004   -0.5804 H   0  0  0  0  0  0  0  0  0  0  0  0
   -1.4743    4.6902   -0.1907 H   0  0  0  0  0  0  0  0  0  0  0  0
  1 31  1  0  0  0  0
  1 32  1  0  0  0  0
  1 33  1  0  0  0  0
  2  1  1  0  0  0  0
  3  2  2  0  0  0  0
  3 34  1  0  0  0  0
  4  3  1  0  0  0  0
  5  4  2  0  0  0  0
  6  5  1  0  0  0  0
  7  6  2  0  0  0  0
  8  7  1  0  0  0  0
  9  8  2  0  0  0  0
 10  8  1  0  0  0  0
 11 10  2  0  0  0  0
 12 10  1  0  0  0  0
 13 12  2  0  0  0  0
 13  6  1  0  0  0  0
 14 13  1  0  0  0  0
 14 35  1  0  0  0  0
 15 14  2  0  0  0  0
 15 36  1  0  0  0  0
 16 15  1  0  0  0  0
 16 37  1  0  0  0  0
 17 16  2  0  0  0  0
 17 12  1  0  0  0  0
 17 38  1  0  0  0  0
 18  7  1  0  0  0  0
 19 18  1  0  0  0  0
 20 19  2  0  0  0  0
 20 39  1  0  0  0  0
 21 20  1  0  0  0  0
 21 40  1  0  0  0  0
 22 21  2  0  0  0  0
 23 22  1  0  0  0  0
 23 41  1  0  0  0  0
 24 23  2  0  0  0  0
 24 19  1  0  0  0  0
 24 42  1  0  0  0  0
 25 22  1  0  0  0  0
 26 25  2  0  0  0  0
 27 25  2  0  0  0  0
 28 18  2  0  0  0  0
 28  4  1  0  0  0  0
 29 28  1  0  0  0  0
 29 43  1  0  0  0  0
 30 29  2  0  0  0  0
 30  2  1  0  0  0  0
 30 44  1  0  0  0  0
M  END
>  <energy>
163.49732186470345

$$$$
> 5_AKC_1573406417666210216154428
>5.sdf
 OpenBabel10052217543D

 33 34  0  0  0  0  0  0  0  0999 V2000
   -1.6610    2.1048    1.5928 N   0  0  0  0  0  0  0  0  0  0  0  0
   -2.9634    2.0180    1.0183 C   0  0  0  0  0  0  0  0  0  0  0  0
   -3.7657    3.0211    1.1428 N   0  0  0  0  0  0  0  0  0  0  0  0
   -3.4280    0.8291    0.3489 N   0  0  0  0  0  0  0  0  0  0  0  0
   -2.6400   -0.2792    0.0901 N   0  0  0  0  0  0  0  0  0  0  0  0
   -1.4010   -0.2056   -0.2593 C   0  0  0  0  0  0  0  0  0  0  0  0
   -0.5793   -1.4352   -0.3990 C   0  0  0  0  0  0  0  0  0  0  0  0
   -1.1995   -2.7003   -0.4313 C   0  0  0  0  0  0  0  0  0  0  0  0
   -0.4330   -3.8622   -0.5487 C   0  0  0  0  0  0  0  0  0  0  0  0
    0.9560   -3.7799   -0.6383 C   0  0  0  0  0  0  0  0  0  0  0  0
    1.5863   -2.5360   -0.6206 C   0  0  0  0  0  0  0  0  0  0  0  0
    0.8341   -1.3584   -0.4981 C   0  0  0  0  0  0  0  0  0  0  0  0
    1.5600   -0.0760   -0.3941 C   0  0  0  0  0  0  0  0  0  0  0  0
    1.6244    0.5861    0.8425 C   0  0  0  0  0  0  0  0  0  0  0  0
    2.3455    1.7765    0.9660 C   0  0  0  0  0  0  0  0  0  0  0  0
    2.9932    2.3202   -0.1464 C   0  0  0  0  0  0  0  0  0  0  0  0
    2.9266    1.6692   -1.3827 C   0  0  0  0  0  0  0  0  0  0  0  0
    2.2209    0.4667   -1.5062 C   0  0  0  0  0  0  0  0  0  0  0  0
   -1.3498    2.9800    2.0378 H   0  0  0  0  0  0  0  0  0  0  0  0
   -1.0423    1.2911    1.6718 H   0  0  0  0  0  0  0  0  0  0  0  0
   -4.7220    2.9828    0.7630 H   0  0  0  0  0  0  0  0  0  0  0  0
   -4.4364    0.7522    0.1524 H   0  0  0  0  0  0  0  0  0  0  0  0
   -0.9380    0.7608   -0.4242 H   0  0  0  0  0  0  0  0  0  0  0  0
   -2.2769   -2.7897   -0.3677 H   0  0  0  0  0  0  0  0  0  0  0  0
   -0.9174   -4.8298   -0.5645 H   0  0  0  0  0  0  0  0  0  0  0  0
    1.5479   -4.6829   -0.7107 H   0  0  0  0  0  0  0  0  0  0  0  0
    2.6676   -2.4877   -0.6673 H   0  0  0  0  0  0  0  0  0  0  0  0
    1.1365    0.1646    1.7128 H   0  0  0  0  0  0  0  0  0  0  0  0
    2.4067    2.2740    1.9256 H   0  0  0  0  0  0  0  0  0  0  0  0
    3.5500    3.2432   -0.0492 H   0  0  0  0  0  0  0  0  0  0  0  0
    3.4268    2.0938   -2.2432 H   0  0  0  0  0  0  0  0  0  0  0  0
    2.1777   -0.0337   -2.4655 H   0  0  0  0  0  0  0  0  0  0  0  0
   -3.4635    3.8757    1.6342 H   0  0  0  0  0  0  0  0  0  0  0  0
  1 19  1  0  0  0  0
  1 20  1  0  0  0  0
  2  1  1  0  0  0  0
  3  2  2  0  0  0  0
  3 21  1  0  0  0  0
  3 33  1  0  0  0  0
  4  2  1  0  0  0  0
  4 22  1  0  0  0  0
  5  4  1  0  0  0  0
  6  5  2  0  0  0  0
  6 23  1  0  0  0  0
  7  6  1  0  0  0  0
  8  7  2  0  0  0  0
  8 24  1  0  0  0  0
  9  8  1  0  0  0  0
  9 25  1  0  0  0  0
 10  9  2  0  0  0  0
 10 26  1  0  0  0  0
 11 10  1  0  0  0  0
 11 27  1  0  0  0  0
 12 11  2  0  0  0  0
 12  7  1  0  0  0  0
 13 12  1  0  0  0  0
 14 13  2  0  0  0  0
 14 28  1  0  0  0  0
 15 14  1  0  0  0  0
 15 29  1  0  0  0  0
 16 15  2  0  0  0  0
 16 30  1  0  0  0  0
 17 16  1  0  0  0  0
 17 31  1  0  0  0  0
 18 17  2  0  0  0  0
 18 13  1  0  0  0  0
 18 32  1  0  0  0  0
M  END
>  <MOL Chiral Flag>
0

>  <energy>
-17.57877082820157

$$$$
> 6_AKC_1573406417666210216154428
>6.sdf
 OpenBabel10052217543D

 28 29  0  0  0  0  0  0  0  0999 V2000
   -4.5191   -1.2782    0.0071 N   0  0  0  0  0  0  0  0  0  0  0  0
   -4.3794   -1.1238   -1.4010 C   0  0  0  0  0  0  0  0  0  0  0  0
   -5.4245   -0.9528   -2.1347 N   0  0  0  0  0  0  0  0  0  0  0  0
   -3.0853   -1.1041   -1.9935 N   0  0  0  0  0  0  0  0  0  0  0  0
   -1.9635   -1.1062   -1.1991 N   0  0  0  0  0  0  0  0  0  0  0  0
   -1.0001   -0.2909   -1.4405 C   0  0  0  0  0  0  0  0  0  0  0  0
    0.1795   -0.2101   -0.5653 C   0  0  0  0  0  0  0  0  0  0  0  0
    0.4919   -1.2141    0.3693 C   0  0  0  0  0  0  0  0  0  0  0  0
    1.6183   -1.0670    1.1863 C   0  0  0  0  0  0  0  0  0  0  0  0
    2.4055    0.0879    1.0836 C   0  0  0  0  0  0  0  0  0  0  0  0
    3.5288    0.2833    1.9022 C   0  0  0  0  0  0  0  0  0  0  0  0
    4.2784    1.4606    1.7890 C   0  0  0  0  0  0  0  0  0  0  0  0
    3.9130    2.4421    0.8612 C   0  0  0  0  0  0  0  0  0  0  0  0
    2.8026    2.2488    0.0361 C   0  0  0  0  0  0  0  0  0  0  0  0
    2.0496    1.0758    0.1413 C   0  0  0  0  0  0  0  0  0  0  0  0
    0.9673    0.8937   -0.6565 N   0  0  0  0  0  0  0  0  0  0  0  0
   -3.6961   -1.4425    0.6036 H   0  0  0  0  0  0  0  0  0  0  0  0
   -5.4459   -1.2078    0.4513 H   0  0  0  0  0  0  0  0  0  0  0  0
   -3.0002   -0.8680   -2.9959 H   0  0  0  0  0  0  0  0  0  0  0  0
   -1.1085    0.4464   -2.2320 H   0  0  0  0  0  0  0  0  0  0  0  0
   -0.1215   -2.1024    0.4586 H   0  0  0  0  0  0  0  0  0  0  0  0
    1.8673   -1.8424    1.9014 H   0  0  0  0  0  0  0  0  0  0  0  0
    3.8194   -0.4662    2.6283 H   0  0  0  0  0  0  0  0  0  0  0  0
    5.1409    1.6156    2.4238 H   0  0  0  0  0  0  0  0  0  0  0  0
    4.4902    3.3541    0.7813 H   0  0  0  0  0  0  0  0  0  0  0  0
    2.5227    3.0127   -0.6792 H   0  0  0  0  0  0  0  0  0  0  0  0
   -6.3649   -0.9328   -1.7144 H   0  0  0  0  0  0  0  0  0  0  0  0
   -5.3358   -0.8260   -3.1543 H   0  0  0  0  0  0  0  0  0  0  0  0
  1 17  1  0  0  0  0
  1 18  1  0  0  0  0
  2  1  1  0  0  0  0
  3  2  2  0  0  0  0
  3 27  1  0  0  0  0
  3 28  1  0  0  0  0
  4  2  1  0  0  0  0
  4 19  1  0  0  0  0
  5  4  1  0  0  0  0
  6  5  2  0  0  0  0
  6 20  1  0  0  0  0
  7  6  1  0  0  0  0
  8  7  2  0  0  0  0
  8 21  1  0  0  0  0
  9  8  1  0  0  0  0
  9 22  1  0  0  0  0
 10  9  2  0  0  0  0
 11 10  1  0  0  0  0
 11 23  1  0  0  0  0
 12 11  2  0  0  0  0
 12 24  1  0  0  0  0
 13 12  1  0  0  0  0
 13 25  1  0  0  0  0
 14 13  2  0  0  0  0
 14 26  1  0  0  0  0
 15 14  1  0  0  0  0
 15 10  1  0  0  0  0
 16 15  2  0  0  0  0
 16  7  1  0  0  0  0
M  END
>  <MOL Chiral Flag>
0

>  <energy>
-21.643838198571771

$$$$
> 7_AKC_1573406417666210216154428
>7.sdf
 OpenBabel10042211403D

 21 21  0  0  0  0  0  0  0  0999 V2000
   -4.7481   -0.6125    0.3778 N   0  0  0  0  0  0  0  0  0  0  0  0
   -3.5279   -0.2868    0.8913 C   0  0  0  0  0  0  0  0  0  0  0  0
   -3.4720    0.4782    2.3678 S   0  0  0  0  0  0  0  0  0  0  0  0
   -2.4701   -0.6303    0.0864 N   0  0  0  0  0  0  0  0  0  0  0  0
   -1.1843   -0.3302    0.4355 N   0  0  0  0  0  0  0  0  0  0  0  0
   -0.3371   -0.3486   -0.5402 C   0  0  0  0  0  0  0  0  0  0  0  0
    1.0845    0.0007   -0.3389 C   0  0  0  0  0  0  0  0  0  0  0  0
    1.6171    0.0029    0.9614 C   0  0  0  0  0  0  0  0  0  0  0  0
    2.9576    0.3453    1.1668 C   0  0  0  0  0  0  0  0  0  0  0  0
    3.7575    0.6852    0.0757 C   0  0  0  0  0  0  0  0  0  0  0  0
    5.4066    1.1141    0.3338 Cl  0  0  0  0  0  0  0  0  0  0  0  0
    3.2392    0.6838   -1.2168 C   0  0  0  0  0  0  0  0  0  0  0  0
    1.9025    0.3397   -1.4277 C   0  0  0  0  0  0  0  0  0  0  0  0
    1.3223    0.3861   -3.0585 Cl  0  0  0  0  0  0  0  0  0  0  0  0
   -4.8975   -0.9899   -0.5442 H   0  0  0  0  0  0  0  0  0  0  0  0
   -5.5590   -0.3160    0.9050 H   0  0  0  0  0  0  0  0  0  0  0  0
   -2.6635   -0.9803   -0.8434 H   0  0  0  0  0  0  0  0  0  0  0  0
   -0.6623   -0.5743   -1.5736 H   0  0  0  0  0  0  0  0  0  0  0  0
    0.9924   -0.2575    1.8172 H   0  0  0  0  0  0  0  0  0  0  0  0
    3.3671    0.3422    2.1784 H   0  0  0  0  0  0  0  0  0  0  0  0
    3.8752    0.9483   -2.0540 H   0  0  0  0  0  0  0  0  0  0  0  0
  1 15  1  0  0  0  0
  1 16  1  0  0  0  0
  2  1  1  0  0  0  0
  3  2  2  0  0  0  0
  4  2  1  0  0  0  0
  4 17  1  0  0  0  0
  5  4  1  0  0  0  0
  6  5  2  0  0  0  0
  6 18  1  0  0  0  0
  7  6  1  0  0  0  0
  8  7  2  0  0  0  0
  8 19  1  0  0  0  0
  9  8  1  0  0  0  0
  9 20  1  0  0  0  0
 10  9  2  0  0  0  0
 11 10  1  0  0  0  0
 12 10  1  0  0  0  0
 12 21  1  0  0  0  0
 13 12  2  0  0  0  0
 13  7  1  0  0  0  0
 14 13  1  0  0  0  0
M  END
>  <energy>
4.556683324386448

$$$$
> 8_AKC_1573406417666210216154428
>8.sdf
 OpenBabel10042211413D

 24 24  0  0  0  0  0  0  0  0999 V2000
   -4.1636   -1.5574    0.9230 N   0  0  0  0  0  0  0  0  0  0  0  0
   -4.4374   -0.8545   -0.2010 C   0  0  0  0  0  0  0  0  0  0  0  0
   -5.9593   -0.7902   -0.8550 S   0  0  0  0  0  0  0  0  0  0  0  0
   -3.3753   -0.2008   -0.7614 N   0  0  0  0  0  0  0  0  0  0  0  0
   -2.1242   -0.2783   -0.2162 N   0  0  0  0  0  0  0  0  0  0  0  0
   -1.2250    0.4227   -0.8319 C   0  0  0  0  0  0  0  0  0  0  0  0
    0.1891    0.4264   -0.4090 C   0  0  0  0  0  0  0  0  0  0  0  0
    1.1002    1.2234   -1.1057 C   0  0  0  0  0  0  0  0  0  0  0  0
    2.4528    1.2044   -0.7535 C   0  0  0  0  0  0  0  0  0  0  0  0
    2.9061    0.3887    0.2945 C   0  0  0  0  0  0  0  0  0  0  0  0
    1.9746   -0.3914    1.0009 C   0  0  0  0  0  0  0  0  0  0  0  0
    0.6222   -0.3726    0.6522 C   0  0  0  0  0  0  0  0  0  0  0  0
    4.3703    0.3339    0.6668 C   0  0  0  0  0  0  0  0  0  0  0  0
    4.8796   -0.9268    0.5883 F   0  0  0  0  0  0  0  0  0  0  0  0
    4.5989    0.7527    1.9420 F   0  0  0  0  0  0  0  0  0  0  0  0
    5.1627    1.1054   -0.1284 F   0  0  0  0  0  0  0  0  0  0  0  0
   -4.8867   -2.0293    1.4455 H   0  0  0  0  0  0  0  0  0  0  0  0
   -3.2197   -1.4874    1.2826 H   0  0  0  0  0  0  0  0  0  0  0  0
   -3.5388    0.3212   -1.6161 H   0  0  0  0  0  0  0  0  0  0  0  0
   -1.4795    1.0436   -1.7095 H   0  0  0  0  0  0  0  0  0  0  0  0
    0.7746    1.8578   -1.9260 H   0  0  0  0  0  0  0  0  0  0  0  0
    3.1554    1.8250   -1.3095 H   0  0  0  0  0  0  0  0  0  0  0  0
    2.3061   -1.0263    1.8224 H   0  0  0  0  0  0  0  0  0  0  0  0
   -0.0830   -0.9900    1.2051 H   0  0  0  0  0  0  0  0  0  0  0  0
  1 17  1  0  0  0  0
  1 18  1  0  0  0  0
  2  1  1  0  0  0  0
  3  2  2  0  0  0  0
  4  2  1  0  0  0  0
  4 19  1  0  0  0  0
  5  4  1  0  0  0  0
  6  5  2  0  0  0  0
  6 20  1  0  0  0  0
  7  6  1  0  0  0  0
  8  7  2  0  0  0  0
  8 21  1  0  0  0  0
  9  8  1  0  0  0  0
  9 22  1  0  0  0  0
 10  9  2  0  0  0  0
 11 10  1  0  0  0  0
 11 23  1  0  0  0  0
 12 11  2  0  0  0  0
 12  7  1  0  0  0  0
 12 24  1  0  0  0  0
 13 10  1  0  0  0  0
 14 13  1  0  0  0  0
 15 13  1  0  0  0  0
 16 13  1  0  0  0  0
M  END
>  <energy>
28.599577436318729

$$$$
> 9_AKC_1573406417666210216154428
>9.sdf
 OpenBabel10042211423D

 25 25  0  0  0  0  0  0  0  0999 V2000
    4.4898   -0.8183   -0.9728 C   0  0  0  0  0  0  0  0  0  0  0  0
    4.0576    0.3936   -0.3597 O   0  0  0  0  0  0  0  0  0  0  0  0
    2.7117    0.4565   -0.1302 C   0  0  0  0  0  0  0  0  0  0  0  0
    1.7433   -0.0546   -0.9914 C   0  0  0  0  0  0  0  0  0  0  0  0
    0.3923    0.0494   -0.6607 C   0  0  0  0  0  0  0  0  0  0  0  0
    0.0085    0.6854    0.5242 C   0  0  0  0  0  0  0  0  0  0  0  0
   -1.4241    0.8074    0.8700 C   0  0  0  0  0  0  0  0  0  0  0  0
   -2.3221    0.1441    0.2086 N   0  0  0  0  0  0  0  0  0  0  0  0
   -3.6137    0.3578    0.5892 N   0  0  0  0  0  0  0  0  0  0  0  0
   -4.6128   -0.4597    0.1324 C   0  0  0  0  0  0  0  0  0  0  0  0
   -4.2223   -1.4650   -0.6857 N   0  0  0  0  0  0  0  0  0  0  0  0
   -6.2020   -0.2382    0.5549 S   0  0  0  0  0  0  0  0  0  0  0  0
    0.9749    1.2318    1.3700 C   0  0  0  0  0  0  0  0  0  0  0  0
    2.3256    1.1202    1.0357 C   0  0  0  0  0  0  0  0  0  0  0  0
    4.0374   -1.6932   -0.4917 H   0  0  0  0  0  0  0  0  0  0  0  0
    5.5731   -0.8907   -0.8387 H   0  0  0  0  0  0  0  0  0  0  0  0
    4.2782   -0.8133   -2.0476 H   0  0  0  0  0  0  0  0  0  0  0  0
    2.0152   -0.5223   -1.9324 H   0  0  0  0  0  0  0  0  0  0  0  0
   -0.3577   -0.3450   -1.3458 H   0  0  0  0  0  0  0  0  0  0  0  0
   -1.6941    1.4587    1.7223 H   0  0  0  0  0  0  0  0  0  0  0  0
   -3.8533    1.1258    1.2101 H   0  0  0  0  0  0  0  0  0  0  0  0
   -3.2247   -1.6182   -0.7700 H   0  0  0  0  0  0  0  0  0  0  0  0
   -4.8705   -2.1858   -0.9623 H   0  0  0  0  0  0  0  0  0  0  0  0
    0.6960    1.7360    2.2890 H   0  0  0  0  0  0  0  0  0  0  0  0
    3.0936    1.5374    1.6827 H   0  0  0  0  0  0  0  0  0  0  0  0
  1 15  1  0  0  0  0
  1 16  1  0  0  0  0
  1 17  1  0  0  0  0
  2  1  1  0  0  0  0
  3  2  1  0  0  0  0
  4  3  2  0  0  0  0
  4 18  1  0  0  0  0
  5  4  1  0  0  0  0
  5 19  1  0  0  0  0
  6  5  2  0  0  0  0
  7  6  1  0  0  0  0
  7 20  1  0  0  0  0
  8  7  2  0  0  0  0
  9  8  1  0  0  0  0
  9 21  1  0  0  0  0
 10  9  1  0  0  0  0
 11 10  1  0  0  0  0
 11 22  1  0  0  0  0
 11 23  1  0  0  0  0
 12 10  2  0  0  0  0
 13  6  1  0  0  0  0
 13 24  1  0  0  0  0
 14 13  2  0  0  0  0
 14  3  1  0  0  0  0
 14 25  1  0  0  0  0
M  END
>  <energy>
5.6854842203789033

$$$$
> 10_AKC_ph15020148
>10.sdf
 OpenBabel10052217553D

 89 91  0  0  0  0  0  0  0  0999 V2000
    0.9001    3.3677   -4.6596 C   0  0  0  0  0  0  0  0  0  0  0  0
   -0.1317    3.0355   -3.6105 C   0  0  0  0  0  0  0  0  0  0  0  0
   -1.2933    2.3371   -4.0195 C   0  0  0  0  0  0  0  0  0  0  0  0
   -2.2574    1.9389   -3.0892 C   0  0  0  0  0  0  0  0  0  0  0  0
   -3.3137    1.1628   -3.4839 O   0  0  0  0  0  0  0  0  0  0  0  0
   -4.0633    0.4592   -2.5527 C   0  0  0  0  0  0  0  0  0  0  0  0
   -4.8482   -0.7219   -3.1345 C   0  0  0  0  0  0  0  0  0  0  0  0
   -5.4194   -1.5986   -1.9878 C   0  0  0  0  0  0  0  0  0  0  0  0
   -4.3164   -2.4055   -1.2535 C   0  0  0  0  0  0  0  0  0  0  0  0
   -4.8233   -3.1095    0.0192 C   0  0  0  0  0  0  0  0  0  0  0  0
   -3.7793   -3.9467    0.6662 N   0  3  0  0  0  0  0  0  0  0  0  0
   -2.8611   -3.3317    1.6806 C   0  0  0  0  0  0  0  0  0  0  0  0
   -1.8237   -4.4023    2.0962 C   0  0  0  0  0  0  0  0  0  0  0  0
   -2.0777   -2.1141    1.1443 C   0  0  0  0  0  0  0  0  0  0  0  0
   -3.6333   -2.9018    2.9501 C   0  0  0  0  0  0  0  0  0  0  0  0
   -2.0741    2.2753   -1.7391 C   0  0  0  0  0  0  0  0  0  0  0  0
   -0.9413    2.9359   -1.3116 C   0  0  0  0  0  0  0  0  0  0  0  0
    0.0557    3.3393   -2.2198 C   0  0  0  0  0  0  0  0  0  0  0  0
    1.2061    3.9888   -1.6824 C   0  0  0  0  0  0  0  0  0  0  0  0
    2.0920    4.3612   -2.4232 O   0  0  0  0  0  0  0  0  0  0  0  0
    1.3352    4.1341   -0.2675 C   0  0  0  0  0  0  0  0  0  0  0  0
    2.4778    4.6928    0.4043 C   0  0  0  0  0  0  0  0  0  0  0  0
    3.5428    5.2320   -0.2324 O   0  0  0  0  0  0  0  0  0  0  0  0
    2.5456    4.6340    1.8057 C   0  0  0  0  0  0  0  0  0  0  0  0
    1.5296    4.0347    2.5502 C   0  0  0  0  0  0  0  0  0  0  0  0
    1.7122    3.7927    3.8736 O   0  0  0  0  0  0  0  0  0  0  0  0
    1.6795    2.5097    4.4492 C   0  0  0  0  0  0  0  0  0  0  0  0
    1.7773    1.3104    3.4494 C   0  0  0  0  0  0  0  0  0  0  0  0
    3.1089    1.2895    2.6645 C   0  0  0  0  0  0  0  0  0  0  0  0
    3.0308    0.5351    1.3254 C   0  0  0  0  0  0  0  0  0  0  0  0
    2.8001   -0.9847    1.4406 C   0  0  0  0  0  0  0  0  0  0  0  0
    2.6535   -1.6385    0.1133 N   0  3  0  0  0  0  0  0  0  0  0  0
    3.8799   -2.1544   -0.5732 C   0  0  0  0  0  0  0  0  0  0  0  0
    4.4810   -3.3569    0.1919 C   0  0  0  0  0  0  0  0  0  0  0  0
    4.9710   -1.0786   -0.7474 C   0  0  0  0  0  0  0  0  0  0  0  0
    3.4765   -2.6440   -1.9848 C   0  0  0  0  0  0  0  0  0  0  0  0
    0.3730    3.6052    1.9136 C   0  0  0  0  0  0  0  0  0  0  0  0
    0.2775    3.6368    0.5306 C   0  0  0  0  0  0  0  0  0  0  0  0
   -0.7966    3.1064   -0.0137 O   0  0  0  0  0  0  0  0  0  0  0  0
    0.5926    3.0200   -5.6685 H   0  0  0  0  0  0  0  0  0  0  0  0
    1.8548    2.8518   -4.4174 H   0  0  0  0  0  0  0  0  0  0  0  0
    1.0610    4.4634   -4.7127 H   0  0  0  0  0  0  0  0  0  0  0  0
   -1.4258    2.0630   -5.0593 H   0  0  0  0  0  0  0  0  0  0  0  0
   -4.7438    1.1459   -2.0015 H   0  0  0  0  0  0  0  0  0  0  0  0
   -3.3406    0.0403   -1.8398 H   0  0  0  0  0  0  0  0  0  0  0  0
   -4.1996   -1.3521   -3.7809 H   0  0  0  0  0  0  0  0  0  0  0  0
   -5.6734   -0.3115   -3.7552 H   0  0  0  0  0  0  0  0  0  0  0  0
   -6.1457   -2.3285   -2.4055 H   0  0  0  0  0  0  0  0  0  0  0  0
   -5.9659   -0.9391   -1.2778 H   0  0  0  0  0  0  0  0  0  0  0  0
   -3.4970   -1.7620   -0.9524 H   0  0  0  0  0  0  0  0  0  0  0  0
   -3.8953   -3.1491   -1.9641 H   0  0  0  0  0  0  0  0  0  0  0  0
   -5.6527   -3.7750   -0.3100 H   0  0  0  0  0  0  0  0  0  0  0  0
   -5.2577   -2.3796    0.7318 H   0  0  0  0  0  0  0  0  0  0  0  0
   -3.2203   -4.4155   -0.0854 H   0  0  0  0  0  0  0  0  0  0  0  0
   -4.2875   -4.7191    1.1594 H   0  0  0  0  0  0  0  0  0  0  0  0
   -1.2244   -4.7277    1.2182 H   0  0  0  0  0  0  0  0  0  0  0  0
   -2.3294   -5.2959    2.5207 H   0  0  0  0  0  0  0  0  0  0  0  0
   -1.1212   -4.0065    2.8622 H   0  0  0  0  0  0  0  0  0  0  0  0
   -1.5202   -2.3773    0.2196 H   0  0  0  0  0  0  0  0  0  0  0  0
   -1.3383   -1.7630    1.8975 H   0  0  0  0  0  0  0  0  0  0  0  0
   -2.7493   -1.2512    0.9619 H   0  0  0  0  0  0  0  0  0  0  0  0
   -4.1789   -3.7637    3.3894 H   0  0  0  0  0  0  0  0  0  0  0  0
   -4.3617   -2.0944    2.7364 H   0  0  0  0  0  0  0  0  0  0  0  0
   -2.9305   -2.5122    3.7196 H   0  0  0  0  0  0  0  0  0  0  0  0
   -2.7905    1.9834   -0.9837 H   0  0  0  0  0  0  0  0  0  0  0  0
    3.6387    5.3589   -1.1796 H   0  0  0  0  0  0  0  0  0  0  0  0
    3.4364    4.9855    2.3121 H   0  0  0  0  0  0  0  0  0  0  0  0
    0.7463    2.4169    5.0445 H   0  0  0  0  0  0  0  0  0  0  0  0
    2.5334    2.4240    5.1534 H   0  0  0  0  0  0  0  0  0  0  0  0
    0.9218    1.3471    2.7533 H   0  0  0  0  0  0  0  0  0  0  0  0
    1.6712    0.3440    3.9868 H   0  0  0  0  0  0  0  0  0  0  0  0
    3.9362    0.9242    3.3090 H   0  0  0  0  0  0  0  0  0  0  0  0
    3.3852    2.3128    2.3738 H   0  0  0  0  0  0  0  0  0  0  0  0
    3.9728    0.7467    0.7964 H   0  0  0  0  0  0  0  0  0  0  0  0
    2.2138    0.9870    0.7189 H   0  0  0  0  0  0  0  0  0  0  0  0
    1.8406   -1.1099    1.9902 H   0  0  0  0  0  0  0  0  0  0  0  0
    3.5889   -1.4628    2.0534 H   0  0  0  0  0  0  0  0  0  0  0  0
    2.1313   -0.9896   -0.5224 H   0  0  0  0  0  0  0  0  0  0  0  0
    2.0188   -2.4613    0.2497 H   0  0  0  0  0  0  0  0  0  0  0  0
    4.8350   -3.0698    1.2016 H   0  0  0  0  0  0  0  0  0  0  0  0
    5.3553   -3.7702   -0.3571 H   0  0  0  0  0  0  0  0  0  0  0  0
    3.7291   -4.1675    0.3000 H   0  0  0  0  0  0  0  0  0  0  0  0
    5.3876   -0.7708    0.2328 H   0  0  0  0  0  0  0  0  0  0  0  0
    4.5707   -0.1960   -1.2915 H   0  0  0  0  0  0  0  0  0  0  0  0
    5.8267   -1.4810   -1.3322 H   0  0  0  0  0  0  0  0  0  0  0  0
    2.7067   -3.4424   -1.9200 H   0  0  0  0  0  0  0  0  0  0  0  0
    4.3537   -3.0528   -2.5329 H   0  0  0  0  0  0  0  0  0  0  0  0
    3.0581   -1.8074   -2.5856 H   0  0  0  0  0  0  0  0  0  0  0  0
   -0.4298    3.1623    2.4923 H   0  0  0  0  0  0  0  0  0  0  0  0
  1 40  1  0  0  0  0
  1 41  1  0  0  0  0
  1 42  1  0  0  0  0
  2  1  1  0  0  0  0
  3  2  2  0  0  0  0
  3 43  1  0  0  0  0
  4  3  1  0  0  0  0
  5  4  1  0  0  0  0
  6  5  1  0  0  0  0
  6 44  1  0  0  0  0
  6 45  1  0  0  0  0
  7  6  1  0  0  0  0
  7 46  1  0  0  0  0
  7 47  1  0  0  0  0
  8  7  1  0  0  0  0
  8 48  1  0  0  0  0
  8 49  1  0  0  0  0
  9  8  1  0  0  0  0
  9 50  1  0  0  0  0
  9 51  1  0  0  0  0
 10  9  1  0  0  0  0
 10 52  1  0  0  0  0
 10 53  1  0  0  0  0
 11 10  1  0  0  0  0
 11 54  1  0  0  0  0
 11 55  1  0  0  0  0
 12 11  1  0  0  0  0
 13 12  1  0  0  0  0
 13 56  1  0  0  0  0
 13 57  1  0  0  0  0
 13 58  1  0  0  0  0
 14 12  1  0  0  0  0
 14 59  1  0  0  0  0
 14 60  1  0  0  0  0
 14 61  1  0  0  0  0
 15 12  1  0  0  0  0
 15 62  1  0  0  0  0
 15 63  1  0  0  0  0
 15 64  1  0  0  0  0
 16  4  2  0  0  0  0
 16 65  1  0  0  0  0
 17 16  1  0  0  0  0
 18 17  2  0  0  0  0
 18  2  1  0  0  0  0
 19 18  1  0  0  0  0
 20 19  2  0  0  0  0
 21 19  1  0  0  0  0
 22 21  2  0  0  0  0
 23 22  1  0  0  0  0
 23 66  1  0  0  0  0
 24 22  1  0  0  0  0
 24 67  1  0  0  0  0
 25 24  2  0  0  0  0
 26 25  1  0  0  0  0
 27 26  1  0  0  0  0
 27 68  1  0  0  0  0
 27 69  1  0  0  0  0
 28 27  1  0  0  0  0
 28 70  1  0  0  0  0
 28 71  1  0  0  0  0
 29 28  1  0  0  0  0
 29 72  1  0  0  0  0
 29 73  1  0  0  0  0
 30 29  1  0  0  0  0
 30 74  1  0  0  0  0
 30 75  1  0  0  0  0
 31 30  1  0  0  0  0
 31 76  1  0  0  0  0
 31 77  1  0  0  0  0
 32 31  1  0  0  0  0
 32 78  1  0  0  0  0
 32 79  1  0  0  0  0
 33 32  1  0  0  0  0
 34 33  1  0  0  0  0
 34 80  1  0  0  0  0
 34 81  1  0  0  0  0
 34 82  1  0  0  0  0
 35 33  1  0  0  0  0
 35 83  1  0  0  0  0
 35 84  1  0  0  0  0
 35 85  1  0  0  0  0
 36 33  1  0  0  0  0
 36 86  1  0  0  0  0
 36 87  1  0  0  0  0
 36 88  1  0  0  0  0
 37 25  1  0  0  0  0
 37 89  1  0  0  0  0
 38 37  2  0  0  0  0
 38 21  1  0  0  0  0
 39 38  1  0  0  0  0
 39 17  1  0  0  0  0
M  CHG  2  11   1  32   1
M  END
>  <MOL Chiral Flag>
0

>  <energy>
105.47186466075513

$$$$
> 11_AKC_AAC.37.5.991
>11.sdf
 OpenBabel10052217553D

 75 78  0  0  0  0  0  0  0  0999 V2000
   -1.0622   -0.1385    1.7732 C   0  0  0  0  0  0  0  0  0  0  0  0
   -1.3353    1.3685    1.7129 C   0  0  0  0  0  0  0  0  0  0  0  0
   -1.0410    2.1032    3.0373 C   0  0  0  0  0  0  0  0  0  0  0  0
    0.4246    2.5025    3.3392 C   0  0  0  0  0  0  0  0  0  0  0  0
    1.4457    1.3624    3.2827 C   0  0  0  0  0  0  0  0  0  0  0  0
    2.8088    1.7598    3.8810 C   0  0  0  0  0  0  0  0  0  0  0  0
    3.9055    0.6555    3.8915 C   0  0  0  0  0  0  0  0  0  0  0  0
    4.5979    0.4980    2.6163 N   0  0  0  0  0  0  0  0  0  0  0  0
    4.0136   -0.0388    1.4318 C   0  0  0  0  0  0  0  0  0  0  0  0
    4.6159    0.2215    0.1895 C   0  0  0  0  0  0  0  0  0  0  0  0
    3.9999   -0.1864   -0.9978 C   0  0  0  0  0  0  0  0  0  0  0  0
    2.7659   -0.8542   -0.9591 C   0  0  0  0  0  0  0  0  0  0  0  0
    2.0566   -1.1066   -2.1738 N   0  0  0  0  0  0  0  0  0  0  0  0
    0.6358   -0.9589   -2.1404 C   0  0  0  0  0  0  0  0  0  0  0  0
    0.0654    0.3250   -2.3442 C   0  0  0  0  0  0  0  0  0  0  0  0
    0.8656    1.4446   -2.6403 C   0  0  0  0  0  0  0  0  0  0  0  0
    0.3019    2.7111   -2.7819 C   0  0  0  0  0  0  0  0  0  0  0  0
   -1.0867    2.9099   -2.6327 C   0  0  0  0  0  0  0  0  0  0  0  0
   -1.8938    1.7835   -2.3526 C   0  0  0  0  0  0  0  0  0  0  0  0
   -1.3292    0.5045   -2.2038 C   0  0  0  0  0  0  0  0  0  0  0  0
   -2.1435   -0.5852   -1.8753 C   0  0  0  0  0  0  0  0  0  0  0  0
   -1.5879   -1.8526   -1.6552 C   0  0  0  0  0  0  0  0  0  0  0  0
   -0.1942   -2.0481   -1.7888 C   0  0  0  0  0  0  0  0  0  0  0  0
    0.3421   -3.3227   -1.5439 C   0  0  0  0  0  0  0  0  0  0  0  0
   -0.4791   -4.3764   -1.1434 C   0  0  0  0  0  0  0  0  0  0  0  0
   -1.8707   -4.1932   -0.9826 C   0  0  0  0  0  0  0  0  0  0  0  0
   -2.4115   -2.9177   -1.2607 C   0  0  0  0  0  0  0  0  0  0  0  0
   -2.7134   -5.2752   -0.5253 N   0  0  0  0  0  0  0  0  0  0  0  0
   -4.1475   -5.0777   -0.3573 C   0  0  0  0  0  0  0  0  0  0  0  0
   -2.1387   -6.5721   -0.1936 C   0  0  0  0  0  0  0  0  0  0  0  0
   -1.6600    4.2334   -2.7417 N   0  0  0  0  0  0  0  0  0  0  0  0
   -3.0900    4.4396   -2.5542 C   0  0  0  0  0  0  0  0  0  0  0  0
   -0.8135    5.3884   -3.0139 C   0  0  0  0  0  0  0  0  0  0  0  0
    2.2085   -1.1806    0.2914 C   0  0  0  0  0  0  0  0  0  0  0  0
    2.8352   -0.7944    1.4708 C   0  0  0  0  0  0  0  0  0  0  0  0
   -1.3745   -0.6107    0.8228 H   0  0  0  0  0  0  0  0  0  0  0  0
   -0.0038   -0.3838    1.9303 H   0  0  0  0  0  0  0  0  0  0  0  0
   -1.6524   -0.6014    2.5930 H   0  0  0  0  0  0  0  0  0  0  0  0
   -0.8073    1.8523    0.8634 H   0  0  0  0  0  0  0  0  0  0  0  0
   -2.4286    1.4524    1.5251 H   0  0  0  0  0  0  0  0  0  0  0  0
   -1.4594    1.5024    3.8743 H   0  0  0  0  0  0  0  0  0  0  0  0
   -1.6028    3.0628    3.0158 H   0  0  0  0  0  0  0  0  0  0  0  0
    0.7525    3.2906    2.6254 H   0  0  0  0  0  0  0  0  0  0  0  0
    0.4184    2.9470    4.3581 H   0  0  0  0  0  0  0  0  0  0  0  0
    1.0632    0.4945    3.8631 H   0  0  0  0  0  0  0  0  0  0  0  0
    1.5522    1.1302    2.2136 H   0  0  0  0  0  0  0  0  0  0  0  0
    2.6027    2.0121    4.9446 H   0  0  0  0  0  0  0  0  0  0  0  0
    3.2100    2.6728    3.3893 H   0  0  0  0  0  0  0  0  0  0  0  0
    4.6690    1.0232    4.6123 H   0  0  0  0  0  0  0  0  0  0  0  0
    3.5363   -0.3128    4.2903 H   0  0  0  0  0  0  0  0  0  0  0  0
    5.5555    0.8775    2.5522 H   0  0  0  0  0  0  0  0  0  0  0  0
    5.5369    0.7890    0.1392 H   0  0  0  0  0  0  0  0  0  0  0  0
    4.4508    0.0762   -1.9465 H   0  0  0  0  0  0  0  0  0  0  0  0
    2.5262   -0.7875   -3.0343 H   0  0  0  0  0  0  0  0  0  0  0  0
    1.9378    1.3571   -2.7478 H   0  0  0  0  0  0  0  0  0  0  0  0
    0.9665    3.5355   -2.9953 H   0  0  0  0  0  0  0  0  0  0  0  0
   -2.9620    1.8936   -2.2239 H   0  0  0  0  0  0  0  0  0  0  0  0
   -3.2122   -0.4387   -1.7545 H   0  0  0  0  0  0  0  0  0  0  0  0
    1.4055   -3.5041   -1.6419 H   0  0  0  0  0  0  0  0  0  0  0  0
   -0.0131   -5.3310   -0.9485 H   0  0  0  0  0  0  0  0  0  0  0  0
   -3.4714   -2.7340   -1.1482 H   0  0  0  0  0  0  0  0  0  0  0  0
   -4.3335   -4.2737    0.3865 H   0  0  0  0  0  0  0  0  0  0  0  0
   -4.6588   -5.9915    0.0111 H   0  0  0  0  0  0  0  0  0  0  0  0
   -4.6080   -4.8060   -1.3303 H   0  0  0  0  0  0  0  0  0  0  0  0
   -1.3933   -6.4551    0.6222 H   0  0  0  0  0  0  0  0  0  0  0  0
   -2.9035   -7.2947    0.1601 H   0  0  0  0  0  0  0  0  0  0  0  0
   -1.6518   -7.0118   -1.0891 H   0  0  0  0  0  0  0  0  0  0  0  0
   -3.6581    3.8675   -3.3171 H   0  0  0  0  0  0  0  0  0  0  0  0
   -3.3870    4.1117   -1.5353 H   0  0  0  0  0  0  0  0  0  0  0  0
   -3.3783    5.5071   -2.6541 H   0  0  0  0  0  0  0  0  0  0  0  0
   -0.3050    5.2635   -3.9931 H   0  0  0  0  0  0  0  0  0  0  0  0
   -0.0570    5.5010   -2.2079 H   0  0  0  0  0  0  0  0  0  0  0  0
   -1.3910    6.3356   -3.0569 H   0  0  0  0  0  0  0  0  0  0  0  0
    1.2705   -1.7052    0.3656 H   0  0  0  0  0  0  0  0  0  0  0  0
    2.3679   -1.0456    2.4116 H   0  0  0  0  0  0  0  0  0  0  0  0
  1 36  1  0  0  0  0
  1 37  1  0  0  0  0
  1 38  1  0  0  0  0
  2  1  1  0  0  0  0
  2 39  1  0  0  0  0
  2 40  1  0  0  0  0
  3  2  1  0  0  0  0
  3 41  1  0  0  0  0
  3 42  1  0  0  0  0
  4  3  1  0  0  0  0
  4 43  1  0  0  0  0
  4 44  1  0  0  0  0
  5  4  1  0  0  0  0
  5 45  1  0  0  0  0
  5 46  1  0  0  0  0
  6  5  1  0  0  0  0
  6 47  1  0  0  0  0
  6 48  1  0  0  0  0
  7  6  1  0  0  0  0
  7 49  1  0  0  0  0
  7 50  1  0  0  0  0
  8  7  1  0  0  0  0
  8 51  1  0  0  0  0
  9  8  1  0  0  0  0
 10  9  2  0  0  0  0
 10 52  1  0  0  0  0
 11 10  1  0  0  0  0
 11 53  1  0  0  0  0
 12 11  2  0  0  0  0
 13 12  1  0  0  0  0
 13 54  1  0  0  0  0
 14 13  1  0  0  0  0
 15 14  2  0  0  0  0
 16 15  1  0  0  0  0
 16 55  1  0  0  0  0
 17 16  2  0  0  0  0
 17 56  1  0  0  0  0
 18 17  1  0  0  0  0
 19 18  2  0  0  0  0
 19 57  1  0  0  0  0
 20 19  1  0  0  0  0
 20 15  1  0  0  0  0
 21 20  2  0  0  0  0
 21 58  1  0  0  0  0
 22 21  1  0  0  0  0
 23 22  2  0  0  0  0
 23 14  1  0  0  0  0
 24 23  1  0  0  0  0
 24 59  1  0  0  0  0
 25 24  2  0  0  0  0
 25 60  1  0  0  0  0
 26 25  1  0  0  0  0
 27 26  2  0  0  0  0
 27 22  1  0  0  0  0
 27 61  1  0  0  0  0
 28 26  1  0  0  0  0
 29 28  1  0  0  0  0
 29 62  1  0  0  0  0
 29 63  1  0  0  0  0
 29 64  1  0  0  0  0
 30 28  1  0  0  0  0
 30 65  1  0  0  0  0
 30 66  1  0  0  0  0
 30 67  1  0  0  0  0
 31 18  1  0  0  0  0
 32 31  1  0  0  0  0
 32 68  1  0  0  0  0
 32 69  1  0  0  0  0
 32 70  1  0  0  0  0
 33 31  1  0  0  0  0
 33 71  1  0  0  0  0
 33 72  1  0  0  0  0
 33 73  1  0  0  0  0
 34 12  1  0  0  0  0
 34 74  1  0  0  0  0
 35 34  2  0  0  0  0
 35  9  1  0  0  0  0
 35 75  1  0  0  0  0
M  END
>  <MOL Chiral Flag>
0

>  <energy>
87.61765059241381

$$$$
> 12_AKC_AAC.37.5.991
>12.sdf
 OpenBabel10052217563D

 78 81  0  0  0  0  0  0  0  0999 V2000
   -3.1046   -3.4099   -0.2717 C   0  0  0  0  0  0  0  0  0  0  0  0
   -4.3356   -3.4231    0.6203 C   0  0  0  0  0  0  0  0  0  0  0  0
   -5.5799   -2.6643    0.1072 C   0  0  0  0  0  0  0  0  0  0  0  0
   -5.4787   -1.1243    0.0352 C   0  0  0  0  0  0  0  0  0  0  0  0
   -5.2888   -0.4845   -1.3581 C   0  0  0  0  0  0  0  0  0  0  0  0
   -3.9704   -0.7719   -2.0763 C   0  0  0  0  0  0  0  0  0  0  0  0
   -3.8422    0.1103   -3.3406 C   0  0  0  0  0  0  0  0  0  0  0  0
   -2.5820   -0.1133   -4.0565 N   0  0  0  0  0  0  0  0  0  0  0  0
   -2.6342   -0.7288   -5.3779 C   0  0  0  0  0  0  0  0  0  0  0  0
   -1.3029    0.2643   -3.4855 C   0  0  0  0  0  0  0  0  0  0  0  0
   -1.2196    0.9256   -2.2402 C   0  0  0  0  0  0  0  0  0  0  0  0
    0.0125    1.2113   -1.6584 C   0  0  0  0  0  0  0  0  0  0  0  0
    1.2117    0.8969   -2.3202 C   0  0  0  0  0  0  0  0  0  0  0  0
    2.4930    1.1171   -1.7189 N   0  0  0  0  0  0  0  0  0  0  0  0
    2.6313    1.0585   -0.2974 C   0  0  0  0  0  0  0  0  0  0  0  0
    3.0969   -0.1412    0.3044 C   0  0  0  0  0  0  0  0  0  0  0  0
    3.4446   -1.2650   -0.4710 C   0  0  0  0  0  0  0  0  0  0  0  0
    3.8776   -2.4445    0.1307 C   0  0  0  0  0  0  0  0  0  0  0  0
    3.9758   -2.5523    1.5330 C   0  0  0  0  0  0  0  0  0  0  0  0
    3.6251   -1.4270    2.3131 C   0  0  0  0  0  0  0  0  0  0  0  0
    3.1878   -0.2341    1.7109 C   0  0  0  0  0  0  0  0  0  0  0  0
    2.8239    0.8563    2.5082 C   0  0  0  0  0  0  0  0  0  0  0  0
    2.3698    2.0473    1.9284 C   0  0  0  0  0  0  0  0  0  0  0  0
    2.2772    2.1619    0.5220 C   0  0  0  0  0  0  0  0  0  0  0  0
    1.8371    3.3777   -0.0313 C   0  0  0  0  0  0  0  0  0  0  0  0
    1.4688    4.4451    0.7903 C   0  0  0  0  0  0  0  0  0  0  0  0
    1.5334    4.3367    2.1973 C   0  0  0  0  0  0  0  0  0  0  0  0
    1.9981    3.1229    2.7499 C   0  0  0  0  0  0  0  0  0  0  0  0
    1.1313    5.4351    3.0484 N   0  0  0  0  0  0  0  0  0  0  0  0
    1.1805    5.3058    4.4994 C   0  0  0  0  0  0  0  0  0  0  0  0
    0.6556    6.6850    2.4706 C   0  0  0  0  0  0  0  0  0  0  0  0
    4.4127   -3.7846    2.1509 N   0  0  0  0  0  0  0  0  0  0  0  0
    4.7748   -4.9358    1.3334 C   0  0  0  0  0  0  0  0  0  0  0  0
    4.4906   -3.9001    3.6009 C   0  0  0  0  0  0  0  0  0  0  0  0
    1.1425    0.2980   -3.5860 C   0  0  0  0  0  0  0  0  0  0  0  0
   -0.0916   -0.0255   -4.1575 C   0  0  0  0  0  0  0  0  0  0  0  0
   -2.3214   -4.0522    0.1839 H   0  0  0  0  0  0  0  0  0  0  0  0
   -3.3464   -3.8135   -1.2765 H   0  0  0  0  0  0  0  0  0  0  0  0
   -2.6799   -2.3951   -0.3357 H   0  0  0  0  0  0  0  0  0  0  0  0
   -4.6322   -4.4868    0.7507 H   0  0  0  0  0  0  0  0  0  0  0  0
   -4.0516   -3.0281    1.6210 H   0  0  0  0  0  0  0  0  0  0  0  0
   -5.9959   -3.0859   -0.8325 H   0  0  0  0  0  0  0  0  0  0  0  0
   -6.3306   -2.8756    0.9020 H   0  0  0  0  0  0  0  0  0  0  0  0
   -4.7569   -0.7389    0.7876 H   0  0  0  0  0  0  0  0  0  0  0  0
   -6.4776   -0.7391    0.3419 H   0  0  0  0  0  0  0  0  0  0  0  0
   -5.3538    0.6150   -1.1967 H   0  0  0  0  0  0  0  0  0  0  0  0
   -6.1318   -0.7801   -2.0209 H   0  0  0  0  0  0  0  0  0  0  0  0
   -3.1562   -0.5620   -1.3694 H   0  0  0  0  0  0  0  0  0  0  0  0
   -3.9272   -1.8392   -2.3711 H   0  0  0  0  0  0  0  0  0  0  0  0
   -3.9336    1.1896   -3.0922 H   0  0  0  0  0  0  0  0  0  0  0  0
   -4.7124   -0.1345   -3.9877 H   0  0  0  0  0  0  0  0  0  0  0  0
   -3.6703   -0.9662   -5.6973 H   0  0  0  0  0  0  0  0  0  0  0  0
   -2.0713   -1.6865   -5.3706 H   0  0  0  0  0  0  0  0  0  0  0  0
   -2.1997   -0.0412   -6.1340 H   0  0  0  0  0  0  0  0  0  0  0  0
   -2.0986    1.2163   -1.6908 H   0  0  0  0  0  0  0  0  0  0  0  0
    0.0096    1.6729   -0.6863 H   0  0  0  0  0  0  0  0  0  0  0  0
    3.3028    0.8005   -2.2725 H   0  0  0  0  0  0  0  0  0  0  0  0
    3.3785   -1.2507   -1.5492 H   0  0  0  0  0  0  0  0  0  0  0  0
    4.1281   -3.2738   -0.5146 H   0  0  0  0  0  0  0  0  0  0  0  0
    3.6800   -1.4700    3.3923 H   0  0  0  0  0  0  0  0  0  0  0  0
    2.8884    0.7756    3.5886 H   0  0  0  0  0  0  0  0  0  0  0  0
    1.7676    3.5043   -1.1044 H   0  0  0  0  0  0  0  0  0  0  0  0
    1.1269    5.3526    0.3143 H   0  0  0  0  0  0  0  0  0  0  0  0
    2.0692    3.0001    3.8220 H   0  0  0  0  0  0  0  0  0  0  0  0
    0.5212    4.4736    4.8267 H   0  0  0  0  0  0  0  0  0  0  0  0
    2.2234    5.1125    4.8279 H   0  0  0  0  0  0  0  0  0  0  0  0
    0.8341    6.2244    5.0176 H   0  0  0  0  0  0  0  0  0  0  0  0
    1.4519    7.1382    1.8434 H   0  0  0  0  0  0  0  0  0  0  0  0
   -0.2494    6.4964    1.8549 H   0  0  0  0  0  0  0  0  0  0  0  0
    0.3786    7.4297    3.2461 H   0  0  0  0  0  0  0  0  0  0  0  0
    5.0873   -5.8075    1.9453 H   0  0  0  0  0  0  0  0  0  0  0  0
    5.6252   -4.6745    0.6683 H   0  0  0  0  0  0  0  0  0  0  0  0
    3.9036   -5.2556    0.7228 H   0  0  0  0  0  0  0  0  0  0  0  0
    5.2096   -3.1549    4.0014 H   0  0  0  0  0  0  0  0  0  0  0  0
    3.4866   -3.7351    4.0462 H   0  0  0  0  0  0  0  0  0  0  0  0
    4.8361   -4.9039    3.9254 H   0  0  0  0  0  0  0  0  0  0  0  0
    2.0515    0.0413   -4.1158 H   0  0  0  0  0  0  0  0  0  0  0  0
   -0.0855   -0.5180   -5.1189 H   0  0  0  0  0  0  0  0  0  0  0  0
  1 37  1  0  0  0  0
  1 38  1  0  0  0  0
  1 39  1  0  0  0  0
  2  1  1  0  0  0  0
  2 40  1  0  0  0  0
  2 41  1  0  0  0  0
  3  2  1  0  0  0  0
  3 42  1  0  0  0  0
  3 43  1  0  0  0  0
  4  3  1  0  0  0  0
  4 44  1  0  0  0  0
  4 45  1  0  0  0  0
  5  4  1  0  0  0  0
  5 46  1  0  0  0  0
  5 47  1  0  0  0  0
  6  5  1  0  0  0  0
  6 48  1  0  0  0  0
  6 49  1  0  0  0  0
  7  6  1  0  0  0  0
  7 50  1  0  0  0  0
  7 51  1  0  0  0  0
  8  7  1  0  0  0  0
  9  8  1  0  0  0  0
  9 52  1  0  0  0  0
  9 53  1  0  0  0  0
  9 54  1  0  0  0  0
 10  8  1  0  0  0  0
 11 10  2  0  0  0  0
 11 55  1  0  0  0  0
 12 11  1  0  0  0  0
 12 56  1  0  0  0  0
 13 12  2  0  0  0  0
 14 13  1  0  0  0  0
 14 57  1  0  0  0  0
 15 14  1  0  0  0  0
 16 15  2  0  0  0  0
 17 16  1  0  0  0  0
 17 58  1  0  0  0  0
 18 17  2  0  0  0  0
 18 59  1  0  0  0  0
 19 18  1  0  0  0  0
 20 19  2  0  0  0  0
 20 60  1  0  0  0  0
 21 20  1  0  0  0  0
 21 16  1  0  0  0  0
 22 21  2  0  0  0  0
 22 61  1  0  0  0  0
 23 22  1  0  0  0  0
 24 23  2  0  0  0  0
 24 15  1  0  0  0  0
 25 24  1  0  0  0  0
 25 62  1  0  0  0  0
 26 25  2  0  0  0  0
 26 63  1  0  0  0  0
 27 26  1  0  0  0  0
 28 27  2  0  0  0  0
 28 23  1  0  0  0  0
 28 64  1  0  0  0  0
 29 27  1  0  0  0  0
 30 29  1  0  0  0  0
 30 65  1  0  0  0  0
 30 66  1  0  0  0  0
 30 67  1  0  0  0  0
 31 29  1  0  0  0  0
 31 68  1  0  0  0  0
 31 69  1  0  0  0  0
 31 70  1  0  0  0  0
 32 19  1  0  0  0  0
 33 32  1  0  0  0  0
 33 71  1  0  0  0  0
 33 72  1  0  0  0  0
 33 73  1  0  0  0  0
 34 32  1  0  0  0  0
 34 74  1  0  0  0  0
 34 75  1  0  0  0  0
 34 76  1  0  0  0  0
 35 13  1  0  0  0  0
 35 77  1  0  0  0  0
 36 35  2  0  0  0  0
 36 10  1  0  0  0  0
 36 78  1  0  0  0  0
M  END
>  <MOL Chiral Flag>
0

>  <energy>
108.17438620259593

$$$$
> 13_AKC_AAC.37.5.991
>13.sdf
 OpenBabel10052217563D

 54 57  0  0  0  0  0  0  0  0999 V2000
    0.2843    6.1460    0.5360 C   0  0  0  0  0  0  0  0  0  0  0  0
    1.0966    4.9953    0.9074 N   0  0  0  0  0  0  0  0  0  0  0  0
    2.3313    5.2184    1.6509 C   0  0  0  0  0  0  0  0  0  0  0  0
    0.6990    3.6587    0.5227 C   0  0  0  0  0  0  0  0  0  0  0  0
    1.5599    2.5594    0.7225 C   0  0  0  0  0  0  0  0  0  0  0  0
    1.1996    1.2688    0.3048 C   0  0  0  0  0  0  0  0  0  0  0  0
    2.1105    0.2180    0.4490 C   0  0  0  0  0  0  0  0  0  0  0  0
    1.8000   -1.0659   -0.0060 C   0  0  0  0  0  0  0  0  0  0  0  0
    0.5393   -1.3235   -0.5928 C   0  0  0  0  0  0  0  0  0  0  0  0
    0.2429   -2.6349   -1.0069 C   0  0  0  0  0  0  0  0  0  0  0  0
    1.1773   -3.6593   -0.8673 C   0  0  0  0  0  0  0  0  0  0  0  0
    2.4563   -3.4060   -0.3278 C   0  0  0  0  0  0  0  0  0  0  0  0
    2.7462   -2.0965    0.1102 C   0  0  0  0  0  0  0  0  0  0  0  0
    3.4389   -4.4589   -0.2193 N   0  0  0  0  0  0  0  0  0  0  0  0
    3.0345   -5.8403   -0.4296 C   0  0  0  0  0  0  0  0  0  0  0  0
    4.8346   -4.1399   -0.4953 C   0  0  0  0  0  0  0  0  0  0  0  0
   -0.4012   -0.2726   -0.7345 C   0  0  0  0  0  0  0  0  0  0  0  0
   -1.6458   -0.5325   -1.3958 N   0  0  0  0  0  0  0  0  0  0  0  0
   -2.9248   -0.4125   -0.7732 C   0  0  0  0  0  0  0  0  0  0  0  0
   -4.0752   -0.6616   -1.5413 C   0  0  0  0  0  0  0  0  0  0  0  0
   -5.3434   -0.6078   -0.9617 C   0  0  0  0  0  0  0  0  0  0  0  0
   -5.4845   -0.3154    0.3997 C   0  0  0  0  0  0  0  0  0  0  0  0
   -6.7722   -0.2844    0.9896 N   0  0  0  0  0  0  0  0  0  0  0  0
   -4.3426   -0.0653    1.1761 C   0  0  0  0  0  0  0  0  0  0  0  0
   -3.0696   -0.1105    0.5953 C   0  0  0  0  0  0  0  0  0  0  0  0
   -0.0633    1.0374   -0.2956 C   0  0  0  0  0  0  0  0  0  0  0  0
   -0.9264    2.1322   -0.4842 C   0  0  0  0  0  0  0  0  0  0  0  0
   -0.5514    3.4191   -0.0900 C   0  0  0  0  0  0  0  0  0  0  0  0
    0.7320    7.1049    0.8721 H   0  0  0  0  0  0  0  0  0  0  0  0
   -0.7234    6.0705    0.9935 H   0  0  0  0  0  0  0  0  0  0  0  0
    0.1951    6.1954   -0.5709 H   0  0  0  0  0  0  0  0  0  0  0  0
    3.2044    4.8689    1.0615 H   0  0  0  0  0  0  0  0  0  0  0  0
    2.2870    4.6770    2.6199 H   0  0  0  0  0  0  0  0  0  0  0  0
    2.4990    6.2923    1.8778 H   0  0  0  0  0  0  0  0  0  0  0  0
    2.5325    2.7012    1.1748 H   0  0  0  0  0  0  0  0  0  0  0  0
    3.0812    0.4075    0.8982 H   0  0  0  0  0  0  0  0  0  0  0  0
   -0.7167   -2.8838   -1.4393 H   0  0  0  0  0  0  0  0  0  0  0  0
    0.8993   -4.6449   -1.2101 H   0  0  0  0  0  0  0  0  0  0  0  0
    3.7015   -1.8669    0.5591 H   0  0  0  0  0  0  0  0  0  0  0  0
    2.1378   -6.0753    0.1833 H   0  0  0  0  0  0  0  0  0  0  0  0
    2.8248   -6.0179   -1.5057 H   0  0  0  0  0  0  0  0  0  0  0  0
    3.8307   -6.5417   -0.1012 H   0  0  0  0  0  0  0  0  0  0  0  0
    5.4969   -4.9969   -0.2514 H   0  0  0  0  0  0  0  0  0  0  0  0
    4.9473   -3.9166   -1.5791 H   0  0  0  0  0  0  0  0  0  0  0  0
    5.2067   -3.2858    0.0974 H   0  0  0  0  0  0  0  0  0  0  0  0
   -1.6097   -1.0355   -2.2940 H   0  0  0  0  0  0  0  0  0  0  0  0
   -3.9838   -0.9027   -2.5929 H   0  0  0  0  0  0  0  0  0  0  0  0
   -6.2166   -0.8047   -1.5717 H   0  0  0  0  0  0  0  0  0  0  0  0
   -7.6118   -0.4752    0.4224 H   0  0  0  0  0  0  0  0  0  0  0  0
   -6.8845   -0.0877    1.9946 H   0  0  0  0  0  0  0  0  0  0  0  0
   -4.4410    0.1536    2.2317 H   0  0  0  0  0  0  0  0  0  0  0  0
   -2.2042    0.0664    1.2198 H   0  0  0  0  0  0  0  0  0  0  0  0
   -1.8893    2.0075   -0.9595 H   0  0  0  0  0  0  0  0  0  0  0  0
   -1.2464    4.2252   -0.2728 H   0  0  0  0  0  0  0  0  0  0  0  0
  1 29  1  0  0  0  0
  1 30  1  0  0  0  0
  1 31  1  0  0  0  0
  2  1  1  0  0  0  0
  3  2  1  0  0  0  0
  3 32  1  0  0  0  0
  3 33  1  0  0  0  0
  3 34  1  0  0  0  0
  4  2  1  0  0  0  0
  5  4  2  0  0  0  0
  5 35  1  0  0  0  0
  6  5  1  0  0  0  0
  7  6  2  0  0  0  0
  7 36  1  0  0  0  0
  8  7  1  0  0  0  0
  9  8  2  0  0  0  0
 10  9  1  0  0  0  0
 10 37  1  0  0  0  0
 11 10  2  0  0  0  0
 11 38  1  0  0  0  0
 12 11  1  0  0  0  0
 13 12  2  0  0  0  0
 13  8  1  0  0  0  0
 13 39  1  0  0  0  0
 14 12  1  0  0  0  0
 15 14  1  0  0  0  0
 15 40  1  0  0  0  0
 15 41  1  0  0  0  0
 15 42  1  0  0  0  0
 16 14  1  0  0  0  0
 16 43  1  0  0  0  0
 16 44  1  0  0  0  0
 16 45  1  0  0  0  0
 17  9  1  0  0  0  0
 18 17  1  0  0  0  0
 18 46  1  0  0  0  0
 19 18  1  0  0  0  0
 20 19  2  0  0  0  0
 20 47  1  0  0  0  0
 21 20  1  0  0  0  0
 21 48  1  0  0  0  0
 22 21  2  0  0  0  0
 23 22  1  0  0  0  0
 23 49  1  0  0  0  0
 23 50  1  0  0  0  0
 24 22  1  0  0  0  0
 24 51  1  0  0  0  0
 25 24  2  0  0  0  0
 25 19  1  0  0  0  0
 25 52  1  0  0  0  0
 26 17  2  0  0  0  0
 26  6  1  0  0  0  0
 27 26  1  0  0  0  0
 27 53  1  0  0  0  0
 28 27  2  0  0  0  0
 28  4  1  0  0  0  0
 28 54  1  0  0  0  0
M  END
>  <MOL Chiral Flag>
0

>  <energy>
76.135508122829393

$$$$
> 14_AKC_j.bmcl.2021.128289
>14.sdf
 OpenBabel10052217563D

 53 57  0  0  0  0  0  0  0  0999 V2000
    4.0682   -1.6818   -1.6397 C   0  0  0  0  0  0  0  0  0  0  0  0
    4.0249   -2.1406   -0.2642 N   0  0  0  0  0  0  0  0  0  0  0  0
    5.1290   -2.9709    0.1870 C   0  0  0  0  0  0  0  0  0  0  0  0
    3.2753   -1.3911    0.7055 C   0  0  0  0  0  0  0  0  0  0  0  0
    2.4485   -0.3164    0.3164 C   0  0  0  0  0  0  0  0  0  0  0  0
    1.7080    0.3875    1.2706 C   0  0  0  0  0  0  0  0  0  0  0  0
    0.7161    1.3936    0.9013 C   0  0  0  0  0  0  0  0  0  0  0  0
    0.4544    1.7359   -0.3038 N   0  0  0  0  0  0  0  0  0  0  0  0
   -0.7745    2.2909   -0.5605 N   0  0  0  0  0  0  0  0  0  0  0  0
   -1.0054    3.4831   -1.1659 C   0  0  0  0  0  0  0  0  0  0  0  0
   -0.1570    4.3278   -1.4484 O   0  0  0  0  0  0  0  0  0  0  0  0
   -2.4014    3.5602   -1.5072 C   0  0  0  0  0  0  0  0  0  0  0  0
   -2.9763    2.3977   -1.1856 C   0  0  0  0  0  0  0  0  0  0  0  0
   -1.9762    1.4464   -0.5800 C   0  0  0  0  0  0  0  0  0  0  0  0
   -1.7431    0.2550   -1.5490 C   0  0  0  0  0  0  0  0  0  0  0  0
   -1.1604    0.4491   -2.8280 C   0  0  0  0  0  0  0  0  0  0  0  0
   -0.9502   -0.6299   -3.6959 C   0  0  0  0  0  0  0  0  0  0  0  0
   -1.3231   -1.9158   -3.3141 C   0  0  0  0  0  0  0  0  0  0  0  0
   -1.8883   -2.1272   -2.0598 C   0  0  0  0  0  0  0  0  0  0  0  0
   -2.0881   -1.0513   -1.1753 C   0  0  0  0  0  0  0  0  0  0  0  0
   -2.6131   -1.3120    0.1024 N   0  0  0  0  0  0  0  0  0  0  0  0
   -2.7223   -0.3323    1.1078 C   0  0  0  0  0  0  0  0  0  0  0  0
   -2.4437    1.0162    0.8276 C   0  0  0  0  0  0  0  0  0  0  0  0
   -2.5823    1.9593    1.8705 C   0  0  0  0  0  0  0  0  0  0  0  0
   -2.9386    1.5534    3.1629 C   0  0  0  0  0  0  0  0  0  0  0  0
   -3.1873    0.2089    3.4296 C   0  0  0  0  0  0  0  0  0  0  0  0
   -3.0924   -0.7291    2.4051 C   0  0  0  0  0  0  0  0  0  0  0  0
   -3.0879    4.6804   -2.0817 C   0  0  0  0  0  0  0  0  0  0  0  0
   -3.6850    5.5561   -2.5426 N   0  0  0  0  0  0  0  0  0  0  0  0
    1.7936    0.0507    2.6249 C   0  0  0  0  0  0  0  0  0  0  0  0
    2.6044   -0.9993    3.0215 C   0  0  0  0  0  0  0  0  0  0  0  0
    3.3339   -1.7188    2.0755 C   0  0  0  0  0  0  0  0  0  0  0  0
    4.5657   -2.4137   -2.2877 H   0  0  0  0  0  0  0  0  0  0  0  0
    4.6427   -0.7364   -1.6880 H   0  0  0  0  0  0  0  0  0  0  0  0
    3.0668   -1.5278   -2.0686 H   0  0  0  0  0  0  0  0  0  0  0  0
    5.8833   -2.3344    0.6929 H   0  0  0  0  0  0  0  0  0  0  0  0
    5.6303   -3.4636   -0.6583 H   0  0  0  0  0  0  0  0  0  0  0  0
    4.8074   -3.7716    0.8675 H   0  0  0  0  0  0  0  0  0  0  0  0
    2.3316   -0.0393   -0.7171 H   0  0  0  0  0  0  0  0  0  0  0  0
    0.0723    1.7468    1.6975 H   0  0  0  0  0  0  0  0  0  0  0  0
   -4.0161    2.1444   -1.3280 H   0  0  0  0  0  0  0  0  0  0  0  0
   -0.8473    1.4307   -3.1507 H   0  0  0  0  0  0  0  0  0  0  0  0
   -0.4938   -0.4648   -4.6655 H   0  0  0  0  0  0  0  0  0  0  0  0
   -1.1661   -2.7514   -3.9863 H   0  0  0  0  0  0  0  0  0  0  0  0
   -2.1724   -3.1336   -1.7716 H   0  0  0  0  0  0  0  0  0  0  0  0
   -2.6690   -2.2841    0.3898 H   0  0  0  0  0  0  0  0  0  0  0  0
   -2.3846    3.0068    1.6953 H   0  0  0  0  0  0  0  0  0  0  0  0
   -3.0138    2.2839    3.9604 H   0  0  0  0  0  0  0  0  0  0  0  0
   -3.4587   -0.1073    4.4301 H   0  0  0  0  0  0  0  0  0  0  0  0
   -3.3040   -1.7710    2.6205 H   0  0  0  0  0  0  0  0  0  0  0  0
    1.1950    0.5785    3.3672 H   0  0  0  0  0  0  0  0  0  0  0  0
    2.6485   -1.2829    4.0655 H   0  0  0  0  0  0  0  0  0  0  0  0
    3.9229   -2.5449    2.4279 H   0  0  0  0  0  0  0  0  0  0  0  0
  1 33  1  0  0  0  0
  1 34  1  0  0  0  0
  1 35  1  0  0  0  0
  2  1  1  0  0  0  0
  3  2  1  0  0  0  0
  3 36  1  0  0  0  0
  3 37  1  0  0  0  0
  3 38  1  0  0  0  0
  4  2  1  0  0  0  0
  5  4  2  0  0  0  0
  5 39  1  0  0  0  0
  6  5  1  0  0  0  0
  7  6  1  0  0  0  0
  7 40  1  0  0  0  0
  8  7  2  0  0  0  0
  9  8  1  0  0  0  0
 10  9  1  0  0  0  0
 11 10  2  0  0  0  0
 12 10  1  0  0  0  0
 13 12  2  0  0  0  0
 13 41  1  0  0  0  0
 14 13  1  0  0  0  0
 14  9  1  0  0  0  0
 15 14  1  0  0  0  0
 16 15  2  0  0  0  0
 16 42  1  0  0  0  0
 17 16  1  0  0  0  0
 17 43  1  0  0  0  0
 18 17  2  0  0  0  0
 18 44  1  0  0  0  0
 19 18  1  0  0  0  0
 19 45  1  0  0  0  0
 20 19  2  0  0  0  0
 20 15  1  0  0  0  0
 21 20  1  0  0  0  0
 21 46  1  0  0  0  0
 22 21  1  0  0  0  0
 23 22  2  0  0  0  0
 23 14  1  0  0  0  0
 24 23  1  0  0  0  0
 24 47  1  0  0  0  0
 25 24  2  0  0  0  0
 25 48  1  0  0  0  0
 26 25  1  0  0  0  0
 26 49  1  0  0  0  0
 27 26  2  0  0  0  0
 27 22  1  0  0  0  0
 27 50  1  0  0  0  0
 28 12  1  0  0  0  0
 29 28  3  0  0  0  0
 30  6  2  0  0  0  0
 30 51  1  0  0  0  0
 31 30  1  0  0  0  0
 31 52  1  0  0  0  0
 32 31  2  0  0  0  0
 32  4  1  0  0  0  0
 32 53  1  0  0  0  0
M  END
>  <MOL Chiral Flag>
0

>  <energy>
107.25884249857249

$$$$
> 15_AKC_j.ejmech.2007.02.010
>15.sdf
 OpenBabel10052217573D

 37 39  0  0  0  0  0  0  0  0999 V2000
    6.4798    0.0881   -0.0953 C   0  0  0  0  0  0  0  0  0  0  0  0
    5.2330    0.9289   -0.1035 C   0  0  0  0  0  0  0  0  0  0  0  0
    5.2717    2.0960    0.2499 O   0  0  0  0  0  0  0  0  0  0  0  0
    4.0726    0.3304   -0.4616 N   0  0  0  0  0  0  0  0  0  0  0  0
    2.7475    0.8734   -0.4596 C   0  0  0  0  0  0  0  0  0  0  0  0
    1.7365   -0.0572   -0.5777 C   0  0  0  0  0  0  0  0  0  0  0  0
    0.4191    0.2972   -0.5454 C   0  0  0  0  0  0  0  0  0  0  0  0
   -0.4723   -0.6910   -0.6075 N   0  0  0  0  0  0  0  0  0  0  0  0
   -1.7873   -0.4815   -0.5511 C   0  0  0  0  0  0  0  0  0  0  0  0
   -2.3084    0.8168   -0.4471 C   0  0  0  0  0  0  0  0  0  0  0  0
   -3.7116    0.9600   -0.3730 C   0  0  0  0  0  0  0  0  0  0  0  0
   -4.5417   -0.1949   -0.3795 C   0  0  0  0  0  0  0  0  0  0  0  0
   -3.9731   -1.4903   -0.4809 C   0  0  0  0  0  0  0  0  0  0  0  0
   -4.7848   -2.6788   -0.4056 N   0  0  0  0  0  0  0  0  0  0  0  0
   -4.3630   -3.9347   -0.7885 C   0  0  0  0  0  0  0  0  0  0  0  0
   -5.1647   -5.1468   -0.4413 C   0  0  0  0  0  0  0  0  0  0  0  0
   -3.3325   -4.1001   -1.4206 O   0  0  0  0  0  0  0  0  0  0  0  0
   -2.5886   -1.5889   -0.5628 C   0  0  0  0  0  0  0  0  0  0  0  0
   -1.3894    1.9058   -0.3898 C   0  0  0  0  0  0  0  0  0  0  0  0
    0.0099    1.6335   -0.4223 C   0  0  0  0  0  0  0  0  0  0  0  0
    1.0155    2.6238   -0.3211 C   0  0  0  0  0  0  0  0  0  0  0  0
    2.3897    2.2456   -0.3278 C   0  0  0  0  0  0  0  0  0  0  0  0
    6.3213   -0.7813    0.5833 H   0  0  0  0  0  0  0  0  0  0  0  0
    6.6657   -0.3097   -1.1166 H   0  0  0  0  0  0  0  0  0  0  0  0
    7.3650    0.6543    0.2515 H   0  0  0  0  0  0  0  0  0  0  0  0
    4.1485   -0.6726   -0.7014 H   0  0  0  0  0  0  0  0  0  0  0  0
    1.9802   -1.1098   -0.6677 H   0  0  0  0  0  0  0  0  0  0  0  0
   -4.1611    1.9428   -0.2877 H   0  0  0  0  0  0  0  0  0  0  0  0
   -5.6154   -0.0812   -0.2977 H   0  0  0  0  0  0  0  0  0  0  0  0
   -5.7211   -2.5904    0.0141 H   0  0  0  0  0  0  0  0  0  0  0  0
   -5.2248   -5.2285    0.6644 H   0  0  0  0  0  0  0  0  0  0  0  0
   -6.1759   -5.0886   -0.8830 H   0  0  0  0  0  0  0  0  0  0  0  0
   -4.6491   -6.0598   -0.8194 H   0  0  0  0  0  0  0  0  0  0  0  0
   -2.0738   -2.5295   -0.5797 H   0  0  0  0  0  0  0  0  0  0  0  0
   -1.7506    2.9248   -0.2942 H   0  0  0  0  0  0  0  0  0  0  0  0
    0.7464    3.6696   -0.2211 H   0  0  0  0  0  0  0  0  0  0  0  0
    3.1386    3.0173   -0.2381 H   0  0  0  0  0  0  0  0  0  0  0  0
  1 23  1  0  0  0  0
  1 24  1  0  0  0  0
  1 25  1  0  0  0  0
  2  1  1  0  0  0  0
  3  2  2  0  0  0  0
  4  2  1  0  0  0  0
  4 26  1  0  0  0  0
  5  4  1  0  0  0  0
  6  5  2  0  0  0  0
  6 27  1  0  0  0  0
  7  6  1  0  0  0  0
  8  7  2  0  0  0  0
  9  8  1  0  0  0  0
 10  9  2  0  0  0  0
 11 10  1  0  0  0  0
 11 28  1  0  0  0  0
 12 11  2  0  0  0  0
 12 29  1  0  0  0  0
 13 12  1  0  0  0  0
 14 13  1  0  0  0  0
 14 30  1  0  0  0  0
 15 14  1  0  0  0  0
 16 15  1  0  0  0  0
 16 31  1  0  0  0  0
 16 32  1  0  0  0  0
 16 33  1  0  0  0  0
 17 15  2  0  0  0  0
 18 13  2  0  0  0  0
 18  9  1  0  0  0  0
 18 34  1  0  0  0  0
 19 10  1  0  0  0  0
 19 35  1  0  0  0  0
 20 19  2  0  0  0  0
 20  7  1  0  0  0  0
 21 20  1  0  0  0  0
 21 36  1  0  0  0  0
 22 21  2  0  0  0  0
 22  5  1  0  0  0  0
 22 37  1  0  0  0  0
M  END
>  <MOL Chiral Flag>
0

>  <energy>
20.888856953072207

$$$$
> 16_AKC_j.ejmech.2007.02.010
>16.sdf
 OpenBabel10052217583D

 51 55  0  0  0  0  0  0  0  0999 V2000
    6.5528   -0.7944    0.6912 O   0  0  0  0  0  0  0  0  0  0  0  0
    6.0935    0.3166    0.4848 C   0  0  0  0  0  0  0  0  0  0  0  0
    4.7450    0.4882    0.3094 N   0  0  0  0  0  0  0  0  0  0  0  0
    3.7083   -0.5092    0.3756 C   0  0  0  0  0  0  0  0  0  0  0  0
    2.3984   -0.0700    0.1428 C   0  0  0  0  0  0  0  0  0  0  0  0
    1.3196   -0.9374    0.2180 C   0  0  0  0  0  0  0  0  0  0  0  0
    0.0750   -0.4529    0.0131 N   0  0  0  0  0  0  0  0  0  0  0  0
   -1.0237   -1.2344    0.1107 C   0  0  0  0  0  0  0  0  0  0  0  0
   -0.9004   -2.6008    0.4234 C   0  0  0  0  0  0  0  0  0  0  0  0
   -2.0623   -3.3782    0.5580 C   0  0  0  0  0  0  0  0  0  0  0  0
   -3.3284   -2.7851    0.4011 C   0  0  0  0  0  0  0  0  0  0  0  0
   -3.4481   -1.4173    0.0779 C   0  0  0  0  0  0  0  0  0  0  0  0
   -4.7495   -0.8102   -0.0011 N   0  0  0  0  0  0  0  0  0  0  0  0
   -5.0119    0.3759   -0.6465 C   0  0  0  0  0  0  0  0  0  0  0  0
   -4.1731    0.8683   -1.3857 O   0  0  0  0  0  0  0  0  0  0  0  0
   -6.3065    1.1113   -0.4766 C   0  0  0  0  0  0  0  0  0  0  0  0
   -7.2698    0.7414    0.4874 C   0  0  0  0  0  0  0  0  0  0  0  0
   -8.4296    1.5057    0.6562 C   0  0  0  0  0  0  0  0  0  0  0  0
   -8.6478    2.6393   -0.1282 C   0  0  0  0  0  0  0  0  0  0  0  0
   -7.7086    3.0144   -1.0871 C   0  0  0  0  0  0  0  0  0  0  0  0
   -6.5460    2.2617   -1.2606 C   0  0  0  0  0  0  0  0  0  0  0  0
   -2.2719   -0.6569   -0.0645 C   0  0  0  0  0  0  0  0  0  0  0  0
    0.3868   -3.1386    0.6207 C   0  0  0  0  0  0  0  0  0  0  0  0
    1.5121   -2.2954    0.5263 C   0  0  0  0  0  0  0  0  0  0  0  0
    2.8156   -2.7651    0.7491 C   0  0  0  0  0  0  0  0  0  0  0  0
    3.9109   -1.8830    0.6786 C   0  0  0  0  0  0  0  0  0  0  0  0
    7.0463    1.4862    0.4241 C   0  0  0  0  0  0  0  0  0  0  0  0
    8.4340    1.2472    0.5225 C   0  0  0  0  0  0  0  0  0  0  0  0
    9.3479    2.3047    0.4732 C   0  0  0  0  0  0  0  0  0  0  0  0
    8.8981    3.6164    0.3294 C   0  0  0  0  0  0  0  0  0  0  0  0
    7.5335    3.8769    0.2349 C   0  0  0  0  0  0  0  0  0  0  0  0
    6.6100    2.8295    0.2805 C   0  0  0  0  0  0  0  0  0  0  0  0
    4.4111    1.4349    0.1094 H   0  0  0  0  0  0  0  0  0  0  0  0
    2.2112    0.9729   -0.0868 H   0  0  0  0  0  0  0  0  0  0  0  0
   -1.9928   -4.4303    0.8082 H   0  0  0  0  0  0  0  0  0  0  0  0
   -4.2167   -3.3897    0.5353 H   0  0  0  0  0  0  0  0  0  0  0  0
   -5.5121   -1.2962    0.4858 H   0  0  0  0  0  0  0  0  0  0  0  0
   -7.1317   -0.1114    1.1321 H   0  0  0  0  0  0  0  0  0  0  0  0
   -9.1559    1.2240    1.4071 H   0  0  0  0  0  0  0  0  0  0  0  0
   -9.5423    3.2318    0.0120 H   0  0  0  0  0  0  0  0  0  0  0  0
   -7.8747    3.8969   -1.6918 H   0  0  0  0  0  0  0  0  0  0  0  0
   -5.8264    2.5851   -2.0029 H   0  0  0  0  0  0  0  0  0  0  0  0
   -2.2950    0.4025   -0.2545 H   0  0  0  0  0  0  0  0  0  0  0  0
    0.5087   -4.1872    0.8689 H   0  0  0  0  0  0  0  0  0  0  0  0
    2.9862   -3.8073    0.9918 H   0  0  0  0  0  0  0  0  0  0  0  0
    4.8825   -2.2967    0.8746 H   0  0  0  0  0  0  0  0  0  0  0  0
    8.8131    0.2397    0.6351 H   0  0  0  0  0  0  0  0  0  0  0  0
   10.4087    2.1056    0.5473 H   0  0  0  0  0  0  0  0  0  0  0  0
    9.6072    4.4332    0.2928 H   0  0  0  0  0  0  0  0  0  0  0  0
    7.1855    4.8969    0.1272 H   0  0  0  0  0  0  0  0  0  0  0  0
    5.5714    3.1009    0.2094 H   0  0  0  0  0  0  0  0  0  0  0  0
  2  1  2  0  0  0  0
  3  2  1  0  0  0  0
  3 33  1  0  0  0  0
  4  3  1  0  0  0  0
  5  4  2  0  0  0  0
  5 34  1  0  0  0  0
  6  5  1  0  0  0  0
  7  6  2  0  0  0  0
  8  7  1  0  0  0  0
  9  8  2  0  0  0  0
 10  9  1  0  0  0  0
 10 35  1  0  0  0  0
 11 10  2  0  0  0  0
 11 36  1  0  0  0  0
 12 11  1  0  0  0  0
 13 12  1  0  0  0  0
 13 37  1  0  0  0  0
 14 13  1  0  0  0  0
 15 14  2  0  0  0  0
 16 14  1  0  0  0  0
 17 16  2  0  0  0  0
 17 38  1  0  0  0  0
 18 17  1  0  0  0  0
 18 39  1  0  0  0  0
 19 18  2  0  0  0  0
 19 40  1  0  0  0  0
 20 19  1  0  0  0  0
 20 41  1  0  0  0  0
 21 20  2  0  0  0  0
 21 16  1  0  0  0  0
 21 42  1  0  0  0  0
 22 12  2  0  0  0  0
 22  8  1  0  0  0  0
 22 43  1  0  0  0  0
 23  9  1  0  0  0  0
 23 44  1  0  0  0  0
 24 23  2  0  0  0  0
 24  6  1  0  0  0  0
 25 24  1  0  0  0  0
 25 45  1  0  0  0  0
 26 25  2  0  0  0  0
 26  4  1  0  0  0  0
 26 46  1  0  0  0  0
 27  2  1  0  0  0  0
 28 27  2  0  0  0  0
 28 47  1  0  0  0  0
 29 28  1  0  0  0  0
 29 48  1  0  0  0  0
 30 29  2  0  0  0  0
 30 49  1  0  0  0  0
 31 30  1  0  0  0  0
 31 50  1  0  0  0  0
 32 31  2  0  0  0  0
 32 27  1  0  0  0  0
 32 51  1  0  0  0  0
M  END
>  <MOL Chiral Flag>
0

>  <energy>
101.83445234996746

$$$$
> 17_AKC_AAC.02529-15
>17.sdf
 OpenBabel10052217583D

 16 16  0  0  0  0  0  0  0  0999 V2000
   -2.4971   -0.3755    0.0600 C   0  0  0  0  0  0  0  0  0  0  0  0
   -1.0519   -0.7335   -0.0193 C   0  0  0  0  0  0  0  0  0  0  0  0
    0.0312    0.0925   -0.2837 C   0  0  0  0  0  0  0  0  0  0  0  0
    0.0622    1.9880   -0.7315 Se  0  0  0  0  0  0  0  0  0  0  0  0
   -0.1398    2.8104    0.9766 C   0  0  0  0  0  0  0  0  0  0  0  0
   -0.2842    3.3084    2.0132 N   0  0  0  0  0  0  0  0  0  0  0  0
    1.1154   -0.7668   -0.2632 C   0  0  0  0  0  0  0  0  0  0  0  0
    2.5484   -0.4247   -0.4953 C   0  0  0  0  0  0  0  0  0  0  0  0
    0.6834   -2.0158   -0.0049 N   0  0  0  0  0  0  0  0  0  0  0  0
   -0.6081   -1.9608    0.1405 O   0  0  0  0  0  0  0  0  0  0  0  0
   -2.6532    0.4054    0.8310 H   0  0  0  0  0  0  0  0  0  0  0  0
   -3.0788   -1.2793    0.3475 H   0  0  0  0  0  0  0  0  0  0  0  0
   -2.8609   -0.0209   -0.9257 H   0  0  0  0  0  0  0  0  0  0  0  0
    3.1658   -1.3491   -0.4789 H   0  0  0  0  0  0  0  0  0  0  0  0
    2.8960    0.2503    0.3131 H   0  0  0  0  0  0  0  0  0  0  0  0
    2.6715    0.0714   -1.4796 H   0  0  0  0  0  0  0  0  0  0  0  0
  1 11  1  0  0  0  0
  1 12  1  0  0  0  0
  1 13  1  0  0  0  0
  2  1  1  0  0  0  0
  3  2  2  0  0  0  0
  4  3  1  0  0  0  0
  5  4  1  0  0  0  0
  6  5  3  0  0  0  0
  7  3  1  0  0  0  0
  8  7  1  0  0  0  0
  8 14  1  0  0  0  0
  8 15  1  0  0  0  0
  8 16  1  0  0  0  0
  9  7  2  0  0  0  0
 10  9  1  0  0  0  0
 10  2  1  0  0  0  0
M  END
>  <MOL Chiral Flag>
0

>  <energy>
4.0861058062428395

$$$$
> 18_AKC_AAC.02529-15
>18.sdf
 OpenBabel10052217583D

 24 25  0  0  0  0  0  0  0  0999 V2000
    0.3765    2.8853   -0.3166 Br  0  0  0  0  0  0  0  0  0  0  0  0
    1.9952    1.9115   -0.0293 C   0  0  0  0  0  0  0  0  0  0  0  0
    2.2676    0.5750   -0.3478 C   0  0  0  0  0  0  0  0  0  0  0  0
    1.2809   -0.3559   -0.9904 C   0  0  0  0  0  0  0  0  0  0  0  0
    0.9816   -1.9125    0.1496 Se  0  0  0  0  0  0  0  0  0  0  0  0
   -0.0344   -0.5980    1.8670 Se  0  0  0  0  0  0  0  0  0  0  0  0
   -1.7890   -1.3712    1.5177 C   0  0  0  0  0  0  0  0  0  0  0  0
   -2.4313   -0.7581    0.3100 C   0  0  0  0  0  0  0  0  0  0  0  0
   -2.7864   -1.4780   -0.8386 C   0  0  0  0  0  0  0  0  0  0  0  0
   -2.5526   -3.3435   -1.1804 Br  0  0  0  0  0  0  0  0  0  0  0  0
   -3.4687   -0.3978   -1.8912 S   0  0  0  0  0  0  0  0  0  0  0  0
   -3.3585    0.9861   -0.9838 C   0  0  0  0  0  0  0  0  0  0  0  0
   -2.7547    0.6277    0.2248 C   0  0  0  0  0  0  0  0  0  0  0  0
    3.5882    0.1713    0.0093 C   0  0  0  0  0  0  0  0  0  0  0  0
    4.3386    1.1861    0.6095 C   0  0  0  0  0  0  0  0  0  0  0  0
    3.3640    2.5267    0.6720 S   0  0  0  0  0  0  0  0  0  0  0  0
    1.6969   -0.7070   -1.9579 H   0  0  0  0  0  0  0  0  0  0  0  0
    0.3086    0.1322   -1.2091 H   0  0  0  0  0  0  0  0  0  0  0  0
   -2.4319   -1.2020    2.4063 H   0  0  0  0  0  0  0  0  0  0  0  0
   -1.6720   -2.4698    1.4223 H   0  0  0  0  0  0  0  0  0  0  0  0
   -3.6915    1.9749   -1.2677 H   0  0  0  0  0  0  0  0  0  0  0  0
   -2.5580    1.3367    1.0183 H   0  0  0  0  0  0  0  0  0  0  0  0
    3.9741   -0.8253   -0.1596 H   0  0  0  0  0  0  0  0  0  0  0  0
    5.3568    1.1059    0.9656 H   0  0  0  0  0  0  0  0  0  0  0  0
  2  1  1  0  0  0  0
  3  2  2  0  0  0  0
  4  3  1  0  0  0  0
  4 17  1  0  0  0  0
  4 18  1  0  0  0  0
  5  4  1  0  0  0  0
  6  5  1  0  0  0  0
  7  6  1  0  0  0  0
  7 19  1  0  0  0  0
  7 20  1  0  0  0  0
  8  7  1  0  0  0  0
  9  8  2  0  0  0  0
 10  9  1  0  0  0  0
 11  9  1  0  0  0  0
 12 11  1  0  0  0  0
 12 21  1  0  0  0  0
 13 12  2  0  0  0  0
 13  8  1  0  0  0  0
 13 22  1  0  0  0  0
 14  3  1  0  0  0  0
 14 23  1  0  0  0  0
 15 14  2  0  0  0  0
 15 24  1  0  0  0  0
 16 15  1  0  0  0  0
 16  2  1  0  0  0  0
M  END
>  <MOL Chiral Flag>
0

>  <energy>
-5.1485602688055856

$$$$
> 19_AKC_AAC.02529-15
>19.sdf
 OpenBabel10052217593D

 34 37  0  0  0  0  0  0  0  0999 V2000
    2.5182   -1.5889    2.0399 C   0  0  0  0  0  0  0  0  0  0  0  0
    0.5994   -1.3898    2.3651 Se  0  0  0  0  0  0  0  0  0  0  0  0
    0.7393    0.9679    2.8956 Se  0  0  0  0  0  0  0  0  0  0  0  0
   -1.0019    1.6332    2.2373 C   0  0  0  0  0  0  0  0  0  0  0  0
   -1.8696    0.5557    1.7771 N   0  0  0  0  0  0  0  0  0  0  0  0
   -2.2683   -0.4584    2.5425 N   0  0  0  0  0  0  0  0  0  0  0  0
   -3.0188   -1.3026    1.8401 N   0  0  0  0  0  0  0  0  0  0  0  0
   -3.1081   -0.7912    0.5990 C   0  0  0  0  0  0  0  0  0  0  0  0
   -3.7749   -1.2982   -0.5068 C   0  0  0  0  0  0  0  0  0  0  0  0
   -3.7242   -0.5474   -1.6980 C   0  0  0  0  0  0  0  0  0  0  0  0
   -3.0135    0.6785   -1.7413 C   0  0  0  0  0  0  0  0  0  0  0  0
   -2.3359    1.1506   -0.5981 C   0  0  0  0  0  0  0  0  0  0  0  0
   -2.4080    0.3717    0.5601 C   0  0  0  0  0  0  0  0  0  0  0  0
    2.9517   -0.5396    1.1324 N   0  0  0  0  0  0  0  0  0  0  0  0
    3.7127    0.4928    1.4818 N   0  0  0  0  0  0  0  0  0  0  0  0
    3.8417    1.3357    0.4582 N   0  0  0  0  0  0  0  0  0  0  0  0
    3.1440    0.8025   -0.5624 C   0  0  0  0  0  0  0  0  0  0  0  0
    2.9392    1.3006   -1.8417 C   0  0  0  0  0  0  0  0  0  0  0  0
    2.1613    0.5236   -2.7256 C   0  0  0  0  0  0  0  0  0  0  0  0
    1.6205   -0.7179   -2.3030 C   0  0  0  0  0  0  0  0  0  0  0  0
    1.8365   -1.1752   -0.9884 C   0  0  0  0  0  0  0  0  0  0  0  0
    2.6049   -0.3707   -0.1496 C   0  0  0  0  0  0  0  0  0  0  0  0
    2.7372   -2.5848    1.5971 H   0  0  0  0  0  0  0  0  0  0  0  0
    3.0412   -1.5118    3.0158 H   0  0  0  0  0  0  0  0  0  0  0  0
   -0.8230    2.3646    1.4216 H   0  0  0  0  0  0  0  0  0  0  0  0
   -1.5065    2.1508    3.0799 H   0  0  0  0  0  0  0  0  0  0  0  0
   -4.3135   -2.2350   -0.4549 H   0  0  0  0  0  0  0  0  0  0  0  0
   -4.2337   -0.9073   -2.5818 H   0  0  0  0  0  0  0  0  0  0  0  0
   -2.9893    1.2537   -2.6579 H   0  0  0  0  0  0  0  0  0  0  0  0
   -1.7925    2.0849   -0.6282 H   0  0  0  0  0  0  0  0  0  0  0  0
    3.3573    2.2505   -2.1458 H   0  0  0  0  0  0  0  0  0  0  0  0
    1.9785    0.8753   -3.7316 H   0  0  0  0  0  0  0  0  0  0  0  0
    1.0356   -1.3147   -2.9905 H   0  0  0  0  0  0  0  0  0  0  0  0
    1.4282   -2.1193   -0.6506 H   0  0  0  0  0  0  0  0  0  0  0  0
  1 23  1  0  0  0  0
  1 24  1  0  0  0  0
  2  1  1  0  0  0  0
  3  2  1  0  0  0  0
  4  3  1  0  0  0  0
  4 25  1  0  0  0  0
  4 26  1  0  0  0  0
  5  4  1  0  0  0  0
  6  5  1  0  0  0  0
  7  6  2  0  0  0  0
  8  7  1  0  0  0  0
  9  8  2  0  0  0  0
  9 27  1  0  0  0  0
 10  9  1  0  0  0  0
 10 28  1  0  0  0  0
 11 10  2  0  0  0  0
 11 29  1  0  0  0  0
 12 11  1  0  0  0  0
 12 30  1  0  0  0  0
 13 12  2  0  0  0  0
 13  5  1  0  0  0  0
 13  8  1  0  0  0  0
 14  1  1  0  0  0  0
 15 14  1  0  0  0  0
 16 15  2  0  0  0  0
 17 16  1  0  0  0  0
 18 17  2  0  0  0  0
 18 31  1  0  0  0  0
 19 18  1  0  0  0  0
 19 32  1  0  0  0  0
 20 19  2  0  0  0  0
 20 33  1  0  0  0  0
 21 20  1  0  0  0  0
 21 34  1  0  0  0  0
 22 21  2  0  0  0  0
 22 14  1  0  0  0  0
 22 17  1  0  0  0  0
M  END
>  <MOL Chiral Flag>
0

>  <energy>
26.354192823850692

$$$$
> 20_AKC_AAC.02529-15
>20.sdf
 OpenBabel10052217593D

 54 59  0  0  0  0  0  0  0  0999 V2000
    2.3510   -2.6159   -2.1359 O   0  0  0  0  0  0  0  0  0  0  0  0
    2.6257   -1.9703   -1.1336 C   0  0  0  0  0  0  0  0  0  0  0  0
    3.1329   -2.6631    0.0737 C   0  0  0  0  0  0  0  0  0  0  0  0
    3.2602   -4.0655    0.0898 C   0  0  0  0  0  0  0  0  0  0  0  0
    3.7477   -4.7165    1.2237 C   0  0  0  0  0  0  0  0  0  0  0  0
    4.1232   -3.9784    2.3461 C   0  0  0  0  0  0  0  0  0  0  0  0
    3.9984   -2.5854    2.3459 C   0  0  0  0  0  0  0  0  0  0  0  0
    3.4926   -1.9149    1.2147 C   0  0  0  0  0  0  0  0  0  0  0  0
    3.3306   -0.4318    1.2139 C   0  0  0  0  0  0  0  0  0  0  0  0
    3.6457    0.2156    2.2024 O   0  0  0  0  0  0  0  0  0  0  0  0
    2.7929    0.2632    0.0087 C   0  0  0  0  0  0  0  0  0  0  0  0
    2.6380    1.6719   -0.0184 C   0  0  0  0  0  0  0  0  0  0  0  0
    2.1826    2.3182   -1.1942 C   0  0  0  0  0  0  0  0  0  0  0  0
    2.1242    3.8318   -1.3589 C   0  0  0  0  0  0  0  0  0  0  0  0
    1.1479    5.4034   -0.7644 Se  0  0  0  0  0  0  0  0  0  0  0  0
    0.6275    4.4595    1.3412 Se  0  0  0  0  0  0  0  0  0  0  0  0
   -1.2910    4.7346    1.0967 C   0  0  0  0  0  0  0  0  0  0  0  0
   -1.7720    3.3108    1.1093 C   0  0  0  0  0  0  0  0  0  0  0  0
   -1.4767    2.4839    2.2049 C   0  0  0  0  0  0  0  0  0  0  0  0
   -1.7701    1.1315    2.1665 C   0  0  0  0  0  0  0  0  0  0  0  0
   -2.4036    0.5778    1.0480 C   0  0  0  0  0  0  0  0  0  0  0  0
   -2.6890   -0.8729    1.0045 C   0  0  0  0  0  0  0  0  0  0  0  0
   -2.3272   -1.5955    1.9234 O   0  0  0  0  0  0  0  0  0  0  0  0
   -3.4203   -1.4460   -0.1470 C   0  0  0  0  0  0  0  0  0  0  0  0
   -3.7563   -2.8095   -0.1657 C   0  0  0  0  0  0  0  0  0  0  0  0
   -4.4658   -3.3430   -1.2416 C   0  0  0  0  0  0  0  0  0  0  0  0
   -4.8367   -2.5265   -2.3111 C   0  0  0  0  0  0  0  0  0  0  0  0
   -4.5014   -1.1718   -2.3091 C   0  0  0  0  0  0  0  0  0  0  0  0
   -3.7966   -0.6188   -1.2274 C   0  0  0  0  0  0  0  0  0  0  0  0
   -3.4572    0.8255   -1.2112 C   0  0  0  0  0  0  0  0  0  0  0  0
   -3.7597    1.5366   -2.1597 O   0  0  0  0  0  0  0  0  0  0  0  0
   -2.7672    1.4087   -0.0354 C   0  0  0  0  0  0  0  0  0  0  0  0
   -2.4467    2.7790    0.0024 C   0  0  0  0  0  0  0  0  0  0  0  0
    1.8719    1.5375   -2.3168 C   0  0  0  0  0  0  0  0  0  0  0  0
    2.0004    0.1552   -2.2873 C   0  0  0  0  0  0  0  0  0  0  0  0
    2.4647   -0.4940   -1.1362 C   0  0  0  0  0  0  0  0  0  0  0  0
    2.9788   -4.6558   -0.7739 H   0  0  0  0  0  0  0  0  0  0  0  0
    3.8368   -5.7958    1.2305 H   0  0  0  0  0  0  0  0  0  0  0  0
    4.5078   -4.4878    3.2206 H   0  0  0  0  0  0  0  0  0  0  0  0
    4.2927   -2.0329    3.2288 H   0  0  0  0  0  0  0  0  0  0  0  0
    2.9053    2.2572    0.8535 H   0  0  0  0  0  0  0  0  0  0  0  0
    2.7814    4.1230   -0.5132 H   0  0  0  0  0  0  0  0  0  0  0  0
    1.0720    3.7880   -1.7216 H   0  0  0  0  0  0  0  0  0  0  0  0
   -1.8705    5.1348    1.9686 H   0  0  0  0  0  0  0  0  0  0  0  0
   -0.8722    5.7545    1.0869 H   0  0  0  0  0  0  0  0  0  0  0  0
   -0.9708    2.8898    3.0699 H   0  0  0  0  0  0  0  0  0  0  0  0
   -1.4831    0.5148    3.0079 H   0  0  0  0  0  0  0  0  0  0  0  0
   -3.4781   -3.4562    0.6575 H   0  0  0  0  0  0  0  0  0  0  0  0
   -4.7312   -4.3912   -1.2438 H   0  0  0  0  0  0  0  0  0  0  0  0
   -5.3885   -2.9423   -3.1426 H   0  0  0  0  0  0  0  0  0  0  0  0
   -4.7993   -0.5525   -3.1457 H   0  0  0  0  0  0  0  0  0  0  0  0
   -2.6987    3.4205   -0.8361 H   0  0  0  0  0  0  0  0  0  0  0  0
    1.5405    2.0145   -3.2308 H   0  0  0  0  0  0  0  0  0  0  0  0
    1.7569   -0.4079   -3.1784 H   0  0  0  0  0  0  0  0  0  0  0  0
  2  1  2  0  0  0  0
  3  2  1  0  0  0  0
  4  3  2  0  0  0  0
  4 37  1  0  0  0  0
  5  4  1  0  0  0  0
  5 38  1  0  0  0  0
  6  5  2  0  0  0  0
  6 39  1  0  0  0  0
  7  6  1  0  0  0  0
  7 40  1  0  0  0  0
  8  7  2  0  0  0  0
  8  3  1  0  0  0  0
  9  8  1  0  0  0  0
 10  9  2  0  0  0  0
 11  9  1  0  0  0  0
 12 11  2  0  0  0  0
 12 41  1  0  0  0  0
 13 12  1  0  0  0  0
 14 13  1  0  0  0  0
 14 42  1  0  0  0  0
 14 43  1  0  0  0  0
 15 14  1  0  0  0  0
 16 15  1  0  0  0  0
 17 16  1  0  0  0  0
 17 44  1  0  0  0  0
 17 45  1  0  0  0  0
 18 17  1  0  0  0  0
 19 18  2  0  0  0  0
 19 46  1  0  0  0  0
 20 19  1  0  0  0  0
 20 47  1  0  0  0  0
 21 20  2  0  0  0  0
 22 21  1  0  0  0  0
 23 22  2  0  0  0  0
 24 22  1  0  0  0  0
 25 24  2  0  0  0  0
 25 48  1  0  0  0  0
 26 25  1  0  0  0  0
 26 49  1  0  0  0  0
 27 26  2  0  0  0  0
 27 50  1  0  0  0  0
 28 27  1  0  0  0  0
 28 51  1  0  0  0  0
 29 28  2  0  0  0  0
 29 24  1  0  0  0  0
 30 29  1  0  0  0  0
 31 30  2  0  0  0  0
 32 30  1  0  0  0  0
 32 21  1  0  0  0  0
 33 32  2  0  0  0  0
 33 18  1  0  0  0  0
 33 52  1  0  0  0  0
 34 13  2  0  0  0  0
 34 53  1  0  0  0  0
 35 34  1  0  0  0  0
 35 54  1  0  0  0  0
 36 35  2  0  0  0  0
 36  2  1  0  0  0  0
 36 11  1  0  0  0  0
M  END
>  <MOL Chiral Flag>
0

>  <energy>
123.06195558455725

$$$$
> 21_AKC_j.ejmech.2015.09.002
>21.sdf
 OpenBabel10052217593D

 43 46  0  0  0  0  0  0  0  0999 V2000
   -7.0001   -2.8061   -0.4570 F   0  0  0  0  0  0  0  0  0  0  0  0
   -5.9748   -1.9284   -0.3290 C   0  0  0  0  0  0  0  0  0  0  0  0
   -6.1141   -0.8045    0.4850 C   0  0  0  0  0  0  0  0  0  0  0  0
   -5.0582    0.1028    0.6238 C   0  0  0  0  0  0  0  0  0  0  0  0
   -3.8404   -0.1041   -0.0543 C   0  0  0  0  0  0  0  0  0  0  0  0
   -3.7196   -1.2480   -0.8747 C   0  0  0  0  0  0  0  0  0  0  0  0
   -4.7785   -2.1491   -1.0087 C   0  0  0  0  0  0  0  0  0  0  0  0
   -2.6641    0.8148    0.0667 C   0  0  0  0  0  0  0  0  0  0  0  0
   -2.4860    2.0040    0.8056 C   0  0  0  0  0  0  0  0  0  0  0  0
   -3.8035    3.0896    2.0791 I   0  0  0  0  0  0  0  0  0  0  0  0
   -1.2183    2.4083    0.5986 N   0  0  0  0  0  0  0  0  0  0  0  0
   -0.5319    3.4728    1.0898 C   0  0  0  0  0  0  0  0  0  0  0  0
    0.8134    3.6191    0.7155 C   0  0  0  0  0  0  0  0  0  0  0  0
    1.3884    2.7011   -0.1210 N   0  0  0  0  0  0  0  0  0  0  0  0
    0.6746    1.6454   -0.6164 C   0  0  0  0  0  0  0  0  0  0  0  0
    1.2775    0.6942   -1.4859 N   0  0  0  0  0  0  0  0  0  0  0  0
    2.7146    0.5015   -1.5012 C   0  0  0  0  0  0  0  0  0  0  0  0
    3.1419   -0.2878   -0.3231 N   0  3  0  0  0  0  0  0  0  0  0  0
    2.5429   -1.6425   -0.3359 C   0  0  0  0  0  0  0  0  0  0  0  0
    3.0565   -2.4581    0.8587 C   0  0  0  0  0  0  0  0  0  0  0  0
    4.4668   -2.5641    0.8184 O   0  0  0  0  0  0  0  0  0  0  0  0
    5.0398   -1.2730    0.9080 C   0  0  0  0  0  0  0  0  0  0  0  0
    4.6134   -0.4085   -0.2900 C   0  0  0  0  0  0  0  0  0  0  0  0
   -0.6593    1.5202   -0.2300 C   0  0  0  0  0  0  0  0  0  0  0  0
   -1.5041    0.5376   -0.5803 N   0  0  0  0  0  0  0  0  0  0  0  0
   -7.0428   -0.6348    1.0146 H   0  0  0  0  0  0  0  0  0  0  0  0
   -5.2124    0.9442    1.2623 H   0  0  0  0  0  0  0  0  0  0  0  0
   -2.8014   -1.4495   -1.4119 H   0  0  0  0  0  0  0  0  0  0  0  0
   -4.6673   -3.0217   -1.6397 H   0  0  0  0  0  0  0  0  0  0  0  0
   -0.9979    4.1843    1.7586 H   0  0  0  0  0  0  0  0  0  0  0  0
    1.3964    4.4496    1.0903 H   0  0  0  0  0  0  0  0  0  0  0  0
    0.6915   -0.0723   -1.8497 H   0  0  0  0  0  0  0  0  0  0  0  0
    3.2231    1.4919   -1.5174 H   0  0  0  0  0  0  0  0  0  0  0  0
    3.0007   -0.0194   -2.4428 H   0  0  0  0  0  0  0  0  0  0  0  0
    2.8335    0.2138    0.5448 H   0  0  0  0  0  0  0  0  0  0  0  0
    2.8130   -2.1758   -1.2763 H   0  0  0  0  0  0  0  0  0  0  0  0
    1.4348   -1.5898   -0.2658 H   0  0  0  0  0  0  0  0  0  0  0  0
    2.6205   -3.4783    0.8066 H   0  0  0  0  0  0  0  0  0  0  0  0
    2.7217   -2.0111    1.8224 H   0  0  0  0  0  0  0  0  0  0  0  0
    6.1451   -1.3751    0.9015 H   0  0  0  0  0  0  0  0  0  0  0  0
    4.7645   -0.7874    1.8722 H   0  0  0  0  0  0  0  0  0  0  0  0
    4.9849   -0.8875   -1.2249 H   0  0  0  0  0  0  0  0  0  0  0  0
    5.0839    0.5958   -0.1982 H   0  0  0  0  0  0  0  0  0  0  0  0
  2  1  1  0  0  0  0
  3  2  2  0  0  0  0
  3 26  1  0  0  0  0
  4  3  1  0  0  0  0
  4 27  1  0  0  0  0
  5  4  2  0  0  0  0
  6  5  1  0  0  0  0
  6 28  1  0  0  0  0
  7  6  2  0  0  0  0
  7  2  1  0  0  0  0
  7 29  1  0  0  0  0
  8  5  1  0  0  0  0
  9  8  2  0  0  0  0
 10  9  1  0  0  0  0
 11  9  1  0  0  0  0
 12 11  1  0  0  0  0
 12 30  1  0  0  0  0
 13 12  2  0  0  0  0
 13 31  1  0  0  0  0
 14 13  1  0  0  0  0
 15 14  2  0  0  0  0
 16 15  1  0  0  0  0
 16 32  1  0  0  0  0
 17 16  1  0  0  0  0
 17 33  1  0  0  0  0
 17 34  1  0  0  0  0
 18 17  1  0  0  0  0
 18 35  1  0  0  0  0
 19 18  1  0  0  0  0
 19 36  1  0  0  0  0
 19 37  1  0  0  0  0
 20 19  1  0  0  0  0
 20 38  1  0  0  0  0
 20 39  1  0  0  0  0
 21 20  1  0  0  0  0
 22 21  1  0  0  0  0
 22 40  1  0  0  0  0
 22 41  1  0  0  0  0
 23 22  1  0  0  0  0
 23 18  1  0  0  0  0
 23 42  1  0  0  0  0
 23 43  1  0  0  0  0
 24 15  1  0  0  0  0
 24 11  1  0  0  0  0
 25 24  2  0  0  0  0
 25  8  1  0  0  0  0
M  CHG  1  18   1
M  END
>  <MOL Chiral Flag>
0

>  <energy>
41.213399766983066

$$$$
> 22_AKC_j.ejmech.2020.112956
>22.sdf
 OpenBabel10052218003D

 42 45  0  0  0  0  0  0  0  0999 V2000
   -1.3373   -5.2739   -0.9778 C   0  0  0  0  0  0  0  0  0  0  0  0
   -0.5592   -4.0700   -0.7256 N   0  0  0  0  0  0  0  0  0  0  0  0
    0.8523   -4.1919   -0.3932 C   0  0  0  0  0  0  0  0  0  0  0  0
   -1.2133   -2.7901   -0.8148 C   0  0  0  0  0  0  0  0  0  0  0  0
   -2.5393   -2.7377   -1.1476 N   0  0  0  0  0  0  0  0  0  0  0  0
   -3.2182   -1.5581   -1.2474 C   0  0  0  0  0  0  0  0  0  0  0  0
   -2.5552   -0.3520   -1.0009 C   0  0  0  0  0  0  0  0  0  0  0  0
   -1.2379   -0.3978   -0.6674 N   0  0  0  0  0  0  0  0  0  0  0  0
   -0.5624   -1.5586   -0.5746 C   0  0  0  0  0  0  0  0  0  0  0  0
    0.7245   -1.3720   -0.2225 N   0  0  0  0  0  0  0  0  0  0  0  0
    0.8763   -0.0313   -0.1239 C   0  0  0  0  0  0  0  0  0  0  0  0
   -0.3567    0.5868   -0.3770 C   0  0  0  0  0  0  0  0  0  0  0  0
   -0.7205    2.0268   -0.2067 C   0  0  0  0  0  0  0  0  0  0  0  0
   -1.9122    2.4899    0.3230 C   0  0  0  0  0  0  0  0  0  0  0  0
   -1.8536    3.8313    0.3886 N   0  0  0  0  0  0  0  0  0  0  0  0
   -2.8704    4.7187    0.9337 C   0  0  0  0  0  0  0  0  0  0  0  0
   -0.6957    4.2525   -0.0861 N   0  0  0  0  0  0  0  0  0  0  0  0
    0.0241    3.1750   -0.4500 C   0  0  0  0  0  0  0  0  0  0  0  0
    2.1210    0.5748    0.3836 C   0  0  0  0  0  0  0  0  0  0  0  0
    2.6280    0.1469    1.6212 C   0  0  0  0  0  0  0  0  0  0  0  0
    3.7841    0.7282    2.1491 C   0  0  0  0  0  0  0  0  0  0  0  0
    4.4542    1.7249    1.4352 C   0  0  0  0  0  0  0  0  0  0  0  0
    5.5728    2.2920    1.9501 F   0  0  0  0  0  0  0  0  0  0  0  0
    3.9760    2.1293    0.1856 C   0  0  0  0  0  0  0  0  0  0  0  0
    2.8155    1.5529   -0.3413 C   0  0  0  0  0  0  0  0  0  0  0  0
   -0.7302   -6.1985   -0.8800 H   0  0  0  0  0  0  0  0  0  0  0  0
   -2.1740   -5.3389   -0.2500 H   0  0  0  0  0  0  0  0  0  0  0  0
   -1.7507   -5.2459   -2.0084 H   0  0  0  0  0  0  0  0  0  0  0  0
    1.0428   -3.7694    0.6154 H   0  0  0  0  0  0  0  0  0  0  0  0
    1.1869   -5.2504   -0.3729 H   0  0  0  0  0  0  0  0  0  0  0  0
    1.4669   -3.6683   -1.1554 H   0  0  0  0  0  0  0  0  0  0  0  0
   -4.2651   -1.5586   -1.5198 H   0  0  0  0  0  0  0  0  0  0  0  0
   -3.0876    0.5818   -1.0941 H   0  0  0  0  0  0  0  0  0  0  0  0
   -2.7441    1.8994    0.6818 H   0  0  0  0  0  0  0  0  0  0  0  0
   -3.2120    5.4239    0.1487 H   0  0  0  0  0  0  0  0  0  0  0  0
   -3.7389    4.1373    1.3090 H   0  0  0  0  0  0  0  0  0  0  0  0
   -2.4366    5.2950    1.7788 H   0  0  0  0  0  0  0  0  0  0  0  0
    1.0010    3.2633   -0.8717 H   0  0  0  0  0  0  0  0  0  0  0  0
    2.1096   -0.6167    2.1890 H   0  0  0  0  0  0  0  0  0  0  0  0
    4.1556    0.4092    3.1144 H   0  0  0  0  0  0  0  0  0  0  0  0
    4.5046    2.8884   -0.3763 H   0  0  0  0  0  0  0  0  0  0  0  0
    2.4753    1.8515   -1.3216 H   0  0  0  0  0  0  0  0  0  0  0  0
  1 26  1  0  0  0  0
  1 27  1  0  0  0  0
  1 28  1  0  0  0  0
  2  1  1  0  0  0  0
  3  2  1  0  0  0  0
  3 29  1  0  0  0  0
  3 30  1  0  0  0  0
  3 31  1  0  0  0  0
  4  2  1  0  0  0  0
  5  4  2  0  0  0  0
  6  5  1  0  0  0  0
  6 32  1  0  0  0  0
  7  6  2  0  0  0  0
  7 33  1  0  0  0  0
  8  7  1  0  0  0  0
  9  8  1  0  0  0  0
  9  4  1  0  0  0  0
 10  9  2  0  0  0  0
 11 10  1  0  0  0  0
 12 11  2  0  0  0  0
 12  8  1  0  0  0  0
 13 12  1  0  0  0  0
 14 13  2  0  0  0  0
 14 34  1  0  0  0  0
 15 14  1  0  0  0  0
 16 15  1  0  0  0  0
 16 35  1  0  0  0  0
 16 36  1  0  0  0  0
 16 37  1  0  0  0  0
 17 15  1  0  0  0  0
 18 17  2  0  0  0  0
 18 13  1  0  0  0  0
 18 38  1  0  0  0  0
 19 11  1  0  0  0  0
 20 19  2  0  0  0  0
 20 39  1  0  0  0  0
 21 20  1  0  0  0  0
 21 40  1  0  0  0  0
 22 21  2  0  0  0  0
 23 22  1  0  0  0  0
 24 22  1  0  0  0  0
 24 41  1  0  0  0  0
 25 24  2  0  0  0  0
 25 19  1  0  0  0  0
 25 42  1  0  0  0  0
M  END
>  <MOL Chiral Flag>
0

>  <energy>
43.965487963152079

$$$$
> 23_AKC_j.ejmech.2018.06.001
>23.sdf
 OpenBabel10052218003D

 20 21  0  0  0  0  0  0  0  0999 V2000
   -4.6032   -0.6068    0.1510 Br  0  0  0  0  0  0  0  0  0  0  0  0
   -2.6911   -0.5129    0.0737 C   0  0  0  0  0  0  0  0  0  0  0  0
   -2.0514    0.7145    0.2028 C   0  0  0  0  0  0  0  0  0  0  0  0
   -0.6532    0.7912    0.1454 C   0  0  0  0  0  0  0  0  0  0  0  0
    0.1139   -0.3947   -0.0496 C   0  0  0  0  0  0  0  0  0  0  0  0
   -0.5592   -1.5891   -0.1789 N   0  0  0  0  0  0  0  0  0  0  0  0
   -1.9297   -1.6641   -0.1166 C   0  0  0  0  0  0  0  0  0  0  0  0
   -2.4813   -2.7457   -0.2328 O   0  0  0  0  0  0  0  0  0  0  0  0
    1.5536   -0.2874   -0.1218 C   0  0  0  0  0  0  0  0  0  0  0  0
    2.1333    0.9963    0.0099 C   0  0  0  0  0  0  0  0  0  0  0  0
    1.3571    2.1322    0.2100 C   0  0  0  0  0  0  0  0  0  0  0  0
   -0.0249    2.0354    0.2747 C   0  0  0  0  0  0  0  0  0  0  0  0
    2.4462   -1.4047   -0.3237 N   0  0  0  0  0  0  0  0  0  0  0  0
    3.6011   -1.2066   -0.5524 O   0  0  0  0  0  0  0  0  0  0  0  0
    2.0762   -2.5307   -0.2073 O   0  0  0  0  0  0  0  0  0  0  0  0
   -2.6465    1.6093    0.3451 H   0  0  0  0  0  0  0  0  0  0  0  0
   -0.0766   -2.4893   -0.3370 H   0  0  0  0  0  0  0  0  0  0  0  0
    3.2084    1.1182   -0.0318 H   0  0  0  0  0  0  0  0  0  0  0  0
    1.8360    3.0982    0.3146 H   0  0  0  0  0  0  0  0  0  0  0  0
   -0.6086    2.9368    0.4248 H   0  0  0  0  0  0  0  0  0  0  0  0
  2  1  1  0  0  0  0
  3  2  2  0  0  0  0
  3 16  1  0  0  0  0
  4  3  1  0  0  0  0
  5  4  2  0  0  0  0
  6  5  1  0  0  0  0
  6 17  1  0  0  0  0
  7  6  1  0  0  0  0
  7  2  1  0  0  0  0
  8  7  2  0  0  0  0
  9  5  1  0  0  0  0
 10  9  2  0  0  0  0
 10 18  1  0  0  0  0
 11 10  1  0  0  0  0
 11 19  1  0  0  0  0
 12 11  2  0  0  0  0
 12  4  1  0  0  0  0
 12 20  1  0  0  0  0
 13  9  1  0  0  0  0
 14 13  2  0  0  0  0
 15 13  2  0  0  0  0
M  END
>  <MOL Chiral Flag>
0

>  <energy>
54.808725656143174

$$$$
> 24_AKC_j.ejmech.2012.04.029
>24.sdf
 OpenBabel10052218003D

 20 21  0  0  0  0  0  0  0  0999 V2000
    2.8524    1.2202   -2.0187 O   0  0  0  0  0  0  0  0  0  0  0  0
    2.0675    0.6444   -1.0889 C   0  0  0  0  0  0  0  0  0  0  0  0
    0.7128    0.7109   -1.2034 N   0  0  0  0  0  0  0  0  0  0  0  0
   -0.1225    0.1544   -0.2810 C   0  0  0  0  0  0  0  0  0  0  0  0
    0.4325   -0.5180    0.8351 C   0  0  0  0  0  0  0  0  0  0  0  0
   -0.4059   -1.0858    1.8013 C   0  0  0  0  0  0  0  0  0  0  0  0
   -1.7895   -0.9824    1.6727 C   0  0  0  0  0  0  0  0  0  0  0  0
   -2.3503   -0.3188    0.5797 C   0  0  0  0  0  0  0  0  0  0  0  0
   -1.5337    0.2546   -0.4181 C   0  0  0  0  0  0  0  0  0  0  0  0
   -2.1416    0.9217   -1.5355 N   0  0  0  0  0  0  0  0  0  0  0  0
   -1.4801    1.3166   -2.4470 O   0  0  0  0  0  0  0  0  0  0  0  0
   -3.3269    1.0676   -1.5740 O   0  0  0  0  0  0  0  0  0  0  0  0
    1.8253   -0.6011    0.9612 C   0  0  0  0  0  0  0  0  0  0  0  0
    2.6453   -0.0163   -0.0032 C   0  0  0  0  0  0  0  0  0  0  0  0
    2.4663    1.6641   -2.7480 H   0  0  0  0  0  0  0  0  0  0  0  0
    0.0011   -1.5815    2.6099 H   0  0  0  0  0  0  0  0  0  0  0  0
   -2.4036   -1.3990    2.3898 H   0  0  0  0  0  0  0  0  0  0  0  0
   -3.3767   -0.2467    0.5004 H   0  0  0  0  0  0  0  0  0  0  0  0
    2.2434   -1.0939    1.7658 H   0  0  0  0  0  0  0  0  0  0  0  0
    3.6721   -0.0715    0.0849 H   0  0  0  0  0  0  0  0  0  0  0  0
  1 15  1  0  0  0  0
  2  1  1  0  0  0  0
  3  2  2  0  0  0  0
  4  3  1  0  0  0  0
  5  4  2  0  0  0  0
  6  5  1  0  0  0  0
  6 16  1  0  0  0  0
  7  6  2  0  0  0  0
  7 17  1  0  0  0  0
  8  7  1  0  0  0  0
  8 18  1  0  0  0  0
  9  8  2  0  0  0  0
  9  4  1  0  0  0  0
 10  9  1  0  0  0  0
 11 10  2  0  0  0  0
 12 10  2  0  0  0  0
 13  5  1  0  0  0  0
 13 19  1  0  0  0  0
 14 13  2  0  0  0  0
 14  2  1  0  0  0  0
 14 20  1  0  0  0  0
M  END
>  <MOL Chiral Flag>
0

>  <energy>
16.828526791874634

$$$$
> 25_AKC_j.ejmech.2012.03.003
>25.sdf
 OpenBabel10052218003D

 37 39  0  0  0  0  0  0  0  0999 V2000
   -6.0271    0.3061    0.4542 C   0  0  0  0  0  0  0  0  0  0  0  0
   -4.6224   -0.2007    0.3233 C   0  0  0  0  0  0  0  0  0  0  0  0
   -3.9249   -0.6947    1.4390 C   0  0  0  0  0  0  0  0  0  0  0  0
   -2.6021   -1.1329    1.3032 C   0  0  0  0  0  0  0  0  0  0  0  0
   -1.9749   -1.0897    0.0510 C   0  0  0  0  0  0  0  0  0  0  0  0
   -2.6818   -0.6287   -1.0634 C   0  0  0  0  0  0  0  0  0  0  0  0
   -3.9938   -0.1756   -0.9283 C   0  0  0  0  0  0  0  0  0  0  0  0
   -0.2617   -1.5847   -0.1376 S   0  0  0  0  0  0  0  0  0  0  0  0
   -0.1161   -3.0413   -0.6015 O   0  0  0  0  0  0  0  0  0  0  0  0
    0.4908   -1.6003    1.2038 O   0  0  0  0  0  0  0  0  0  0  0  0
    0.7004   -0.6613   -1.2054 O   0  0  0  0  0  0  0  0  0  0  0  0
    1.5732    0.2691   -0.7500 C   0  0  0  0  0  0  0  0  0  0  0  0
    1.2027    1.6402   -0.6982 C   0  0  0  0  0  0  0  0  0  0  0  0
    2.1348    2.5685   -0.1720 C   0  0  0  0  0  0  0  0  0  0  0  0
    1.8575    3.7538   -0.1018 O   0  0  0  0  0  0  0  0  0  0  0  0
    3.3703    2.1499    0.2503 N   0  0  0  0  0  0  0  0  0  0  0  0
    3.7481    0.8452    0.1837 C   0  0  0  0  0  0  0  0  0  0  0  0
    2.8548   -0.1278   -0.3163 C   0  0  0  0  0  0  0  0  0  0  0  0
    3.2678   -1.4744   -0.3770 C   0  0  0  0  0  0  0  0  0  0  0  0
    4.5462   -1.8398    0.0531 C   0  0  0  0  0  0  0  0  0  0  0  0
    5.4242   -0.8737    0.5458 C   0  0  0  0  0  0  0  0  0  0  0  0
    5.0291    0.4630    0.6123 C   0  0  0  0  0  0  0  0  0  0  0  0
   -0.0808    2.0836   -1.1740 N   0  0  0  0  0  0  0  0  0  0  0  0
   -0.4437    3.2059   -0.9952 O   0  0  0  0  0  0  0  0  0  0  0  0
   -0.7614    1.3584   -1.8309 O   0  0  0  0  0  0  0  0  0  0  0  0
   -6.4025    0.2103    1.4946 H   0  0  0  0  0  0  0  0  0  0  0  0
   -6.6963   -0.2676   -0.2204 H   0  0  0  0  0  0  0  0  0  0  0  0
   -6.0581    1.3792    0.1676 H   0  0  0  0  0  0  0  0  0  0  0  0
   -4.3988   -0.7264    2.4122 H   0  0  0  0  0  0  0  0  0  0  0  0
   -2.0668   -1.4958    2.1714 H   0  0  0  0  0  0  0  0  0  0  0  0
   -2.2084   -0.6052   -2.0353 H   0  0  0  0  0  0  0  0  0  0  0  0
   -4.5190    0.2005   -1.7974 H   0  0  0  0  0  0  0  0  0  0  0  0
    4.0392    2.8624    0.6245 H   0  0  0  0  0  0  0  0  0  0  0  0
    2.6090   -2.2430   -0.7595 H   0  0  0  0  0  0  0  0  0  0  0  0
    4.8577   -2.8751    0.0023 H   0  0  0  0  0  0  0  0  0  0  0  0
    6.4140   -1.1606    0.8762 H   0  0  0  0  0  0  0  0  0  0  0  0
    5.7206    1.2033    0.9953 H   0  0  0  0  0  0  0  0  0  0  0  0
  1 26  1  0  0  0  0
  1 27  1  0  0  0  0
  1 28  1  0  0  0  0
  2  1  1  0  0  0  0
  3  2  2  0  0  0  0
  3 29  1  0  0  0  0
  4  3  1  0  0  0  0
  4 30  1  0  0  0  0
  5  4  2  0  0  0  0
  6  5  1  0  0  0  0
  6 31  1  0  0  0  0
  7  6  2  0  0  0  0
  7  2  1  0  0  0  0
  7 32  1  0  0  0  0
  8  5  1  0  0  0  0
  9  8  2  0  0  0  0
 10  8  2  0  0  0  0
 11  8  1  0  0  0  0
 12 11  1  0  0  0  0
 13 12  2  0  0  0  0
 14 13  1  0  0  0  0
 15 14  2  0  0  0  0
 16 14  1  0  0  0  0
 16 33  1  0  0  0  0
 17 16  1  0  0  0  0
 18 17  2  0  0  0  0
 18 12  1  0  0  0  0
 19 18  1  0  0  0  0
 19 34  1  0  0  0  0
 20 19  2  0  0  0  0
 20 35  1  0  0  0  0
 21 20  1  0  0  0  0
 21 36  1  0  0  0  0
 22 21  2  0  0  0  0
 22 17  1  0  0  0  0
 22 37  1  0  0  0  0
 23 13  1  0  0  0  0
 24 23  2  0  0  0  0
 25 23  2  0  0  0  0
M  END
>  <MOL Chiral Flag>
0

>  <energy>
59.037611408160686

$$$$
> 26_AKC_j.ejmech.2012.03.003
>26.sdf
 OpenBabel10052218013D

 37 39  0  0  0  0  0  0  0  0999 V2000
   -4.6942    2.9487   -0.6952 C   0  0  0  0  0  0  0  0  0  0  0  0
   -3.8026    1.7482   -0.6037 C   0  0  0  0  0  0  0  0  0  0  0  0
   -3.4599    1.0494   -1.7702 C   0  0  0  0  0  0  0  0  0  0  0  0
   -2.6066   -0.0524   -1.7019 C   0  0  0  0  0  0  0  0  0  0  0  0
   -2.0908   -0.4647   -0.4703 C   0  0  0  0  0  0  0  0  0  0  0  0
   -2.4386    0.2188    0.7001 C   0  0  0  0  0  0  0  0  0  0  0  0
   -3.2940    1.3225    0.6352 C   0  0  0  0  0  0  0  0  0  0  0  0
   -0.9409   -1.8272   -0.4198 S   0  0  0  0  0  0  0  0  0  0  0  0
   -1.4722   -3.0699   -1.1498 O   0  0  0  0  0  0  0  0  0  0  0  0
   -0.6829   -2.3688    0.9964 O   0  0  0  0  0  0  0  0  0  0  0  0
    0.5812   -1.5201   -1.1095 O   0  0  0  0  0  0  0  0  0  0  0  0
    1.6942   -1.4278   -0.3530 C   0  0  0  0  0  0  0  0  0  0  0  0
    2.4731   -2.5746   -0.1347 C   0  0  0  0  0  0  0  0  0  0  0  0
    2.0916   -3.8192   -0.7093 N   0  0  0  0  0  0  0  0  0  0  0  0
    3.6314   -2.4775    0.6549 C   0  0  0  0  0  0  0  0  0  0  0  0
    4.3193   -3.4629    0.8585 O   0  0  0  0  0  0  0  0  0  0  0  0
    3.9971   -1.2707    1.2003 N   0  0  0  0  0  0  0  0  0  0  0  0
    3.2606   -0.1422    0.9954 C   0  0  0  0  0  0  0  0  0  0  0  0
    2.0848   -0.1953    0.2097 C   0  0  0  0  0  0  0  0  0  0  0  0
    1.3376    0.9817    0.0053 C   0  0  0  0  0  0  0  0  0  0  0  0
    1.7564    2.1889    0.5743 C   0  0  0  0  0  0  0  0  0  0  0  0
    2.9174    2.2363    1.3488 C   0  0  0  0  0  0  0  0  0  0  0  0
    3.6673    1.0777    1.5603 C   0  0  0  0  0  0  0  0  0  0  0  0
   -4.8712    3.4034    0.3023 H   0  0  0  0  0  0  0  0  0  0  0  0
   -5.6713    2.6588   -1.1343 H   0  0  0  0  0  0  0  0  0  0  0  0
   -4.2142    3.7104   -1.3461 H   0  0  0  0  0  0  0  0  0  0  0  0
   -3.8441    1.3667   -2.7315 H   0  0  0  0  0  0  0  0  0  0  0  0
   -2.3338   -0.5777   -2.6087 H   0  0  0  0  0  0  0  0  0  0  0  0
   -2.0373   -0.0936    1.6558 H   0  0  0  0  0  0  0  0  0  0  0  0
   -3.5485    1.8511    1.5452 H   0  0  0  0  0  0  0  0  0  0  0  0
    1.2493   -3.8941   -1.2978 H   0  0  0  0  0  0  0  0  0  0  0  0
    2.6555   -4.6670   -0.5572 H   0  0  0  0  0  0  0  0  0  0  0  0
    4.8650   -1.2238    1.7829 H   0  0  0  0  0  0  0  0  0  0  0  0
    0.4363    0.9721   -0.5934 H   0  0  0  0  0  0  0  0  0  0  0  0
    1.1805    3.0915    0.4135 H   0  0  0  0  0  0  0  0  0  0  0  0
    3.2384    3.1737    1.7856 H   0  0  0  0  0  0  0  0  0  0  0  0
    4.5665    1.1292    2.1620 H   0  0  0  0  0  0  0  0  0  0  0  0
  1 24  1  0  0  0  0
  1 25  1  0  0  0  0
  1 26  1  0  0  0  0
  2  1  1  0  0  0  0
  3  2  2  0  0  0  0
  3 27  1  0  0  0  0
  4  3  1  0  0  0  0
  4 28  1  0  0  0  0
  5  4  2  0  0  0  0
  6  5  1  0  0  0  0
  6 29  1  0  0  0  0
  7  6  2  0  0  0  0
  7  2  1  0  0  0  0
  7 30  1  0  0  0  0
  8  5  1  0  0  0  0
  9  8  2  0  0  0  0
 10  8  2  0  0  0  0
 11  8  1  0  0  0  0
 12 11  1  0  0  0  0
 13 12  2  0  0  0  0
 14 13  1  0  0  0  0
 14 31  1  0  0  0  0
 14 32  1  0  0  0  0
 15 13  1  0  0  0  0
 16 15  2  0  0  0  0
 17 15  1  0  0  0  0
 17 33  1  0  0  0  0
 18 17  1  0  0  0  0
 19 18  2  0  0  0  0
 19 12  1  0  0  0  0
 20 19  1  0  0  0  0
 20 34  1  0  0  0  0
 21 20  2  0  0  0  0
 21 35  1  0  0  0  0
 22 21  1  0  0  0  0
 22 36  1  0  0  0  0
 23 22  2  0  0  0  0
 23 18  1  0  0  0  0
 23 37  1  0  0  0  0
M  END
>  <MOL Chiral Flag>
0

>  <energy>
91.660993214051501

$$$$
> 27_AKC_j.ejmech.2012.03.003
>27.sdf
 OpenBabel10052218013D

 32 33  0  0  0  0  0  0  0  0999 V2000
   -4.8124   -1.8176   -1.1108 C   0  0  0  0  0  0  0  0  0  0  0  0
   -3.5678   -1.3799   -0.3535 C   0  0  0  0  0  0  0  0  0  0  0  0
   -3.7008    0.0473    0.2125 C   0  0  0  0  0  0  0  0  0  0  0  0
   -2.3784    0.4572    0.8055 C   0  0  0  0  0  0  0  0  0  0  0  0
   -2.2815    0.5533    2.0165 O   0  0  0  0  0  0  0  0  0  0  0  0
   -1.3035    0.6065   -0.0301 N   0  0  0  0  0  0  0  0  0  0  0  0
    0.0872    0.7708    0.3247 C   0  0  0  0  0  0  0  0  0  0  0  0
    1.0465    0.3400   -0.6219 C   0  0  0  0  0  0  0  0  0  0  0  0
    0.6011   -0.1271   -1.8155 O   0  0  0  0  0  0  0  0  0  0  0  0
    2.4263    0.3665   -0.3038 C   0  0  0  0  0  0  0  0  0  0  0  0
    2.8243    0.8676    0.9570 C   0  0  0  0  0  0  0  0  0  0  0  0
    1.8951    1.3342    1.8330 N   0  0  0  0  0  0  0  0  0  0  0  0
    0.5503    1.3016    1.5595 C   0  0  0  0  0  0  0  0  0  0  0  0
   -0.2196    1.7542    2.3830 O   0  0  0  0  0  0  0  0  0  0  0  0
    4.1844    0.8779    1.3090 C   0  0  0  0  0  0  0  0  0  0  0  0
    5.1454    0.3860    0.4266 C   0  0  0  0  0  0  0  0  0  0  0  0
    4.7630   -0.1075   -0.8182 C   0  0  0  0  0  0  0  0  0  0  0  0
    3.4184   -0.1157   -1.1897 C   0  0  0  0  0  0  0  0  0  0  0  0
   -4.6715   -2.8596   -1.4711 H   0  0  0  0  0  0  0  0  0  0  0  0
   -5.7067   -1.7791   -0.4560 H   0  0  0  0  0  0  0  0  0  0  0  0
   -4.9643   -1.1587   -1.9921 H   0  0  0  0  0  0  0  0  0  0  0  0
   -2.7125   -1.4534   -1.0582 H   0  0  0  0  0  0  0  0  0  0  0  0
   -3.3798   -2.0843    0.4881 H   0  0  0  0  0  0  0  0  0  0  0  0
   -4.4985    0.0434    0.9881 H   0  0  0  0  0  0  0  0  0  0  0  0
   -3.9785    0.7755   -0.5793 H   0  0  0  0  0  0  0  0  0  0  0  0
   -1.5032    0.4569   -1.0297 H   0  0  0  0  0  0  0  0  0  0  0  0
    1.1531   -0.4056   -2.5531 H   0  0  0  0  0  0  0  0  0  0  0  0
    2.2073    1.7202    2.7550 H   0  0  0  0  0  0  0  0  0  0  0  0
    4.4964    1.2556    2.2747 H   0  0  0  0  0  0  0  0  0  0  0  0
    6.1897    0.3836    0.7094 H   0  0  0  0  0  0  0  0  0  0  0  0
    5.5108   -0.4926   -1.4994 H   0  0  0  0  0  0  0  0  0  0  0  0
    3.1796   -0.5171   -2.1603 H   0  0  0  0  0  0  0  0  0  0  0  0
  1 19  1  0  0  0  0
  1 20  1  0  0  0  0
  1 21  1  0  0  0  0
  2  1  1  0  0  0  0
  2 22  1  0  0  0  0
  2 23  1  0  0  0  0
  3  2  1  0  0  0  0
  3 24  1  0  0  0  0
  3 25  1  0  0  0  0
  4  3  1  0  0  0  0
  5  4  2  0  0  0  0
  6  4  1  0  0  0  0
  6 26  1  0  0  0  0
  7  6  1  0  0  0  0
  8  7  2  0  0  0  0
  9  8  1  0  0  0  0
  9 27  1  0  0  0  0
 10  8  1  0  0  0  0
 11 10  2  0  0  0  0
 12 11  1  0  0  0  0
 12 28  1  0  0  0  0
 13 12  1  0  0  0  0
 13  7  1  0  0  0  0
 14 13  2  0  0  0  0
 15 11  1  0  0  0  0
 15 29  1  0  0  0  0
 16 15  2  0  0  0  0
 16 30  1  0  0  0  0
 17 16  1  0  0  0  0
 17 31  1  0  0  0  0
 18 17  2  0  0  0  0
 18 10  1  0  0  0  0
 18 32  1  0  0  0  0
M  END
>  <MOL Chiral Flag>
0

>  <energy>
31.086088361786192

$$$$
> 28_AKC_j.vetpar.2016.01.002
>28.sdf
 OpenBabel10052218013D

 18 19  0  0  0  0  0  0  0  0999 V2000
    0.8934    0.0534   -0.0914 O   0  0  0  0  0  0  0  0  0  0  0  0
    2.2427    0.0212   -0.0858 C   0  0  0  0  0  0  0  0  0  0  0  0
    2.9243   -1.2067   -0.0762 C   0  0  0  0  0  0  0  0  0  0  0  0
    4.3223   -1.2379   -0.0704 C   0  0  0  0  0  0  0  0  0  0  0  0
    5.0538   -0.0470   -0.0749 C   0  0  0  0  0  0  0  0  0  0  0  0
    4.3854    1.1855   -0.0904 C   0  0  0  0  0  0  0  0  0  0  0  0
    2.9722    1.2199   -0.0947 C   0  0  0  0  0  0  0  0  0  0  0  0
    2.3244    2.4184   -0.1146 N   0  0  0  0  0  0  0  0  0  0  0  0
    3.0044    3.5964   -0.1354 C   0  0  0  0  0  0  0  0  0  0  0  0
    4.4016    3.6027   -0.1334 C   0  0  0  0  0  0  0  0  0  0  0  0
    5.0958    2.3920   -0.1077 C   0  0  0  0  0  0  0  0  0  0  0  0
    0.3645   -0.7572   -0.0896 H   0  0  0  0  0  0  0  0  0  0  0  0
    2.3701   -2.1369   -0.0750 H   0  0  0  0  0  0  0  0  0  0  0  0
    4.8402   -2.1883   -0.0646 H   0  0  0  0  0  0  0  0  0  0  0  0
    6.1366   -0.0864   -0.0713 H   0  0  0  0  0  0  0  0  0  0  0  0
    2.4598    4.5310   -0.1565 H   0  0  0  0  0  0  0  0  0  0  0  0
    4.9422    4.5400   -0.1533 H   0  0  0  0  0  0  0  0  0  0  0  0
    6.1793    2.3962   -0.1067 H   0  0  0  0  0  0  0  0  0  0  0  0
  1 12  1  0  0  0  0
  2  1  1  0  0  0  0
  3  2  2  0  0  0  0
  3 13  1  0  0  0  0
  4  3  1  0  0  0  0
  4 14  1  0  0  0  0
  5  4  2  0  0  0  0
  5 15  1  0  0  0  0
  6  5  1  0  0  0  0
  7  6  2  0  0  0  0
  7  2  1  0  0  0  0
  8  7  1  0  0  0  0
  9  8  2  0  0  0  0
  9 16  1  0  0  0  0
 10  9  1  0  0  0  0
 10 17  1  0  0  0  0
 11 10  2  0  0  0  0
 11  6  1  0  0  0  0
 11 18  1  0  0  0  0
M  END
>  <MOL Chiral Flag>
0

>  <energy>
42.033867392539079

$$$$
> 29_AKC_j.ejmech.2013.08.028
>29.sdf
 OpenBabel10052218013D

 38 40  0  0  0  0  0  0  0  0999 V2000
   -5.9112   -1.3022   -1.3908 O   0  0  0  0  0  0  0  0  0  0  0  0
   -5.4100   -0.7602   -0.1999 C   0  0  0  0  0  0  0  0  0  0  0  0
   -3.9577   -1.1191   -0.0468 C   0  0  0  0  0  0  0  0  0  0  0  0
   -3.0066   -0.1727    0.0185 C   0  0  0  0  0  0  0  0  0  0  0  0
   -1.5699   -0.5069    0.1417 C   0  0  0  0  0  0  0  0  0  0  0  0
   -1.1620   -1.8047    0.2100 N   0  0  0  0  0  0  0  0  0  0  0  0
    0.1519   -2.1438    0.2870 C   0  0  0  0  0  0  0  0  0  0  0  0
    1.1478   -1.1386    0.2765 C   0  0  0  0  0  0  0  0  0  0  0  0
    2.5025   -1.5126    0.3660 C   0  0  0  0  0  0  0  0  0  0  0  0
    2.8560   -2.8633    0.4648 C   0  0  0  0  0  0  0  0  0  0  0  0
    4.5488   -3.3121    0.5896 Cl  0  0  0  0  0  0  0  0  0  0  0  0
    1.8635   -3.8508    0.4737 C   0  0  0  0  0  0  0  0  0  0  0  0
    2.2034   -5.1602    0.5767 F   0  0  0  0  0  0  0  0  0  0  0  0
    0.5166   -3.4914    0.3828 C   0  0  0  0  0  0  0  0  0  0  0  0
    0.7448    0.2137    0.2111 C   0  0  0  0  0  0  0  0  0  0  0  0
   -0.6199    0.5200    0.1593 C   0  0  0  0  0  0  0  0  0  0  0  0
    1.6956    1.2738    0.1832 N   0  0  0  0  0  0  0  0  0  0  0  0
    1.7200    2.2883    1.2153 C   0  0  0  0  0  0  0  0  0  0  0  0
    1.4565    3.6456    0.5577 C   0  0  0  0  0  0  0  0  0  0  0  0
    2.3726    3.8705   -0.5048 O   0  0  0  0  0  0  0  0  0  0  0  0
    2.1889    2.8910   -1.5181 C   0  0  0  0  0  0  0  0  0  0  0  0
    2.5300    1.4926   -0.9801 C   0  0  0  0  0  0  0  0  0  0  0  0
   -6.0829   -2.2648   -1.2177 H   0  0  0  0  0  0  0  0  0  0  0  0
   -5.5582    0.3408   -0.2305 H   0  0  0  0  0  0  0  0  0  0  0  0
   -5.9880   -1.1380    0.6727 H   0  0  0  0  0  0  0  0  0  0  0  0
   -3.6909   -2.1708    0.0021 H   0  0  0  0  0  0  0  0  0  0  0  0
   -3.2923    0.8748   -0.0390 H   0  0  0  0  0  0  0  0  0  0  0  0
    3.2856   -0.7670    0.3745 H   0  0  0  0  0  0  0  0  0  0  0  0
   -0.2459   -4.2606    0.3946 H   0  0  0  0  0  0  0  0  0  0  0  0
   -0.9368    1.5541    0.0969 H   0  0  0  0  0  0  0  0  0  0  0  0
    2.7346    2.2989    1.6714 H   0  0  0  0  0  0  0  0  0  0  0  0
    0.9794    2.0829    2.0186 H   0  0  0  0  0  0  0  0  0  0  0  0
    1.5829    4.4413    1.3221 H   0  0  0  0  0  0  0  0  0  0  0  0
    0.4079    3.7110    0.1906 H   0  0  0  0  0  0  0  0  0  0  0  0
    2.8501    3.1290   -2.3769 H   0  0  0  0  0  0  0  0  0  0  0  0
    1.1422    2.9220   -1.9020 H   0  0  0  0  0  0  0  0  0  0  0  0
    3.6001    1.4631   -0.6840 H   0  0  0  0  0  0  0  0  0  0  0  0
    2.3502    0.7266   -1.7671 H   0  0  0  0  0  0  0  0  0  0  0  0
  1 23  1  0  0  0  0
  2  1  1  0  0  0  0
  2 24  1  0  0  0  0
  2 25  1  0  0  0  0
  3  2  1  0  0  0  0
  3 26  1  0  0  0  0
  4  3  2  0  0  0  0
  4 27  1  0  0  0  0
  5  4  1  0  0  0  0
  6  5  2  0  0  0  0
  7  6  1  0  0  0  0
  8  7  2  0  0  0  0
  9  8  1  0  0  0  0
  9 28  1  0  0  0  0
 10  9  2  0  0  0  0
 11 10  1  0  0  0  0
 12 10  1  0  0  0  0
 13 12  1  0  0  0  0
 14 12  2  0  0  0  0
 14  7  1  0  0  0  0
 14 29  1  0  0  0  0
 15  8  1  0  0  0  0
 16 15  2  0  0  0  0
 16  5  1  0  0  0  0
 16 30  1  0  0  0  0
 17 15  1  0  0  0  0
 18 17  1  0  0  0  0
 18 31  1  0  0  0  0
 18 32  1  0  0  0  0
 19 18  1  0  0  0  0
 19 33  1  0  0  0  0
 19 34  1  0  0  0  0
 20 19  1  0  0  0  0
 21 20  1  0  0  0  0
 21 35  1  0  0  0  0
 21 36  1  0  0  0  0
 22 21  1  0  0  0  0
 22 17  1  0  0  0  0
 22 37  1  0  0  0  0
 22 38  1  0  0  0  0
M  END
>  <MOL Chiral Flag>
0

>  <energy>
91.21972648756973

$$$$
> 30_AKC_AAC.01299-10
>30.sdf
 OpenBabel10052218013D

 48 51  0  0  0  0  0  0  0  0999 V2000
    6.3749    1.8036   -2.3839 O   0  0  0  0  0  0  0  0  0  0  0  0
    5.5582    0.8071   -1.9815 C   0  0  0  0  0  0  0  0  0  0  0  0
    5.0434   -0.0846   -2.9315 C   0  0  0  0  0  0  0  0  0  0  0  0
    4.1602   -1.1008   -2.5478 C   0  0  0  0  0  0  0  0  0  0  0  0
    3.8043   -1.2484   -1.1956 C   0  0  0  0  0  0  0  0  0  0  0  0
    2.7853   -2.2097   -0.7163 C   0  0  0  0  0  0  0  0  0  0  0  0
    1.8022   -2.6935   -1.4972 C   0  0  0  0  0  0  0  0  0  0  0  0
    0.5877   -3.0906   -0.7853 C   0  0  0  0  0  0  0  0  0  0  0  0
   -0.4282   -2.2060   -0.8632 N   0  0  0  0  0  0  0  0  0  0  0  0
   -1.4405   -2.1845    0.0282 C   0  0  0  0  0  0  0  0  0  0  0  0
   -1.5160   -3.1631    1.0333 C   0  0  0  0  0  0  0  0  0  0  0  0
   -0.5258   -4.1602    1.0820 C   0  0  0  0  0  0  0  0  0  0  0  0
    0.5623   -4.0951    0.1975 C   0  0  0  0  0  0  0  0  0  0  0  0
   -2.5336   -3.0832    1.9936 C   0  0  0  0  0  0  0  0  0  0  0  0
   -3.3958   -1.9750    2.0072 C   0  0  0  0  0  0  0  0  0  0  0  0
   -3.2629   -0.9496    1.0471 C   0  0  0  0  0  0  0  0  0  0  0  0
   -4.0493    0.3143    1.2033 C   0  0  0  0  0  0  0  0  0  0  0  0
   -5.1819    0.2555    1.6592 O   0  0  0  0  0  0  0  0  0  0  0  0
   -3.4221    1.6697    0.9725 C   0  0  0  0  0  0  0  0  0  0  0  0
   -4.2299    2.8169    0.8541 C   0  0  0  0  0  0  0  0  0  0  0  0
   -3.6543    4.0895    0.6309 C   0  0  0  0  0  0  0  0  0  0  0  0
   -2.2547    4.2026    0.5389 C   0  0  0  0  0  0  0  0  0  0  0  0
   -1.4470    3.0798    0.6819 C   0  0  0  0  0  0  0  0  0  0  0  0
   -2.0167    1.8288    0.9051 C   0  0  0  0  0  0  0  0  0  0  0  0
   -4.4797    5.2489    0.4972 N   0  0  0  0  0  0  0  0  0  0  0  0
   -5.6667    5.1585    0.5820 O   0  0  0  0  0  0  0  0  0  0  0  0
   -3.9877    6.3204    0.3016 O   0  0  0  0  0  0  0  0  0  0  0  0
   -2.3207   -1.1098    0.0023 C   0  0  0  0  0  0  0  0  0  0  0  0
   -2.2159   -0.2269   -1.0201 O   0  0  0  0  0  0  0  0  0  0  0  0
    4.3433   -0.3674   -0.2442 C   0  0  0  0  0  0  0  0  0  0  0  0
    5.2037    0.6658   -0.6293 C   0  0  0  0  0  0  0  0  0  0  0  0
    5.6681    1.5377    0.2911 O   0  0  0  0  0  0  0  0  0  0  0  0
    6.7290    2.4601   -1.7671 H   0  0  0  0  0  0  0  0  0  0  0  0
    5.3100    0.0268   -3.9744 H   0  0  0  0  0  0  0  0  0  0  0  0
    3.7547   -1.7559   -3.3063 H   0  0  0  0  0  0  0  0  0  0  0  0
    2.6911   -2.3315    0.3624 H   0  0  0  0  0  0  0  0  0  0  0  0
    1.7495   -2.3934   -2.5380 H   0  0  0  0  0  0  0  0  0  0  0  0
   -0.5417   -4.9171    1.8570 H   0  0  0  0  0  0  0  0  0  0  0  0
    1.3935   -4.7804    0.3088 H   0  0  0  0  0  0  0  0  0  0  0  0
   -2.6105   -3.8290    2.7758 H   0  0  0  0  0  0  0  0  0  0  0  0
   -4.1179   -1.8828    2.8089 H   0  0  0  0  0  0  0  0  0  0  0  0
   -5.3052    2.7190    0.9214 H   0  0  0  0  0  0  0  0  0  0  0  0
   -1.7860    5.1632    0.3647 H   0  0  0  0  0  0  0  0  0  0  0  0
   -0.3696    3.1783    0.6219 H   0  0  0  0  0  0  0  0  0  0  0  0
   -1.3476    0.9910    1.0312 H   0  0  0  0  0  0  0  0  0  0  0  0
   -2.8662    0.4640   -1.1978 H   0  0  0  0  0  0  0  0  0  0  0  0
    4.0510   -0.4510    0.7971 H   0  0  0  0  0  0  0  0  0  0  0  0
    5.4017    1.4874    1.2210 H   0  0  0  0  0  0  0  0  0  0  0  0
  1 33  1  0  0  0  0
  2  1  1  0  0  0  0
  3  2  2  0  0  0  0
  3 34  1  0  0  0  0
  4  3  1  0  0  0  0
  4 35  1  0  0  0  0
  5  4  2  0  0  0  0
  6  5  1  0  0  0  0
  6 36  1  0  0  0  0
  7  6  2  0  0  0  0
  7 37  1  0  0  0  0
  8  7  1  0  0  0  0
  9  8  2  0  0  0  0
 10  9  1  0  0  0  0
 11 10  2  0  0  0  0
 12 11  1  0  0  0  0
 12 38  1  0  0  0  0
 13 12  2  0  0  0  0
 13  8  1  0  0  0  0
 13 39  1  0  0  0  0
 14 11  1  0  0  0  0
 14 40  1  0  0  0  0
 15 14  2  0  0  0  0
 15 41  1  0  0  0  0
 16 15  1  0  0  0  0
 17 16  1  0  0  0  0
 18 17  2  0  0  0  0
 19 17  1  0  0  0  0
 20 19  2  0  0  0  0
 20 42  1  0  0  0  0
 21 20  1  0  0  0  0
 22 21  2  0  0  0  0
 22 43  1  0  0  0  0
 23 22  1  0  0  0  0
 23 44  1  0  0  0  0
 24 23  2  0  0  0  0
 24 19  1  0  0  0  0
 24 45  1  0  0  0  0
 25 21  1  0  0  0  0
 26 25  2  0  0  0  0
 27 25  2  0  0  0  0
 28 16  2  0  0  0  0
 28 10  1  0  0  0  0
 29 28  1  0  0  0  0
 29 46  1  0  0  0  0
 30  5  1  0  0  0  0
 30 47  1  0  0  0  0
 31 30  2  0  0  0  0
 31  2  1  0  0  0  0
 32 31  1  0  0  0  0
 32 48  1  0  0  0  0
M  END
>  <MOL Chiral Flag>
0

>  <energy>
150.42253397325183

$$$$
> 31_AKC_c6ob01149g
>31.sdf
 OpenBabel10052218023D

 65 67  0  0  0  0  0  0  0  0999 V2000
   -1.7625    1.7806   -2.3416 C   0  0  0  0  0  0  0  0  0  0  0  0
   -3.0768    2.0108   -1.5833 C   0  0  0  0  0  0  0  0  0  0  0  0
   -2.9712    1.7097   -0.1302 N   0  3  0  0  0  0  0  0  0  0  0  0
   -4.2074    2.1375    0.5800 C   0  0  0  0  0  0  0  0  0  0  0  0
   -3.9070    2.6267    2.0030 C   0  0  0  0  0  0  0  0  0  0  0  0
   -2.6063    0.2935    0.1830 C   0  0  0  0  0  0  0  0  0  0  0  0
   -3.4338   -0.7702   -0.5823 C   0  0  0  0  0  0  0  0  0  0  0  0
   -3.0847   -2.2461   -0.2977 C   0  0  0  0  0  0  0  0  0  0  0  0
   -1.5816   -2.6031   -0.4444 C   0  0  2  0  0  0  0  0  0  0  0  0
   -1.4153   -4.0943   -0.7554 C   0  0  0  0  0  0  0  0  0  0  0  0
   -0.9046   -2.3316    0.8212 N   0  0  0  0  0  0  0  0  0  0  0  0
    0.2344   -1.4736    1.0319 C   0  0  0  0  0  0  0  0  0  0  0  0
    0.9245   -0.8916   -0.0569 C   0  0  0  0  0  0  0  0  0  0  0  0
    2.0306   -0.0573    0.1626 C   0  0  0  0  0  0  0  0  0  0  0  0
    2.4371    0.1920    1.4332 N   0  0  0  0  0  0  0  0  0  0  0  0
    1.8171   -0.3308    2.5150 C   0  0  0  0  0  0  0  0  0  0  0  0
    0.6946   -1.1828    2.3575 C   0  0  0  0  0  0  0  0  0  0  0  0
    0.0758   -1.6896    3.5308 C   0  0  0  0  0  0  0  0  0  0  0  0
    0.5649   -1.3541    4.7961 C   0  0  0  0  0  0  0  0  0  0  0  0
    1.6692   -0.5155    4.9270 C   0  0  0  0  0  0  0  0  0  0  0  0
    2.2676   -0.0950    6.5214 Cl  0  0  0  0  0  0  0  0  0  0  0  0
    2.2935   -0.0065    3.7905 C   0  0  0  0  0  0  0  0  0  0  0  0
    2.7538    0.5999   -1.0016 C   0  0  0  0  0  0  0  0  0  0  0  0
    3.3364   -0.4449   -1.9820 C   0  0  0  0  0  0  0  0  0  0  0  0
    4.0340    0.2545   -3.1603 C   0  0  0  0  0  0  0  0  0  0  0  0
    5.1554    1.1717   -2.6570 C   0  0  0  0  0  0  0  0  0  0  0  0
    4.5911    2.2158   -1.6877 C   0  0  0  0  0  0  0  0  0  0  0  0
    3.8948    1.5265   -0.5098 C   0  0  0  0  0  0  0  0  0  0  0  0
   -1.8951    2.0781   -3.4032 H   0  0  0  0  0  0  0  0  0  0  0  0
   -1.4530    0.7168   -2.3237 H   0  0  0  0  0  0  0  0  0  0  0  0
   -0.9538    2.4009   -1.9002 H   0  0  0  0  0  0  0  0  0  0  0  0
   -3.9050    1.4404   -2.0560 H   0  0  0  0  0  0  0  0  0  0  0  0
   -3.3211    3.0887   -1.7195 H   0  0  0  0  0  0  0  0  0  0  0  0
   -2.1893    2.3146    0.2197 H   0  0  0  0  0  0  0  0  0  0  0  0
   -4.9633    1.3250    0.6086 H   0  0  0  0  0  0  0  0  0  0  0  0
   -4.6855    3.0034    0.0689 H   0  0  0  0  0  0  0  0  0  0  0  0
   -3.4347    1.8342    2.6165 H   0  0  0  0  0  0  0  0  0  0  0  0
   -4.8476    2.9513    2.4951 H   0  0  0  0  0  0  0  0  0  0  0  0
   -3.2234    3.5036    1.9598 H   0  0  0  0  0  0  0  0  0  0  0  0
   -2.6772    0.1070    1.2760 H   0  0  0  0  0  0  0  0  0  0  0  0
   -1.5472    0.1497   -0.0918 H   0  0  0  0  0  0  0  0  0  0  0  0
   -3.2696   -0.6322   -1.6689 H   0  0  0  0  0  0  0  0  0  0  0  0
   -4.5176   -0.6412   -0.3818 H   0  0  0  0  0  0  0  0  0  0  0  0
   -3.6768   -2.8197   -1.0455 H   0  0  0  0  0  0  0  0  0  0  0  0
   -3.4484   -2.5639    0.7048 H   0  0  0  0  0  0  0  0  0  0  0  0
   -1.1749   -2.0632   -1.3172 H   0  0  0  0  0  0  0  0  0  0  0  0
   -1.8361   -4.7232    0.0574 H   0  0  0  0  0  0  0  0  0  0  0  0
   -0.3358   -4.3313   -0.8728 H   0  0  0  0  0  0  0  0  0  0  0  0
   -1.9270   -4.3478   -1.7090 H   0  0  0  0  0  0  0  0  0  0  0  0
   -1.2954   -2.8354    1.6224 H   0  0  0  0  0  0  0  0  0  0  0  0
    0.6215   -1.0686   -1.0730 H   0  0  0  0  0  0  0  0  0  0  0  0
   -0.7837   -2.3340    3.5106 H   0  0  0  0  0  0  0  0  0  0  0  0
    0.0773   -1.7472    5.6795 H   0  0  0  0  0  0  0  0  0  0  0  0
    3.1493    0.6493    3.8963 H   0  0  0  0  0  0  0  0  0  0  0  0
    2.0089    1.2235   -1.5455 H   0  0  0  0  0  0  0  0  0  0  0  0
    2.5317   -1.0926   -2.3892 H   0  0  0  0  0  0  0  0  0  0  0  0
    4.0681   -1.0935   -1.4510 H   0  0  0  0  0  0  0  0  0  0  0  0
    3.2891    0.8584   -3.7249 H   0  0  0  0  0  0  0  0  0  0  0  0
    4.4580   -0.5056   -3.8506 H   0  0  0  0  0  0  0  0  0  0  0  0
    5.6363    1.6852   -3.5171 H   0  0  0  0  0  0  0  0  0  0  0  0
    5.9283    0.5621   -2.1387 H   0  0  0  0  0  0  0  0  0  0  0  0
    3.8601    2.8636   -2.2195 H   0  0  0  0  0  0  0  0  0  0  0  0
    5.4150    2.8583   -1.3088 H   0  0  0  0  0  0  0  0  0  0  0  0
    3.4866    2.3068    0.1690 H   0  0  0  0  0  0  0  0  0  0  0  0
    4.6461    0.9291    0.0554 H   0  0  0  0  0  0  0  0  0  0  0  0
  1 29  1  0  0  0  0
  1 30  1  0  0  0  0
  1 31  1  0  0  0  0
  2  1  1  0  0  0  0
  2 32  1  0  0  0  0
  2 33  1  0  0  0  0
  3  2  1  0  0  0  0
  3 34  1  0  0  0  0
  4  3  1  0  0  0  0
  4 35  1  0  0  0  0
  4 36  1  0  0  0  0
  5  4  1  0  0  0  0
  5 37  1  0  0  0  0
  5 38  1  0  0  0  0
  5 39  1  0  0  0  0
  6  3  1  0  0  0  0
  6 40  1  0  0  0  0
  6 41  1  0  0  0  0
  7  6  1  0  0  0  0
  7 42  1  0  0  0  0
  7 43  1  0  0  0  0
  8  7  1  0  0  0  0
  8 44  1  0  0  0  0
  8 45  1  0  0  0  0
  9  8  1  0  0  0  0
  9 46  1  6  0  0  0
 10  9  1  0  0  0  0
 10 47  1  0  0  0  0
 10 48  1  0  0  0  0
 10 49  1  0  0  0  0
 11  9  1  0  0  0  0
 11 50  1  0  0  0  0
 12 11  1  0  0  0  0
 13 12  2  0  0  0  0
 13 51  1  0  0  0  0
 14 13  1  0  0  0  0
 15 14  2  0  0  0  0
 16 15  1  0  0  0  0
 17 16  2  0  0  0  0
 17 12  1  0  0  0  0
 18 17  1  0  0  0  0
 18 52  1  0  0  0  0
 19 18  2  0  0  0  0
 19 53  1  0  0  0  0
 20 19  1  0  0  0  0
 21 20  1  0  0  0  0
 22 20  2  0  0  0  0
 22 16  1  0  0  0  0
 22 54  1  0  0  0  0
 23 14  1  0  0  0  0
 23 55  1  0  0  0  0
 24 23  1  0  0  0  0
 24 56  1  0  0  0  0
 24 57  1  0  0  0  0
 25 24  1  0  0  0  0
 25 58  1  0  0  0  0
 25 59  1  0  0  0  0
 26 25  1  0  0  0  0
 26 60  1  0  0  0  0
 26 61  1  0  0  0  0
 27 26  1  0  0  0  0
 27 62  1  0  0  0  0
 27 63  1  0  0  0  0
 28 27  1  0  0  0  0
 28 23  1  0  0  0  0
 28 64  1  0  0  0  0
 28 65  1  0  0  0  0
M  CHG  1   3   1
M  END
>  <MOL Chiral Flag>
0

>  <energy>
47.284490509386359

$$$$
> 32_AKC_j.ejmech.2009.09.012
>32.sdf
 OpenBabel10052218023D

 47 49  0  0  0  0  0  0  0  0999 V2000
    3.1336    3.0146    2.1847 C   0  0  0  0  0  0  0  0  0  0  0  0
    3.5754    2.4196    0.8430 C   0  0  0  0  0  0  0  0  0  0  0  0
    3.0707    1.0538    0.6832 N   0  0  0  0  0  0  0  0  0  0  0  0
    3.5330    0.0219    1.6183 C   0  0  0  0  0  0  0  0  0  0  0  0
    4.3728   -1.0768    0.9361 C   0  0  0  0  0  0  0  0  0  0  0  0
    3.6208   -1.8934   -0.0160 N   0  3  0  0  0  0  0  0  0  0  0  0
    2.0371    0.7829   -0.2864 C   0  0  0  0  0  0  0  0  0  0  0  0
    0.9427   -0.0320    0.0702 C   0  0  0  0  0  0  0  0  0  0  0  0
   -0.1397   -0.2099   -0.7985 C   0  0  0  0  0  0  0  0  0  0  0  0
   -1.2674   -0.9629   -0.3484 N   0  0  0  0  0  0  0  0  0  0  0  0
   -2.6291   -0.5147   -0.4961 C   0  0  0  0  0  0  0  0  0  0  0  0
   -2.9119    0.8047   -0.9112 C   0  0  0  0  0  0  0  0  0  0  0  0
   -4.2233    1.2649   -0.9672 C   0  0  0  0  0  0  0  0  0  0  0  0
   -5.2484    0.4534   -0.6119 N   0  0  0  0  0  0  0  0  0  0  0  0
   -5.0414   -0.8202   -0.1996 C   0  0  0  0  0  0  0  0  0  0  0  0
   -3.7250   -1.3537   -0.1319 C   0  0  0  0  0  0  0  0  0  0  0  0
   -3.5601   -2.6899    0.2950 C   0  0  0  0  0  0  0  0  0  0  0  0
   -4.6707   -3.4611    0.6543 C   0  0  0  0  0  0  0  0  0  0  0  0
   -5.9556   -2.9185    0.5980 C   0  0  0  0  0  0  0  0  0  0  0  0
   -7.3401   -3.8904    1.0625 Cl  0  0  0  0  0  0  0  0  0  0  0  0
   -6.1399   -1.6049    0.1697 C   0  0  0  0  0  0  0  0  0  0  0  0
   -0.1027    0.3670   -2.0752 C   0  0  0  0  0  0  0  0  0  0  0  0
    0.9941    1.1318   -2.4684 C   0  0  0  0  0  0  0  0  0  0  0  0
    2.0595    1.3575   -1.5837 C   0  0  0  0  0  0  0  0  0  0  0  0
    3.1122    2.0985   -1.9917 O   0  0  0  0  0  0  0  0  0  0  0  0
    3.4904    4.0630    2.2634 H   0  0  0  0  0  0  0  0  0  0  0  0
    3.5345    2.4522    3.0503 H   0  0  0  0  0  0  0  0  0  0  0  0
    2.0232    3.0158    2.2450 H   0  0  0  0  0  0  0  0  0  0  0  0
    4.6819    2.4305    0.7488 H   0  0  0  0  0  0  0  0  0  0  0  0
    3.1513    3.1098    0.0890 H   0  0  0  0  0  0  0  0  0  0  0  0
    2.6969   -0.4112    2.2012 H   0  0  0  0  0  0  0  0  0  0  0  0
    4.2235    0.4706    2.3628 H   0  0  0  0  0  0  0  0  0  0  0  0
    4.7630   -1.7438    1.7372 H   0  0  0  0  0  0  0  0  0  0  0  0
    5.2463   -0.6141    0.4252 H   0  0  0  0  0  0  0  0  0  0  0  0
    2.7751   -2.3014    0.4435 H   0  0  0  0  0  0  0  0  0  0  0  0
    4.2347   -2.6750   -0.3413 H   0  0  0  0  0  0  0  0  0  0  0  0
    3.3540   -1.3360   -0.8561 H   0  0  0  0  0  0  0  0  0  0  0  0
    0.8818   -0.4707    1.0533 H   0  0  0  0  0  0  0  0  0  0  0  0
   -1.0798   -1.7013    0.3399 H   0  0  0  0  0  0  0  0  0  0  0  0
   -2.1302    1.5048   -1.1598 H   0  0  0  0  0  0  0  0  0  0  0  0
   -4.4254    2.2819   -1.2735 H   0  0  0  0  0  0  0  0  0  0  0  0
   -2.5909   -3.1594    0.3499 H   0  0  0  0  0  0  0  0  0  0  0  0
   -4.5302   -4.4837    0.9796 H   0  0  0  0  0  0  0  0  0  0  0  0
   -7.1390   -1.1871    0.1264 H   0  0  0  0  0  0  0  0  0  0  0  0
   -0.9204    0.2181   -2.7697 H   0  0  0  0  0  0  0  0  0  0  0  0
    1.0119    1.5621   -3.4619 H   0  0  0  0  0  0  0  0  0  0  0  0
    3.1515    2.4912   -2.8754 H   0  0  0  0  0  0  0  0  0  0  0  0
  1 26  1  0  0  0  0
  1 27  1  0  0  0  0
  1 28  1  0  0  0  0
  2  1  1  0  0  0  0
  2 29  1  0  0  0  0
  2 30  1  0  0  0  0
  3  2  1  0  0  0  0
  4  3  1  0  0  0  0
  4 31  1  0  0  0  0
  4 32  1  0  0  0  0
  5  4  1  0  0  0  0
  5 33  1  0  0  0  0
  5 34  1  0  0  0  0
  6  5  1  0  0  0  0
  6 35  1  0  0  0  0
  6 36  1  0  0  0  0
  6 37  1  0  0  0  0
  7  3  1  0  0  0  0
  8  7  2  0  0  0  0
  8 38  1  0  0  0  0
  9  8  1  0  0  0  0
 10  9  1  0  0  0  0
 10 39  1  0  0  0  0
 11 10  1  0  0  0  0
 12 11  2  0  0  0  0
 12 40  1  0  0  0  0
 13 12  1  0  0  0  0
 13 41  1  0  0  0  0
 14 13  2  0  0  0  0
 15 14  1  0  0  0  0
 16 15  2  0  0  0  0
 16 11  1  0  0  0  0
 17 16  1  0  0  0  0
 17 42  1  0  0  0  0
 18 17  2  0  0  0  0
 18 43  1  0  0  0  0
 19 18  1  0  0  0  0
 20 19  1  0  0  0  0
 21 19  2  0  0  0  0
 21 15  1  0  0  0  0
 21 44  1  0  0  0  0
 22  9  2  0  0  0  0
 22 45  1  0  0  0  0
 23 22  1  0  0  0  0
 23 46  1  0  0  0  0
 24 23  2  0  0  0  0
 24  7  1  0  0  0  0
 25 24  1  0  0  0  0
 25 47  1  0  0  0  0
M  CHG  1   6   1
M  END
>  <MOL Chiral Flag>
0

>  <energy>
84.800238590593978

$$$$
> 33_AKC_j.ejmech.2018.05.014
>33.sdf
 OpenBabel10052218033D

 52 56  0  0  0  0  0  0  0  0999 V2000
   -2.0529    5.1785    1.4993 Cl  0  0  0  0  0  0  0  0  0  0  0  0
   -2.0346    3.5164    2.0584 C   0  0  0  0  0  0  0  0  0  0  0  0
   -2.0933    2.4667    1.1340 C   0  0  0  0  0  0  0  0  0  0  0  0
   -2.0723    1.1256    1.5768 C   0  0  0  0  0  0  0  0  0  0  0  0
   -2.0123    0.8699    2.9677 C   0  0  0  0  0  0  0  0  0  0  0  0
   -1.9530    1.9269    3.8793 C   0  0  0  0  0  0  0  0  0  0  0  0
   -1.9601    3.2452    3.4268 C   0  0  0  0  0  0  0  0  0  0  0  0
   -2.0234   -0.4030    3.4300 N   0  0  0  0  0  0  0  0  0  0  0  0
   -2.0713   -1.4676    2.5966 C   0  0  0  0  0  0  0  0  0  0  0  0
   -2.0992   -1.2902    1.2040 C   0  0  0  0  0  0  0  0  0  0  0  0
   -2.0075   -2.5018    0.3498 C   0  0  0  0  0  0  0  0  0  0  0  0
   -2.2961   -3.5930    0.8254 O   0  0  0  0  0  0  0  0  0  0  0  0
   -1.3265   -2.4319   -0.8280 O   0  0  0  0  0  0  0  0  0  0  0  0
   -0.5469   -3.4822   -1.2917 C   0  0  0  0  0  0  0  0  0  0  0  0
    0.8969   -3.0801   -1.2880 C   0  0  0  0  0  0  0  0  0  0  0  0
    1.6063   -2.5012   -0.2523 C   0  0  0  0  0  0  0  0  0  0  0  0
    2.8691   -2.3601   -0.6939 N   0  0  0  0  0  0  0  0  0  0  0  0
    4.0119   -1.7636   -0.0020 C   0  0  0  0  0  0  0  0  0  0  0  0
    3.9091   -0.2592   -0.0407 C   0  0  0  0  0  0  0  0  0  0  0  0
    2.9627    0.4273    0.7396 C   0  0  0  0  0  0  0  0  0  0  0  0
    2.8688    1.8227    0.6616 C   0  0  0  0  0  0  0  0  0  0  0  0
    3.7078    2.5366   -0.2001 C   0  0  0  0  0  0  0  0  0  0  0  0
    4.6504    1.8602   -0.9766 C   0  0  0  0  0  0  0  0  0  0  0  0
    4.7573    0.4708   -0.8935 C   0  0  0  0  0  0  0  0  0  0  0  0
    2.9343   -2.8336   -1.9279 N   0  0  0  0  0  0  0  0  0  0  0  0
    1.7429   -3.2697   -2.3176 N   0  0  0  0  0  0  0  0  0  0  0  0
   -2.1206    0.0275    0.6784 C   0  0  0  0  0  0  0  0  0  0  0  0
   -2.2917    0.2591   -0.7775 C   0  0  0  0  0  0  0  0  0  0  0  0
   -3.5676    0.0925   -1.3437 C   0  0  0  0  0  0  0  0  0  0  0  0
   -3.7771    0.3508   -2.7005 C   0  0  0  0  0  0  0  0  0  0  0  0
   -2.7127    0.7637   -3.5046 C   0  0  0  0  0  0  0  0  0  0  0  0
   -1.4376    0.9247   -2.9503 C   0  0  0  0  0  0  0  0  0  0  0  0
   -1.2257    0.6819   -1.5864 C   0  0  0  0  0  0  0  0  0  0  0  0
   -2.1501    2.7070    0.0809 H   0  0  0  0  0  0  0  0  0  0  0  0
   -1.9025    1.7242    4.9423 H   0  0  0  0  0  0  0  0  0  0  0  0
   -1.9126    4.0563    4.1418 H   0  0  0  0  0  0  0  0  0  0  0  0
   -2.0384   -2.4622    3.0229 H   0  0  0  0  0  0  0  0  0  0  0  0
   -0.8690   -3.7965   -2.3064 H   0  0  0  0  0  0  0  0  0  0  0  0
   -0.6166   -4.3700   -0.6268 H   0  0  0  0  0  0  0  0  0  0  0  0
    1.2408   -2.2118    0.7244 H   0  0  0  0  0  0  0  0  0  0  0  0
    4.1287   -2.1630    1.0296 H   0  0  0  0  0  0  0  0  0  0  0  0
    4.9272   -2.0623   -0.5582 H   0  0  0  0  0  0  0  0  0  0  0  0
    2.3056   -0.1129    1.4082 H   0  0  0  0  0  0  0  0  0  0  0  0
    2.1424    2.3516    1.2650 H   0  0  0  0  0  0  0  0  0  0  0  0
    3.6278    3.6138   -0.2679 H   0  0  0  0  0  0  0  0  0  0  0  0
    5.2965    2.4108   -1.6485 H   0  0  0  0  0  0  0  0  0  0  0  0
    5.4874   -0.0394   -1.5100 H   0  0  0  0  0  0  0  0  0  0  0  0
   -4.4031   -0.2152   -0.7260 H   0  0  0  0  0  0  0  0  0  0  0  0
   -4.7664    0.2363   -3.1267 H   0  0  0  0  0  0  0  0  0  0  0  0
   -2.8778    0.9626   -4.5561 H   0  0  0  0  0  0  0  0  0  0  0  0
   -0.6164    1.2444   -3.5777 H   0  0  0  0  0  0  0  0  0  0  0  0
   -0.2388    0.8170   -1.1632 H   0  0  0  0  0  0  0  0  0  0  0  0
  2  1  1  0  0  0  0
  3  2  2  0  0  0  0
  3 34  1  0  0  0  0
  4  3  1  0  0  0  0
  5  4  2  0  0  0  0
  6  5  1  0  0  0  0
  6 35  1  0  0  0  0
  7  6  2  0  0  0  0
  7  2  1  0  0  0  0
  7 36  1  0  0  0  0
  8  5  1  0  0  0  0
  9  8  2  0  0  0  0
  9 37  1  0  0  0  0
 10  9  1  0  0  0  0
 11 10  1  0  0  0  0
 12 11  2  0  0  0  0
 13 11  1  0  0  0  0
 14 13  1  0  0  0  0
 14 38  1  0  0  0  0
 14 39  1  0  0  0  0
 15 14  1  0  0  0  0
 16 15  2  0  0  0  0
 16 40  1  0  0  0  0
 17 16  1  0  0  0  0
 18 17  1  0  0  0  0
 18 41  1  0  0  0  0
 18 42  1  0  0  0  0
 19 18  1  0  0  0  0
 20 19  2  0  0  0  0
 20 43  1  0  0  0  0
 21 20  1  0  0  0  0
 21 44  1  0  0  0  0
 22 21  2  0  0  0  0
 22 45  1  0  0  0  0
 23 22  1  0  0  0  0
 23 46  1  0  0  0  0
 24 23  2  0  0  0  0
 24 19  1  0  0  0  0
 24 47  1  0  0  0  0
 25 17  1  0  0  0  0
 26 25  2  0  0  0  0
 26 15  1  0  0  0  0
 27 10  2  0  0  0  0
 27  4  1  0  0  0  0
 28 27  1  0  0  0  0
 29 28  2  0  0  0  0
 29 48  1  0  0  0  0
 30 29  1  0  0  0  0
 30 49  1  0  0  0  0
 31 30  2  0  0  0  0
 31 50  1  0  0  0  0
 32 31  1  0  0  0  0
 32 51  1  0  0  0  0
 33 32  2  0  0  0  0
 33 28  1  0  0  0  0
 33 52  1  0  0  0  0
M  END
>  <MOL Chiral Flag>
0

>  <energy>
98.497107204066168

$$$$
> 34_AKC_/j.ejmech.2017.03.016
>34.sdf
 OpenBabel10052218033D

 45 48  0  0  0  0  0  0  0  0999 V2000
   -1.9659   -7.5540   -3.4101 Cl  0  0  0  0  0  0  0  0  0  0  0  0
   -0.7344   -6.4303   -2.8640 C   0  0  0  0  0  0  0  0  0  0  0  0
   -1.1007   -5.2806   -2.1646 C   0  0  0  0  0  0  0  0  0  0  0  0
   -0.1258   -4.3785   -1.7296 C   0  0  0  0  0  0  0  0  0  0  0  0
    1.2453   -4.6177   -1.9905 C   0  0  0  0  0  0  0  0  0  0  0  0
    1.5954   -5.7867   -2.6986 C   0  0  0  0  0  0  0  0  0  0  0  0
    0.6121   -6.6827   -3.1301 C   0  0  0  0  0  0  0  0  0  0  0  0
    2.3275   -3.6671   -1.5588 C   0  0  0  0  0  0  0  0  0  0  0  0
    3.4904   -3.9277   -1.8360 O   0  0  0  0  0  0  0  0  0  0  0  0
    2.0272   -2.3934   -0.8452 C   0  0  0  0  0  0  0  0  0  0  0  0
    2.9780   -1.4714   -0.5757 C   0  0  0  0  0  0  0  0  0  0  0  0
    2.6832   -0.1486    0.0583 C   0  0  0  0  0  0  0  0  0  0  0  0
    1.4256    0.1614    0.6140 C   0  0  0  0  0  0  0  0  0  0  0  0
    1.1362    1.4412    1.1166 C   0  0  0  0  0  0  0  0  0  0  0  0
   -0.2045    1.6768    1.5786 N   0  0  0  0  0  0  0  0  0  0  0  0
   -0.7822    2.9389    1.9358 C   0  0  0  0  0  0  0  0  0  0  0  0
   -0.0977    3.8566    2.7518 C   0  0  0  0  0  0  0  0  0  0  0  0
   -0.6919    5.0733    3.0891 C   0  0  0  0  0  0  0  0  0  0  0  0
   -1.9367    5.3776    2.6421 N   0  0  0  0  0  0  0  0  0  0  0  0
   -2.6484    4.5196    1.8680 C   0  0  0  0  0  0  0  0  0  0  0  0
   -2.0964    3.2683    1.4958 C   0  0  0  0  0  0  0  0  0  0  0  0
   -2.8645    2.4068    0.6760 C   0  0  0  0  0  0  0  0  0  0  0  0
   -4.1416    2.7800    0.2558 C   0  0  0  0  0  0  0  0  0  0  0  0
   -4.6750    4.0121    0.6319 C   0  0  0  0  0  0  0  0  0  0  0  0
   -6.4208    4.5098    0.0395 Br  0  0  0  0  0  0  0  0  0  0  0  0
   -3.9310    4.8808    1.4336 C   0  0  0  0  0  0  0  0  0  0  0  0
    2.1421    2.4298    1.0558 C   0  0  0  0  0  0  0  0  0  0  0  0
    3.4060    2.1172    0.5460 C   0  0  0  0  0  0  0  0  0  0  0  0
    3.6771    0.8392    0.0531 C   0  0  0  0  0  0  0  0  0  0  0  0
   -2.1451   -5.0812   -1.9583 H   0  0  0  0  0  0  0  0  0  0  0  0
   -0.4664   -3.5068   -1.1991 H   0  0  0  0  0  0  0  0  0  0  0  0
    2.6315   -6.0055   -2.9231 H   0  0  0  0  0  0  0  0  0  0  0  0
    0.8987   -7.5730   -3.6747 H   0  0  0  0  0  0  0  0  0  0  0  0
    1.0112   -2.1906   -0.5806 H   0  0  0  0  0  0  0  0  0  0  0  0
    3.9999   -1.6643   -0.8915 H   0  0  0  0  0  0  0  0  0  0  0  0
    0.6391   -0.5727    0.6431 H   0  0  0  0  0  0  0  0  0  0  0  0
   -0.8528    0.8876    1.4678 H   0  0  0  0  0  0  0  0  0  0  0  0
    0.8770    3.6300    3.1577 H   0  0  0  0  0  0  0  0  0  0  0  0
   -0.1637    5.7760    3.7191 H   0  0  0  0  0  0  0  0  0  0  0  0
   -2.4992    1.4495    0.3413 H   0  0  0  0  0  0  0  0  0  0  0  0
   -4.7155    2.1080   -0.3699 H   0  0  0  0  0  0  0  0  0  0  0  0
   -4.3488    5.8386    1.7171 H   0  0  0  0  0  0  0  0  0  0  0  0
    1.9788    3.4418    1.3722 H   0  0  0  0  0  0  0  0  0  0  0  0
    4.1732    2.8800    0.5074 H   0  0  0  0  0  0  0  0  0  0  0  0
    4.6537    0.6315   -0.3672 H   0  0  0  0  0  0  0  0  0  0  0  0
  2  1  1  0  0  0  0
  3  2  2  0  0  0  0
  3 30  1  0  0  0  0
  4  3  1  0  0  0  0
  4 31  1  0  0  0  0
  5  4  2  0  0  0  0
  6  5  1  0  0  0  0
  6 32  1  0  0  0  0
  7  6  2  0  0  0  0
  7  2  1  0  0  0  0
  7 33  1  0  0  0  0
  8  5  1  0  0  0  0
  9  8  2  0  0  0  0
 10  8  1  0  0  0  0
 10 34  1  0  0  0  0
 11 10  2  0  0  0  0
 11 35  1  0  0  0  0
 12 11  1  0  0  0  0
 13 12  2  0  0  0  0
 13 36  1  0  0  0  0
 14 13  1  0  0  0  0
 15 14  1  0  0  0  0
 15 37  1  0  0  0  0
 16 15  1  0  0  0  0
 17 16  2  0  0  0  0
 17 38  1  0  0  0  0
 18 17  1  0  0  0  0
 18 39  1  0  0  0  0
 19 18  2  0  0  0  0
 20 19  1  0  0  0  0
 21 20  2  0  0  0  0
 21 16  1  0  0  0  0
 22 21  1  0  0  0  0
 22 40  1  0  0  0  0
 23 22  2  0  0  0  0
 23 41  1  0  0  0  0
 24 23  1  0  0  0  0
 25 24  1  0  0  0  0
 26 24  2  0  0  0  0
 26 20  1  0  0  0  0
 26 42  1  0  0  0  0
 27 14  2  0  0  0  0
 27 43  1  0  0  0  0
 28 27  1  0  0  0  0
 28 44  1  0  0  0  0
 29 28  2  0  0  0  0
 29 12  1  0  0  0  0
 29 45  1  0  0  0  0
M  END
>  <MOL Chiral Flag>
0

>  <energy>
119.51845657218522

$$$$
> 35_AKC_10.1016C
>35.sdf
 OpenBabel10052218033D

 44 46  0  0  0  0  0  0  0  0999 V2000
    5.0481    0.9846    1.7311 C   0  0  0  0  0  0  0  0  0  0  0  0
    5.2333    2.7868    1.4660 S   0  0  0  0  0  0  0  0  0  0  0  0
    4.2049    2.8635   -0.0099 C   0  0  0  0  0  0  0  0  0  0  0  0
    2.9034    2.3899    0.0288 C   0  0  0  0  0  0  0  0  0  0  0  0
    2.1133    2.4245   -1.1405 C   0  0  0  0  0  0  0  0  0  0  0  0
    0.7258    1.8541   -1.1777 C   0  0  0  0  0  0  0  0  0  0  0  0
    0.1078    1.4554   -0.0475 C   0  0  0  0  0  0  0  0  0  0  0  0
   -1.1749    0.7350    0.0832 C   0  0  0  0  0  0  0  0  0  0  0  0
   -1.5670    0.4223    1.3944 C   0  0  0  0  0  0  0  0  0  0  0  0
   -2.6368   -0.4152    1.6340 C   0  0  0  0  0  0  0  0  0  0  0  0
   -3.3225   -0.9820    0.5698 C   0  0  0  0  0  0  0  0  0  0  0  0
   -4.1523   -2.0122    0.8317 O   0  0  0  0  0  0  0  0  0  0  0  0
   -3.6704   -3.3300    0.8573 C   0  0  0  0  0  0  0  0  0  0  0  0
   -2.2810   -3.4908    0.2214 C   0  0  0  0  0  0  0  0  0  0  0  0
   -2.1604   -4.1073   -1.0336 C   0  0  0  0  0  0  0  0  0  0  0  0
   -0.9204   -4.1642   -1.6785 C   0  0  0  0  0  0  0  0  0  0  0  0
    0.2126   -3.6105   -1.0776 C   0  0  0  0  0  0  0  0  0  0  0  0
    0.1148   -3.0197    0.1824 C   0  0  0  0  0  0  0  0  0  0  0  0
   -1.1203   -2.9683    0.8371 C   0  0  0  0  0  0  0  0  0  0  0  0
   -3.0162   -0.6118   -0.7527 C   0  0  0  0  0  0  0  0  0  0  0  0
   -1.9376    0.2537   -1.0012 C   0  0  0  0  0  0  0  0  0  0  0  0
    2.6595    2.9420   -2.2754 N   0  0  0  0  0  0  0  0  0  0  0  0
    3.9331    3.4314   -2.2879 C   0  0  0  0  0  0  0  0  0  0  0  0
    4.4676    3.9957   -3.4652 N   0  0  0  0  0  0  0  0  0  0  0  0
    4.6971    3.3818   -1.1604 N   0  0  0  0  0  0  0  0  0  0  0  0
    4.0548    0.7427    2.1658 H   0  0  0  0  0  0  0  0  0  0  0  0
    5.2173    0.4276    0.7861 H   0  0  0  0  0  0  0  0  0  0  0  0
    5.8192    0.6488    2.4532 H   0  0  0  0  0  0  0  0  0  0  0  0
    2.5614    1.9808    0.9579 H   0  0  0  0  0  0  0  0  0  0  0  0
    0.2401    1.7333   -2.1412 H   0  0  0  0  0  0  0  0  0  0  0  0
    0.6009    1.6033    0.8920 H   0  0  0  0  0  0  0  0  0  0  0  0
   -0.9895    0.7693    2.2419 H   0  0  0  0  0  0  0  0  0  0  0  0
   -2.8637   -0.7147    2.6494 H   0  0  0  0  0  0  0  0  0  0  0  0
   -3.6610   -3.7094    1.9027 H   0  0  0  0  0  0  0  0  0  0  0  0
   -4.3975   -3.9489    0.2948 H   0  0  0  0  0  0  0  0  0  0  0  0
   -3.0329   -4.5141   -1.5263 H   0  0  0  0  0  0  0  0  0  0  0  0
   -0.8424   -4.6223   -2.6549 H   0  0  0  0  0  0  0  0  0  0  0  0
    1.1664   -3.6387   -1.5893 H   0  0  0  0  0  0  0  0  0  0  0  0
    0.9944   -2.5892    0.6467 H   0  0  0  0  0  0  0  0  0  0  0  0
   -1.1710   -2.5003    1.8097 H   0  0  0  0  0  0  0  0  0  0  0  0
   -3.5517   -1.0602   -1.5813 H   0  0  0  0  0  0  0  0  0  0  0  0
   -1.6615    0.4686   -2.0248 H   0  0  0  0  0  0  0  0  0  0  0  0
    3.8997    4.0459   -4.3233 H   0  0  0  0  0  0  0  0  0  0  0  0
    5.4237    4.3795   -3.4672 H   0  0  0  0  0  0  0  0  0  0  0  0
  1 26  1  0  0  0  0
  1 27  1  0  0  0  0
  1 28  1  0  0  0  0
  2  1  1  0  0  0  0
  3  2  1  0  0  0  0
  4  3  2  0  0  0  0
  4 29  1  0  0  0  0
  5  4  1  0  0  0  0
  6  5  1  0  0  0  0
  6 30  1  0  0  0  0
  7  6  2  0  0  0  0
  7 31  1  0  0  0  0
  8  7  1  0  0  0  0
  9  8  2  0  0  0  0
  9 32  1  0  0  0  0
 10  9  1  0  0  0  0
 10 33  1  0  0  0  0
 11 10  2  0  0  0  0
 12 11  1  0  0  0  0
 13 12  1  0  0  0  0
 13 34  1  0  0  0  0
 13 35  1  0  0  0  0
 14 13  1  0  0  0  0
 15 14  2  0  0  0  0
 15 36  1  0  0  0  0
 16 15  1  0  0  0  0
 16 37  1  0  0  0  0
 17 16  2  0  0  0  0
 17 38  1  0  0  0  0
 18 17  1  0  0  0  0
 18 39  1  0  0  0  0
 19 18  2  0  0  0  0
 19 14  1  0  0  0  0
 19 40  1  0  0  0  0
 20 11  1  0  0  0  0
 20 41  1  0  0  0  0
 21 20  2  0  0  0  0
 21  8  1  0  0  0  0
 21 42  1  0  0  0  0
 22  5  2  0  0  0  0
 23 22  1  0  0  0  0
 24 23  1  0  0  0  0
 24 43  1  0  0  0  0
 24 44  1  0  0  0  0
 25 23  2  0  0  0  0
 25  3  1  0  0  0  0
M  END
>  <MOL Chiral Flag>
0

>  <energy>
-45.800945324653107

$$$$
> 36_AKC_c5ob00280j
>36.sdf
 OpenBabel10052218043D

 46 51  0  0  0  0  0  0  0  0999 V2000
   -5.0750    4.1417   -3.4409 C   0  0  0  0  0  0  0  0  0  0  0  0
   -4.5717    4.0908   -2.1408 C   0  0  0  0  0  0  0  0  0  0  0  0
   -3.5526    3.1921   -1.8178 C   0  0  0  0  0  0  0  0  0  0  0  0
   -3.0156    2.3379   -2.8008 C   0  0  0  0  0  0  0  0  0  0  0  0
   -3.5198    2.4086   -4.1118 C   0  0  0  0  0  0  0  0  0  0  0  0
   -4.5531    3.2988   -4.4248 C   0  0  0  0  0  0  0  0  0  0  0  0
   -1.8791    1.4341   -2.4936 C   0  0  0  0  0  0  0  0  0  0  0  0
   -1.4773    0.8873   -1.2838 C   0  0  0  0  0  0  0  0  0  0  0  0
   -2.0569    0.8780   -0.0141 C   0  0  0  0  0  0  0  0  0  0  0  0
   -1.3668    0.2319    1.0226 C   0  0  0  0  0  0  0  0  0  0  0  0
   -0.1001   -0.3639    0.7797 C   0  0  0  0  0  0  0  0  0  0  0  0
    0.4108   -0.3443   -0.5383 C   0  0  0  0  0  0  0  0  0  0  0  0
    1.6164   -0.9019   -0.8182 N   0  0  0  0  0  0  0  0  0  0  0  0
    2.3579   -1.4821    0.1629 C   0  0  0  0  0  0  0  0  0  0  0  0
    1.8706   -1.5483    1.4307 N   0  0  0  0  0  0  0  0  0  0  0  0
    0.6679   -1.0138    1.7748 C   0  0  0  0  0  0  0  0  0  0  0  0
    0.2422   -1.1250    3.1892 C   0  0  0  0  0  0  0  0  0  0  0  0
    0.2852   -2.3711    3.8301 C   0  0  0  0  0  0  0  0  0  0  0  0
   -0.1149   -2.4838    5.1616 C   0  0  0  0  0  0  0  0  0  0  0  0
   -0.5276   -1.3434    5.8520 C   0  0  0  0  0  0  0  0  0  0  0  0
   -0.5453   -0.1363    5.2265 N   0  0  0  0  0  0  0  0  0  0  0  0
   -0.1793   -0.0035    3.9232 C   0  0  0  0  0  0  0  0  0  0  0  0
    3.7361   -1.9317   -0.1103 C   0  0  0  0  0  0  0  0  0  0  0  0
    4.2229   -2.0406   -1.4237 C   0  0  0  0  0  0  0  0  0  0  0  0
    5.5505   -2.4201   -1.6336 C   0  0  0  0  0  0  0  0  0  0  0  0
    6.3834   -2.6653   -0.5415 C   0  0  0  0  0  0  0  0  0  0  0  0
    5.8711   -2.5412    0.7506 C   0  0  0  0  0  0  0  0  0  0  0  0
    4.5706   -2.1897    0.9371 N   0  0  0  0  0  0  0  0  0  0  0  0
   -0.3145    0.2663   -1.5099 N   0  0  0  0  0  0  0  0  0  0  0  0
   -0.0120    0.3746   -2.7904 N   0  0  0  0  0  0  0  0  0  0  0  0
   -0.9555    1.0715   -3.4177 N   0  0  0  0  0  0  0  0  0  0  0  0
   -5.8619    4.8424   -3.6878 H   0  0  0  0  0  0  0  0  0  0  0  0
   -4.9608    4.7589   -1.3830 H   0  0  0  0  0  0  0  0  0  0  0  0
   -3.1595    3.2081   -0.8151 H   0  0  0  0  0  0  0  0  0  0  0  0
   -3.1189    1.7700   -4.8890 H   0  0  0  0  0  0  0  0  0  0  0  0
   -4.9424    3.3428   -5.4334 H   0  0  0  0  0  0  0  0  0  0  0  0
   -3.0187    1.3235    0.1844 H   0  0  0  0  0  0  0  0  0  0  0  0
   -1.8275    0.2065    1.9972 H   0  0  0  0  0  0  0  0  0  0  0  0
    0.6005   -3.2559    3.2898 H   0  0  0  0  0  0  0  0  0  0  0  0
   -0.1063   -3.4475    5.6541 H   0  0  0  0  0  0  0  0  0  0  0  0
   -0.8323   -1.4176    6.8871 H   0  0  0  0  0  0  0  0  0  0  0  0
   -0.1863    0.9788    3.4688 H   0  0  0  0  0  0  0  0  0  0  0  0
    3.5840   -1.8381   -2.2738 H   0  0  0  0  0  0  0  0  0  0  0  0
    5.9352   -2.5151   -2.6406 H   0  0  0  0  0  0  0  0  0  0  0  0
    7.4174   -2.9465   -0.6941 H   0  0  0  0  0  0  0  0  0  0  0  0
    6.5090   -2.7179    1.6065 H   0  0  0  0  0  0  0  0  0  0  0  0
  1 32  1  0  0  0  0
  2  1  2  0  0  0  0
  2 33  1  0  0  0  0
  3  2  1  0  0  0  0
  3 34  1  0  0  0  0
  4  3  2  0  0  0  0
  5  4  1  0  0  0  0
  5 35  1  0  0  0  0
  6  5  2  0  0  0  0
  6  1  1  0  0  0  0
  6 36  1  0  0  0  0
  7  4  1  0  0  0  0
  8  7  2  0  0  0  0
  9  8  1  0  0  0  0
  9 37  1  0  0  0  0
 10  9  2  0  0  0  0
 10 38  1  0  0  0  0
 11 10  1  0  0  0  0
 12 11  2  0  0  0  0
 13 12  1  0  0  0  0
 14 13  2  0  0  0  0
 15 14  1  0  0  0  0
 16 15  2  0  0  0  0
 16 11  1  0  0  0  0
 17 16  1  0  0  0  0
 18 17  2  0  0  0  0
 18 39  1  0  0  0  0
 19 18  1  0  0  0  0
 19 40  1  0  0  0  0
 20 19  2  0  0  0  0
 20 41  1  0  0  0  0
 21 20  1  0  0  0  0
 22 21  2  0  0  0  0
 22 17  1  0  0  0  0
 22 42  1  0  0  0  0
 23 14  1  0  0  0  0
 24 23  2  0  0  0  0
 24 43  1  0  0  0  0
 25 24  1  0  0  0  0
 25 44  1  0  0  0  0
 26 25  2  0  0  0  0
 26 45  1  0  0  0  0
 27 26  1  0  0  0  0
 27 46  1  0  0  0  0
 28 27  2  0  0  0  0
 28 23  1  0  0  0  0
 29 12  1  0  0  0  0
 29  8  1  0  0  0  0
 30 29  1  0  0  0  0
 31 30  2  0  0  0  0
 31  7  1  0  0  0  0
M  END
>  <MOL Chiral Flag>
0

>  <energy>
159.42746932622043

$$$$
> 37_AKC_fmc-2017-0120
>37.sdf
 OpenBabel10052218043D

 38 41  0  0  0  0  0  0  0  0999 V2000
    0.1403   -1.8699   -3.2601 C   0  0  0  0  0  0  0  0  0  0  0  0
    0.0701   -2.9989   -1.8207 S   0  0  0  0  0  0  0  0  0  0  0  0
    0.4824   -1.7485   -0.5970 C   0  0  0  0  0  0  0  0  0  0  0  0
    1.7751   -1.5821   -0.1944 N   0  0  0  0  0  0  0  0  0  0  0  0
    2.1261   -0.5811    0.6753 C   0  0  0  0  0  0  0  0  0  0  0  0
    1.1315    0.2760    1.1952 C   0  0  0  0  0  0  0  0  0  0  0  0
   -0.1702    0.0685    0.7600 C   0  0  0  0  0  0  0  0  0  0  0  0
   -1.3125    0.7851    1.0288 C   0  0  0  0  0  0  0  0  0  0  0  0
   -2.2896    0.1585    0.2576 C   0  0  0  0  0  0  0  0  0  0  0  0
   -1.7476   -0.8899   -0.4007 N   0  0  0  0  0  0  0  0  0  0  0  0
   -0.4590   -0.9143   -0.0984 N   0  0  0  0  0  0  0  0  0  0  0  0
   -3.6642    0.6223    0.0247 C   0  0  0  0  0  0  0  0  0  0  0  0
   -4.7195   -0.2942   -0.0888 C   0  0  0  0  0  0  0  0  0  0  0  0
   -6.0131    0.1588   -0.3692 C   0  0  0  0  0  0  0  0  0  0  0  0
   -6.2494    1.5212   -0.5783 C   0  0  0  0  0  0  0  0  0  0  0  0
   -5.1971    2.4358   -0.4862 C   0  0  0  0  0  0  0  0  0  0  0  0
   -3.9107    1.9922   -0.1679 C   0  0  0  0  0  0  0  0  0  0  0  0
    3.5574   -0.3544    0.9669 C   0  0  0  0  0  0  0  0  0  0  0  0
    4.0552    0.9554    1.1121 C   0  0  0  0  0  0  0  0  0  0  0  0
    5.4206    1.1717    1.3106 C   0  0  0  0  0  0  0  0  0  0  0  0
    6.2957    0.0867    1.3949 C   0  0  0  0  0  0  0  0  0  0  0  0
    5.8085   -1.2170    1.2654 C   0  0  0  0  0  0  0  0  0  0  0  0
    4.4474   -1.4383    1.0346 C   0  0  0  0  0  0  0  0  0  0  0  0
   -0.6652   -1.1069   -3.2112 H   0  0  0  0  0  0  0  0  0  0  0  0
   -0.0294   -2.4712   -4.1787 H   0  0  0  0  0  0  0  0  0  0  0  0
    1.1415   -1.3996   -3.3617 H   0  0  0  0  0  0  0  0  0  0  0  0
    1.3655    1.0748    1.8888 H   0  0  0  0  0  0  0  0  0  0  0  0
   -1.4179    1.6560    1.6636 H   0  0  0  0  0  0  0  0  0  0  0  0
   -4.5428   -1.3525    0.0580 H   0  0  0  0  0  0  0  0  0  0  0  0
   -6.8300   -0.5473   -0.4370 H   0  0  0  0  0  0  0  0  0  0  0  0
   -7.2461    1.8673   -0.8191 H   0  0  0  0  0  0  0  0  0  0  0  0
   -5.3756    3.4873   -0.6719 H   0  0  0  0  0  0  0  0  0  0  0  0
   -3.0981    2.7079   -0.1236 H   0  0  0  0  0  0  0  0  0  0  0  0
    3.3971    1.8110    1.0251 H   0  0  0  0  0  0  0  0  0  0  0  0
    5.8005    2.1824    1.3895 H   0  0  0  0  0  0  0  0  0  0  0  0
    7.3522    0.2568    1.5537 H   0  0  0  0  0  0  0  0  0  0  0  0
    6.4871   -2.0566    1.3340 H   0  0  0  0  0  0  0  0  0  0  0  0
    4.0840   -2.4527    0.9263 H   0  0  0  0  0  0  0  0  0  0  0  0
  1 24  1  0  0  0  0
  1 25  1  0  0  0  0
  1 26  1  0  0  0  0
  2  1  1  0  0  0  0
  3  2  1  0  0  0  0
  4  3  2  0  0  0  0
  5  4  1  0  0  0  0
  6  5  2  0  0  0  0
  6 27  1  0  0  0  0
  7  6  1  0  0  0  0
  8  7  2  0  0  0  0
  8 28  1  0  0  0  0
  9  8  1  0  0  0  0
 10  9  2  0  0  0  0
 11 10  1  0  0  0  0
 11  3  1  0  0  0  0
 11  7  1  0  0  0  0
 12  9  1  0  0  0  0
 13 12  2  0  0  0  0
 13 29  1  0  0  0  0
 14 13  1  0  0  0  0
 14 30  1  0  0  0  0
 15 14  2  0  0  0  0
 15 31  1  0  0  0  0
 16 15  1  0  0  0  0
 16 32  1  0  0  0  0
 17 16  2  0  0  0  0
 17 12  1  0  0  0  0
 17 33  1  0  0  0  0
 18  5  1  0  0  0  0
 19 18  2  0  0  0  0
 19 34  1  0  0  0  0
 20 19  1  0  0  0  0
 20 35  1  0  0  0  0
 21 20  2  0  0  0  0
 21 36  1  0  0  0  0
 22 21  1  0  0  0  0
 22 37  1  0  0  0  0
 23 22  2  0  0  0  0
 23 18  1  0  0  0  0
 23 38  1  0  0  0  0
M  END
>  <MOL Chiral Flag>
0

>  <energy>
122.43721324895037

$$$$
> 38_AKC_molecules21060802
>38.sdf
 OpenBabel10052218043D

 48 50  0  0  0  0  0  0  0  0999 V2000
   -3.9701    3.3394   -0.3257 C   0  0  0  0  0  0  0  0  0  0  0  0
   -4.5999    2.2037    0.1439 O   0  0  0  0  0  0  0  0  0  0  0  0
   -4.0458    0.9610    0.2073 C   0  0  0  0  0  0  0  0  0  0  0  0
   -2.7333    0.7152   -0.2360 C   0  0  0  0  0  0  0  0  0  0  0  0
   -2.1627   -0.5603   -0.1188 C   0  0  0  0  0  0  0  0  0  0  0  0
   -2.9314   -1.6056    0.4090 C   0  0  0  0  0  0  0  0  0  0  0  0
   -4.2525   -1.3877    0.8513 C   0  0  0  0  0  0  0  0  0  0  0  0
   -4.9909   -2.4059    1.3710 O   0  0  0  0  0  0  0  0  0  0  0  0
   -4.5999   -3.7271    1.4579 C   0  0  0  0  0  0  0  0  0  0  0  0
   -4.8065   -0.0803    0.7652 C   0  0  0  0  0  0  0  0  0  0  0  0
   -6.0509    0.2381    1.2263 O   0  0  0  0  0  0  0  0  0  0  0  0
   -6.8995   -0.5574    1.9678 C   0  0  0  0  0  0  0  0  0  0  0  0
   -0.7737   -0.7835   -0.4420 N   0  0  0  0  0  0  0  0  0  0  0  0
    0.1153    0.1020   -0.9338 C   0  0  0  0  0  0  0  0  0  0  0  0
    1.3506   -0.5009   -0.8628 C   0  0  0  0  0  0  0  0  0  0  0  0
    1.1787   -1.7399   -0.3603 N   0  0  0  0  0  0  0  0  0  0  0  0
   -0.1162   -1.8904   -0.1251 N   0  0  0  0  0  0  0  0  0  0  0  0
    2.6607    0.1303   -1.1194 C   0  0  0  0  0  0  0  0  0  0  0  0
    3.8066   -0.4015   -0.5151 C   0  0  0  0  0  0  0  0  0  0  0  0
    5.0578    0.2392   -0.6411 C   0  0  0  0  0  0  0  0  0  0  0  0
    6.1548   -0.2408    0.0053 O   0  0  0  0  0  0  0  0  0  0  0  0
    6.1610   -1.2806    0.9144 C   0  0  0  0  0  0  0  0  0  0  0  0
    5.1536    1.4184   -1.4318 C   0  0  0  0  0  0  0  0  0  0  0  0
    6.3087    2.1224   -1.6028 O   0  0  0  0  0  0  0  0  0  0  0  0
    7.5253    1.8916   -0.9954 C   0  0  0  0  0  0  0  0  0  0  0  0
    4.0029    1.9174   -2.0558 C   0  0  0  0  0  0  0  0  0  0  0  0
    2.7665    1.2944   -1.8901 C   0  0  0  0  0  0  0  0  0  0  0  0
   -3.0661    3.5583    0.2829 H   0  0  0  0  0  0  0  0  0  0  0  0
   -4.6644    4.1999   -0.2406 H   0  0  0  0  0  0  0  0  0  0  0  0
   -3.6925    3.2133   -1.3938 H   0  0  0  0  0  0  0  0  0  0  0  0
   -2.1475    1.5277   -0.6316 H   0  0  0  0  0  0  0  0  0  0  0  0
   -2.4854   -2.5861    0.4968 H   0  0  0  0  0  0  0  0  0  0  0  0
   -3.6954   -3.8243    2.0950 H   0  0  0  0  0  0  0  0  0  0  0  0
   -5.4186   -4.3155    1.9200 H   0  0  0  0  0  0  0  0  0  0  0  0
   -4.4034   -4.1354    0.4432 H   0  0  0  0  0  0  0  0  0  0  0  0
   -7.2280   -1.4392    1.3808 H   0  0  0  0  0  0  0  0  0  0  0  0
   -6.4031   -0.8674    2.9135 H   0  0  0  0  0  0  0  0  0  0  0  0
   -7.8006    0.0320    2.2330 H   0  0  0  0  0  0  0  0  0  0  0  0
   -0.0921    1.1191   -1.2322 H   0  0  0  0  0  0  0  0  0  0  0  0
    3.7092   -1.2891    0.0948 H   0  0  0  0  0  0  0  0  0  0  0  0
    5.4980   -1.0393    1.7742 H   0  0  0  0  0  0  0  0  0  0  0  0
    5.8338   -2.2247    0.4305 H   0  0  0  0  0  0  0  0  0  0  0  0
    7.1916   -1.4190    1.2992 H   0  0  0  0  0  0  0  0  0  0  0  0
    8.2459    2.6642   -1.3324 H   0  0  0  0  0  0  0  0  0  0  0  0
    7.4241    1.9751    0.1084 H   0  0  0  0  0  0  0  0  0  0  0  0
    7.9261    0.8980   -1.2851 H   0  0  0  0  0  0  0  0  0  0  0  0
    4.0653    2.8172   -2.6555 H   0  0  0  0  0  0  0  0  0  0  0  0
    1.8940    1.7242   -2.3648 H   0  0  0  0  0  0  0  0  0  0  0  0
  1 28  1  0  0  0  0
  1 29  1  0  0  0  0
  1 30  1  0  0  0  0
  2  1  1  0  0  0  0
  3  2  1  0  0  0  0
  4  3  2  0  0  0  0
  4 31  1  0  0  0  0
  5  4  1  0  0  0  0
  6  5  2  0  0  0  0
  6 32  1  0  0  0  0
  7  6  1  0  0  0  0
  8  7  1  0  0  0  0
  9  8  1  0  0  0  0
  9 33  1  0  0  0  0
  9 34  1  0  0  0  0
  9 35  1  0  0  0  0
 10  7  2  0  0  0  0
 10  3  1  0  0  0  0
 11 10  1  0  0  0  0
 12 11  1  0  0  0  0
 12 36  1  0  0  0  0
 12 37  1  0  0  0  0
 12 38  1  0  0  0  0
 13  5  1  0  0  0  0
 14 13  1  0  0  0  0
 14 39  1  0  0  0  0
 15 14  2  0  0  0  0
 16 15  1  0  0  0  0
 17 16  2  0  0  0  0
 17 13  1  0  0  0  0
 18 15  1  0  0  0  0
 19 18  2  0  0  0  0
 19 40  1  0  0  0  0
 20 19  1  0  0  0  0
 21 20  1  0  0  0  0
 22 21  1  0  0  0  0
 22 41  1  0  0  0  0
 22 42  1  0  0  0  0
 22 43  1  0  0  0  0
 23 20  2  0  0  0  0
 24 23  1  0  0  0  0
 25 24  1  0  0  0  0
 25 44  1  0  0  0  0
 25 45  1  0  0  0  0
 25 46  1  0  0  0  0
 26 23  1  0  0  0  0
 26 47  1  0  0  0  0
 27 26  2  0  0  0  0
 27 18  1  0  0  0  0
 27 48  1  0  0  0  0
M  END
>  <MOL Chiral Flag>
0

>  <energy>
125.84864049628155

$$$$
> 39_AKC_molecules21060802
>39.sdf
 OpenBabel10052218043D

 43 46  0  0  0  0  0  0  0  0999 V2000
   -5.5940   -0.8295   -1.4486 C   0  0  0  0  0  0  0  0  0  0  0  0
   -4.2475   -1.1076   -1.3629 O   0  0  0  0  0  0  0  0  0  0  0  0
   -3.3600   -0.3223   -0.7069 C   0  0  0  0  0  0  0  0  0  0  0  0
   -2.2063    0.0656   -1.3866 C   0  0  0  0  0  0  0  0  0  0  0  0
   -1.2152    0.7981   -0.7329 C   0  0  0  0  0  0  0  0  0  0  0  0
   -1.4167    1.2216    0.5861 C   0  0  0  0  0  0  0  0  0  0  0  0
   -2.5735    0.8841    1.2733 C   0  0  0  0  0  0  0  0  0  0  0  0
   -2.7119    1.3460    2.5404 O   0  0  0  0  0  0  0  0  0  0  0  0
   -3.8503    1.9859    2.9882 C   0  0  0  0  0  0  0  0  0  0  0  0
   -3.5305    0.0514    0.6488 C   0  0  0  0  0  0  0  0  0  0  0  0
   -4.5259   -0.4912    1.3779 O   0  0  0  0  0  0  0  0  0  0  0  0
   -4.2516   -1.6227    2.1316 C   0  0  0  0  0  0  0  0  0  0  0  0
    0.0570    0.9806   -1.3545 N   0  0  0  0  0  0  0  0  0  0  0  0
    1.2102    0.9204   -0.6839 C   0  0  0  0  0  0  0  0  0  0  0  0
    2.2034    0.8158   -1.6167 C   0  0  0  0  0  0  0  0  0  0  0  0
    1.6355    0.8702   -2.8411 N   0  0  0  0  0  0  0  0  0  0  0  0
    0.3229    0.9425   -2.6523 N   0  0  0  0  0  0  0  0  0  0  0  0
    3.5965    0.4354   -1.3389 C   0  0  0  0  0  0  0  0  0  0  0  0
    3.9141   -0.1464   -0.0856 C   0  0  0  0  0  0  0  0  0  0  0  0
    5.1954   -0.6274    0.1062 C   0  0  0  0  0  0  0  0  0  0  0  0
    6.1407   -0.5356   -0.8317 C   0  0  0  0  0  0  0  0  0  0  0  0
    7.2579   -1.1054   -0.3801 O   0  0  0  0  0  0  0  0  0  0  0  0
    7.0087   -1.6081    0.9036 C   0  0  0  0  0  0  0  0  0  0  0  0
    5.6824   -1.2622    1.1698 O   0  0  0  0  0  0  0  0  0  0  0  0
    5.8994    0.0525   -2.0729 C   0  0  0  0  0  0  0  0  0  0  0  0
    4.5995    0.5323   -2.3356 C   0  0  0  0  0  0  0  0  0  0  0  0
   -5.7304    0.1321   -1.9890 H   0  0  0  0  0  0  0  0  0  0  0  0
   -6.0874   -1.6303   -2.0361 H   0  0  0  0  0  0  0  0  0  0  0  0
   -6.0758   -0.7707   -0.4547 H   0  0  0  0  0  0  0  0  0  0  0  0
   -2.0490   -0.2771   -2.4016 H   0  0  0  0  0  0  0  0  0  0  0  0
   -0.6607    1.8075    1.0936 H   0  0  0  0  0  0  0  0  0  0  0  0
   -4.0491    2.8739    2.3469 H   0  0  0  0  0  0  0  0  0  0  0  0
   -3.6796    2.3476    4.0226 H   0  0  0  0  0  0  0  0  0  0  0  0
   -4.7338    1.3207    2.9841 H   0  0  0  0  0  0  0  0  0  0  0  0
   -5.1521   -1.9506    2.6858 H   0  0  0  0  0  0  0  0  0  0  0  0
   -3.4344   -1.4222    2.8620 H   0  0  0  0  0  0  0  0  0  0  0  0
   -3.9191   -2.4544    1.4683 H   0  0  0  0  0  0  0  0  0  0  0  0
    1.3001    0.8356    0.3900 H   0  0  0  0  0  0  0  0  0  0  0  0
    3.1785   -0.2798    0.6954 H   0  0  0  0  0  0  0  0  0  0  0  0
    7.6818   -1.1363    1.6477 H   0  0  0  0  0  0  0  0  0  0  0  0
    7.1239   -2.7139    0.9149 H   0  0  0  0  0  0  0  0  0  0  0  0
    6.6763    0.1118   -2.8220 H   0  0  0  0  0  0  0  0  0  0  0  0
    4.3706    0.9619   -3.3027 H   0  0  0  0  0  0  0  0  0  0  0  0
  1 27  1  0  0  0  0
  1 28  1  0  0  0  0
  1 29  1  0  0  0  0
  2  1  1  0  0  0  0
  3  2  1  0  0  0  0
  4  3  2  0  0  0  0
  4 30  1  0  0  0  0
  5  4  1  0  0  0  0
  6  5  2  0  0  0  0
  6 31  1  0  0  0  0
  7  6  1  0  0  0  0
  8  7  1  0  0  0  0
  9  8  1  0  0  0  0
  9 32  1  0  0  0  0
  9 33  1  0  0  0  0
  9 34  1  0  0  0  0
 10  7  2  0  0  0  0
 10  3  1  0  0  0  0
 11 10  1  0  0  0  0
 12 11  1  0  0  0  0
 12 35  1  0  0  0  0
 12 36  1  0  0  0  0
 12 37  1  0  0  0  0
 13  5  1  0  0  0  0
 14 13  1  0  0  0  0
 14 38  1  0  0  0  0
 15 14  2  0  0  0  0
 16 15  1  0  0  0  0
 17 16  2  0  0  0  0
 17 13  1  0  0  0  0
 18 15  1  0  0  0  0
 19 18  2  0  0  0  0
 19 39  1  0  0  0  0
 20 19  1  0  0  0  0
 21 20  2  0  0  0  0
 22 21  1  0  0  0  0
 23 22  1  0  0  0  0
 23 40  1  0  0  0  0
 23 41  1  0  0  0  0
 24 23  1  0  0  0  0
 24 20  1  0  0  0  0
 25 21  1  0  0  0  0
 25 42  1  0  0  0  0
 26 25  2  0  0  0  0
 26 18  1  0  0  0  0
 26 43  1  0  0  0  0
M  END
>  <MOL Chiral Flag>
0

>  <energy>
98.446378576109055

$$$$
> 40_AKC_j.ejmech.2017.09.045
>40.sdf
 OpenBabel10052218063D

126134  0  0  0  0  0  0  0  0999 V2000
    0.6519   -6.9756    1.5418 C   0  0  0  0  0  0  0  0  0  0  0  0
    1.0549   -6.1687    2.7952 C   0  0  0  0  0  0  0  0  0  0  0  0
    0.7228   -7.0189    4.0411 C   0  0  0  0  0  0  0  0  0  0  0  0
    2.5751   -5.8279    2.8155 C   0  0  0  0  0  0  0  0  0  0  0  0
    2.9876   -4.9038    1.6573 C   0  0  0  0  0  0  0  0  0  0  0  0
    2.2002   -3.5630    1.6469 C   0  0  1  0  0  0  0  0  0  0  0  0
    2.5535   -2.8252    0.3215 C   0  0  0  0  0  0  0  0  0  0  0  0
    1.4908   -1.7817   -0.0266 C   0  0  0  0  0  0  0  0  0  0  0  0
    0.1347   -2.4704   -0.4384 C   0  0  1  0  0  0  0  0  0  0  0  0
    0.3700   -3.0798   -1.8747 C   0  0  0  0  0  0  0  0  0  0  0  0
   -0.2182   -3.6245    0.4969 C   0  0  0  0  0  0  0  0  0  0  0  0
   -1.4261   -4.2278    0.3444 C   0  0  0  0  0  0  0  0  0  0  0  0
   -2.5286   -3.6544   -0.5624 C   0  0  0  0  0  0  0  0  0  0  0  0
   -2.3336   -2.1608   -1.0706 C   0  0  1  0  0  0  0  0  0  0  0  0
   -3.6491   -1.2580   -1.2296 C   0  0  2  0  0  0  0  0  0  0  0  0
   -4.3766   -1.1191    0.1546 C   0  0  0  0  0  0  0  0  0  0  0  0
   -4.6426   -1.9286   -2.2305 C   0  0  0  0  0  0  0  0  0  0  0  0
   -5.8551   -1.0210   -2.5866 C   0  0  0  0  0  0  0  0  0  0  0  0
   -5.4143    0.3542   -3.1584 C   0  0  1  0  0  0  0  0  0  0  0  0
   -6.5279    1.1364   -3.5167 O   0  0  0  0  0  0  0  0  0  0  0  0
   -4.4177    1.1369   -2.2345 C   0  0  2  0  0  0  0  0  0  0  0  0
   -5.1303    1.6722   -0.9538 C   0  0  0  0  0  0  0  0  0  0  0  0
   -3.8799    2.3897   -3.0324 C   0  0  0  0  0  0  0  0  0  0  0  0
   -4.8359    3.4431   -3.0952 O   0  0  0  0  0  0  0  0  0  0  0  0
   -4.2196    4.6919   -3.4035 C   0  0  0  0  0  0  0  0  0  0  0  0
   -3.3886    5.2961   -2.2793 C   0  0  0  0  0  0  0  0  0  0  0  0
   -3.1438    4.7934   -1.0175 C   0  0  0  0  0  0  0  0  0  0  0  0
   -2.2887    5.6346   -0.4204 N   0  0  0  0  0  0  0  0  0  0  0  0
   -1.7046    5.4602    0.9133 C   0  0  0  0  0  0  0  0  0  0  0  0
   -0.2008    5.3103    0.8281 C   0  0  0  0  0  0  0  0  0  0  0  0
    0.5884    6.3949    0.4072 C   0  0  0  0  0  0  0  0  0  0  0  0
    1.9787    6.2698    0.3274 C   0  0  0  0  0  0  0  0  0  0  0  0
    2.5950    5.0627    0.6630 C   0  0  0  0  0  0  0  0  0  0  0  0
    1.8232    3.9773    1.0838 C   0  0  0  0  0  0  0  0  0  0  0  0
    0.4309    4.0947    1.1718 C   0  0  0  0  0  0  0  0  0  0  0  0
   -0.2963    3.0233    1.5799 F   0  0  0  0  0  0  0  0  0  0  0  0
   -2.0358    6.6301   -1.2548 N   0  0  0  0  0  0  0  0  0  0  0  0
   -2.6948    6.4487   -2.3949 N   0  0  0  0  0  0  0  0  0  0  0  0
   -3.2209    0.1283   -1.9098 C   0  0  1  0  0  0  0  0  0  0  0  0
   -2.0083    0.7853   -1.1777 C   0  0  0  0  0  0  0  0  0  0  0  0
   -0.8005   -0.1547   -1.1234 C   0  0  0  0  0  0  0  0  0  0  0  0
   -1.1023   -1.4599   -0.3635 C   0  0  2  0  0  0  0  0  0  0  0  0
   -1.3696   -1.0907    1.1445 C   0  0  0  0  0  0  0  0  0  0  0  0
    0.6453   -3.8331    1.7583 C   0  0  1  0  0  0  0  0  0  0  0  0
    0.2668   -4.8481    2.8726 C   0  0  0  0  0  0  0  0  0  0  0  0
    2.6706   -2.6482    2.8014 C   0  0  0  0  0  0  0  0  0  0  0  0
    1.8986   -2.2917    3.6828 O   0  0  0  0  0  0  0  0  0  0  0  0
    3.9273   -2.1328    2.7629 O   0  0  0  0  0  0  0  0  0  0  0  0
    4.3215   -0.9860    3.4334 C   0  0  0  0  0  0  0  0  0  0  0  0
    5.4290   -1.3161    4.3641 C   0  0  0  0  0  0  0  0  0  0  0  0
    6.6172   -1.9096    4.0308 C   0  0  0  0  0  0  0  0  0  0  0  0
    7.3025   -2.0518    5.1744 N   0  0  0  0  0  0  0  0  0  0  0  0
    8.6039   -2.6887    5.3236 C   0  0  0  0  0  0  0  0  0  0  0  0
    8.4966   -4.1207    4.8656 C   0  0  0  0  0  0  0  0  0  0  0  0
    9.2415   -4.5724    3.7637 C   0  0  0  0  0  0  0  0  0  0  0  0
    9.1121   -5.8928    3.3224 C   0  0  0  0  0  0  0  0  0  0  0  0
    8.2423   -6.7693    3.9769 C   0  0  0  0  0  0  0  0  0  0  0  0
    7.5005   -6.3287    5.0755 C   0  0  0  0  0  0  0  0  0  0  0  0
    7.6239   -5.0100    5.5218 C   0  0  0  0  0  0  0  0  0  0  0  0
    6.8900   -4.5956    6.5859 F   0  0  0  0  0  0  0  0  0  0  0  0
    6.5772   -1.5546    6.1645 N   0  0  0  0  0  0  0  0  0  0  0  0
    5.4236   -1.0980    5.6949 N   0  0  0  0  0  0  0  0  0  0  0  0
    1.2308   -7.9227    1.4915 H   0  0  0  0  0  0  0  0  0  0  0  0
    0.8198   -6.4120    0.6034 H   0  0  0  0  0  0  0  0  0  0  0  0
   -0.4291   -7.2307    1.5804 H   0  0  0  0  0  0  0  0  0  0  0  0
   -0.3629   -7.2557    4.0786 H   0  0  0  0  0  0  0  0  0  0  0  0
    1.2900   -7.9740    4.0308 H   0  0  0  0  0  0  0  0  0  0  0  0
    0.9846   -6.4740    4.9748 H   0  0  0  0  0  0  0  0  0  0  0  0
    3.1736   -6.7637    2.7673 H   0  0  0  0  0  0  0  0  0  0  0  0
    2.8312   -5.3182    3.7717 H   0  0  0  0  0  0  0  0  0  0  0  0
    2.8059   -5.4576    0.7138 H   0  0  0  0  0  0  0  0  0  0  0  0
    4.0813   -4.7055    1.7017 H   0  0  0  0  0  0  0  0  0  0  0  0
    3.5627   -2.3641    0.3808 H   0  0  0  0  0  0  0  0  0  0  0  0
    2.6503   -3.5409   -0.5096 H   0  0  0  0  0  0  0  0  0  0  0  0
    1.8466   -1.1450   -0.8660 H   0  0  0  0  0  0  0  0  0  0  0  0
    1.4170   -1.1205    0.8536 H   0  0  0  0  0  0  0  0  0  0  0  0
   -0.4750   -3.6791   -2.2605 H   0  0  0  0  0  0  0  0  0  0  0  0
    0.6067   -2.2914   -2.6174 H   0  0  0  0  0  0  0  0  0  0  0  0
    1.1875   -3.8185   -1.9158 H   0  0  0  0  0  0  0  0  0  0  0  0
   -1.7296   -5.0203    1.0143 H   0  0  0  0  0  0  0  0  0  0  0  0
   -3.3856   -3.6783    0.1208 H   0  0  0  0  0  0  0  0  0  0  0  0
   -2.8268   -4.3459   -1.3788 H   0  0  0  0  0  0  0  0  0  0  0  0
   -2.0058   -2.2722   -2.1218 H   0  0  0  0  0  0  0  0  0  0  0  0
   -3.9914   -0.3157    0.7883 H   0  0  0  0  0  0  0  0  0  0  0  0
   -5.4490   -0.9310    0.0854 H   0  0  0  0  0  0  0  0  0  0  0  0
   -4.4111   -2.0442    0.7453 H   0  0  0  0  0  0  0  0  0  0  0  0
   -4.1076   -2.1437   -3.1823 H   0  0  0  0  0  0  0  0  0  0  0  0
   -5.0081   -2.8993   -1.8315 H   0  0  0  0  0  0  0  0  0  0  0  0
   -6.5162   -0.8709   -1.7147 H   0  0  0  0  0  0  0  0  0  0  0  0
   -6.4757   -1.5433   -3.3467 H   0  0  0  0  0  0  0  0  0  0  0  0
   -4.8741    0.1129   -4.1011 H   0  0  0  0  0  0  0  0  0  0  0  0
   -7.1320    1.1871   -2.7313 H   0  0  0  0  0  0  0  0  0  0  0  0
   -5.7935    0.9608   -0.4664 H   0  0  0  0  0  0  0  0  0  0  0  0
   -5.8349    2.4963   -1.1829 H   0  0  0  0  0  0  0  0  0  0  0  0
   -4.4117    2.0276   -0.1974 H   0  0  0  0  0  0  0  0  0  0  0  0
   -2.9973    2.7807   -2.5326 H   0  0  0  0  0  0  0  0  0  0  0  0
   -3.5517    2.0909   -4.0522 H   0  0  0  0  0  0  0  0  0  0  0  0
   -5.0220    5.4153   -3.6569 H   0  0  0  0  0  0  0  0  0  0  0  0
   -3.5895    4.5900   -4.3150 H   0  0  0  0  0  0  0  0  0  0  0  0
   -3.5119    3.8940   -0.5738 H   0  0  0  0  0  0  0  0  0  0  0  0
   -1.9652    6.3201    1.5658 H   0  0  0  0  0  0  0  0  0  0  0  0
   -2.1469    4.5517    1.3778 H   0  0  0  0  0  0  0  0  0  0  0  0
    0.1270    7.3389    0.1487 H   0  0  0  0  0  0  0  0  0  0  0  0
    2.5788    7.1109    0.0053 H   0  0  0  0  0  0  0  0  0  0  0  0
    3.6716    4.9687    0.5979 H   0  0  0  0  0  0  0  0  0  0  0  0
    2.3058    3.0428    1.3421 H   0  0  0  0  0  0  0  0  0  0  0  0
   -2.8002   -0.1422   -2.9072 H   0  0  0  0  0  0  0  0  0  0  0  0
   -1.5909    1.6442   -1.7233 H   0  0  0  0  0  0  0  0  0  0  0  0
   -2.2985    1.1630   -0.1833 H   0  0  0  0  0  0  0  0  0  0  0  0
   -0.5035   -0.3809   -2.1701 H   0  0  0  0  0  0  0  0  0  0  0  0
    0.0451    0.3880   -0.6480 H   0  0  0  0  0  0  0  0  0  0  0  0
   -2.0647   -0.2762    1.3244 H   0  0  0  0  0  0  0  0  0  0  0  0
   -0.4683   -0.7011    1.6463 H   0  0  0  0  0  0  0  0  0  0  0  0
   -1.7535   -1.9484    1.7300 H   0  0  0  0  0  0  0  0  0  0  0  0
    0.2547   -2.9023    2.2051 H   0  0  0  0  0  0  0  0  0  0  0  0
   -0.8271   -5.0044    2.9545 H   0  0  0  0  0  0  0  0  0  0  0  0
    0.5501   -4.3850    3.8441 H   0  0  0  0  0  0  0  0  0  0  0  0
    3.4883   -0.5081    3.9943 H   0  0  0  0  0  0  0  0  0  0  0  0
    4.6884   -0.2516    2.6856 H   0  0  0  0  0  0  0  0  0  0  0  0
    6.9473   -2.2323    3.0514 H   0  0  0  0  0  0  0  0  0  0  0  0
    8.9278   -2.6617    6.3862 H   0  0  0  0  0  0  0  0  0  0  0  0
    9.3484   -2.1252    4.7199 H   0  0  0  0  0  0  0  0  0  0  0  0
    9.9116   -3.9008    3.2417 H   0  0  0  0  0  0  0  0  0  0  0  0
    9.6829   -6.2354    2.4693 H   0  0  0  0  0  0  0  0  0  0  0  0
    8.1411   -7.7897    3.6315 H   0  0  0  0  0  0  0  0  0  0  0  0
    6.8256   -7.0085    5.5794 H   0  0  0  0  0  0  0  0  0  0  0  0
  1 63  1  0  0  0  0
  1 64  1  0  0  0  0
  1 65  1  0  0  0  0
  2  1  1  0  0  0  0
  3  2  1  0  0  0  0
  3 66  1  0  0  0  0
  3 67  1  0  0  0  0
  3 68  1  0  0  0  0
  4  2  1  0  0  0  0
  4 69  1  0  0  0  0
  4 70  1  0  0  0  0
  5  4  1  0  0  0  0
  5 71  1  0  0  0  0
  5 72  1  0  0  0  0
  6  5  1  0  0  0  0
  6 46  1  1  0  0  0
  7  6  1  0  0  0  0
  7 73  1  0  0  0  0
  7 74  1  0  0  0  0
  8  7  1  0  0  0  0
  8 75  1  0  0  0  0
  8 76  1  0  0  0  0
  9  8  1  0  0  0  0
  9 10  1  6  0  0  0
 10 77  1  0  0  0  0
 10 78  1  0  0  0  0
 10 79  1  0  0  0  0
 11  9  1  0  0  0  0
 12 11  2  0  0  0  0
 12 80  1  0  0  0  0
 13 12  1  0  0  0  0
 13 81  1  0  0  0  0
 13 82  1  0  0  0  0
 14 13  1  0  0  0  0
 14 83  1  6  0  0  0
 15 14  1  0  0  0  0
 15 16  1  1  0  0  0
 16 84  1  0  0  0  0
 16 85  1  0  0  0  0
 16 86  1  0  0  0  0
 17 15  1  0  0  0  0
 17 87  1  0  0  0  0
 17 88  1  0  0  0  0
 18 17  1  0  0  0  0
 18 89  1  0  0  0  0
 18 90  1  0  0  0  0
 19 18  1  0  0  0  0
 19 91  1  6  0  0  0
 20 19  1  0  0  0  0
 20 92  1  0  0  0  0
 21 19  1  0  0  0  0
 21 22  1  1  0  0  0
 22 93  1  0  0  0  0
 22 94  1  0  0  0  0
 22 95  1  0  0  0  0
 23 21  1  0  0  0  0
 23 96  1  0  0  0  0
 23 97  1  0  0  0  0
 24 23  1  0  0  0  0
 25 24  1  0  0  0  0
 25 98  1  0  0  0  0
 25 99  1  0  0  0  0
 26 25  1  0  0  0  0
 27 26  2  0  0  0  0
 27100  1  0  0  0  0
 28 27  1  0  0  0  0
 29 28  1  0  0  0  0
 29101  1  0  0  0  0
 29102  1  0  0  0  0
 30 29  1  0  0  0  0
 31 30  2  0  0  0  0
 31103  1  0  0  0  0
 32 31  1  0  0  0  0
 32104  1  0  0  0  0
 33 32  2  0  0  0  0
 33105  1  0  0  0  0
 34 33  1  0  0  0  0
 34106  1  0  0  0  0
 35 34  2  0  0  0  0
 35 30  1  0  0  0  0
 36 35  1  0  0  0  0
 37 28  1  0  0  0  0
 38 37  2  0  0  0  0
 38 26  1  0  0  0  0
 39 21  1  0  0  0  0
 39 15  1  0  0  0  0
 39107  1  6  0  0  0
 40 39  1  0  0  0  0
 40108  1  0  0  0  0
 40109  1  0  0  0  0
 41 40  1  0  0  0  0
 41110  1  0  0  0  0
 41111  1  0  0  0  0
 42 41  1  0  0  0  0
 42  9  1  0  0  0  0
 42 14  1  0  0  0  0
 42 43  1  1  0  0  0
 43112  1  0  0  0  0
 43113  1  0  0  0  0
 43114  1  0  0  0  0
 44 11  1  0  0  0  0
 44  6  1  0  0  0  0
 44115  1  1  0  0  0
 45 44  1  0  0  0  0
 45  2  1  0  0  0  0
 45116  1  0  0  0  0
 45117  1  0  0  0  0
 47 46  2  0  0  0  0
 48 46  1  0  0  0  0
 49 48  1  0  0  0  0
 49118  1  0  0  0  0
 49119  1  0  0  0  0
 50 49  1  0  0  0  0
 51 50  2  0  0  0  0
 51120  1  0  0  0  0
 52 51  1  0  0  0  0
 53 52  1  0  0  0  0
 53121  1  0  0  0  0
 53122  1  0  0  0  0
 54 53  1  0  0  0  0
 55 54  2  0  0  0  0
 55123  1  0  0  0  0
 56 55  1  0  0  0  0
 56124  1  0  0  0  0
 57 56  2  0  0  0  0
 57125  1  0  0  0  0
 58 57  1  0  0  0  0
 58126  1  0  0  0  0
 59 58  2  0  0  0  0
 59 54  1  0  0  0  0
 60 59  1  0  0  0  0
 61 52  1  0  0  0  0
 62 61  2  0  0  0  0
 62 50  1  0  0  0  0
M  END
>  <MOL Chiral Flag>
0

>  <energy>
322.21641207490848

$$$$
> 41_AKC_j.actatropica.2010.10.011
>41.sdf
 OpenBabel10052218063D

 46 49  0  0  0  0  0  0  0  0999 V2000
    4.9370    1.7624   -4.2936 Cl  0  0  0  0  0  0  0  0  0  0  0  0
    4.5862    1.6391   -2.5794 C   0  0  0  0  0  0  0  0  0  0  0  0
    3.3494    2.0687   -2.0864 C   0  0  0  0  0  0  0  0  0  0  0  0
    3.0716    1.9914   -0.7126 C   0  0  0  0  0  0  0  0  0  0  0  0
    1.7466    2.4726   -0.1904 C   0  0  0  0  0  0  0  0  0  0  0  0
    0.7299    1.6530   -0.6243 O   0  0  0  0  0  0  0  0  0  0  0  0
    0.6295    0.4314   -0.1389 N   0  0  0  0  0  0  0  0  0  0  0  0
   -0.3993   -0.3187   -0.3510 C   0  0  0  0  0  0  0  0  0  0  0  0
   -1.5679    0.1687   -1.2027 C   0  0  2  0  0  0  0  0  0  0  0  0
   -2.3198    1.3907   -0.6059 C   0  0  0  0  0  0  0  0  0  0  0  0
   -2.7679    1.2210    0.7787 N   0  0  0  0  0  0  0  0  0  0  0  0
   -1.9972    1.1345    1.8771 C   0  0  0  0  0  0  0  0  0  0  0  0
   -2.8221    1.0354    2.9719 C   0  0  0  0  0  0  0  0  0  0  0  0
   -4.1062    1.0640    2.5590 N   0  0  0  0  0  0  0  0  0  0  0  0
   -4.0417    1.1843    1.2161 C   0  0  0  0  0  0  0  0  0  0  0  0
   -2.4974   -1.0064   -1.5680 C   0  0  0  0  0  0  0  0  0  0  0  0
   -2.9006   -1.8607   -0.3724 C   0  0  0  0  0  0  0  0  0  0  0  0
   -1.6730   -2.4041    0.3245 C   0  0  0  0  0  0  0  0  0  0  0  0
   -0.4680   -1.6537    0.3266 C   0  0  0  0  0  0  0  0  0  0  0  0
    0.6540   -2.1573    1.0134 C   0  0  0  0  0  0  0  0  0  0  0  0
    0.5891   -3.3824    1.6760 C   0  0  0  0  0  0  0  0  0  0  0  0
   -0.5931   -4.1187    1.6762 C   0  0  0  0  0  0  0  0  0  0  0  0
   -1.7253   -3.6392    1.0124 C   0  0  0  0  0  0  0  0  0  0  0  0
   -3.1968   -4.6068    1.0705 Cl  0  0  0  0  0  0  0  0  0  0  0  0
    4.0399    1.4710    0.1617 C   0  0  0  0  0  0  0  0  0  0  0  0
    5.2694    1.0293   -0.3366 C   0  0  0  0  0  0  0  0  0  0  0  0
    5.5444    1.1167   -1.7043 C   0  0  0  0  0  0  0  0  0  0  0  0
    2.6111    2.4758   -2.7669 H   0  0  0  0  0  0  0  0  0  0  0  0
    1.5734    3.5113   -0.5424 H   0  0  0  0  0  0  0  0  0  0  0  0
    1.7299    2.4915    0.9224 H   0  0  0  0  0  0  0  0  0  0  0  0
   -1.1739    0.5073   -2.1872 H   0  0  0  0  0  0  0  0  0  0  0  0
   -3.1903    1.6076   -1.2640 H   0  0  0  0  0  0  0  0  0  0  0  0
   -1.6731    2.2916   -0.6406 H   0  0  0  0  0  0  0  0  0  0  0  0
   -0.9168    1.1634    1.8906 H   0  0  0  0  0  0  0  0  0  0  0  0
   -2.5102    0.9625    4.0051 H   0  0  0  0  0  0  0  0  0  0  0  0
   -4.9103    1.2458    0.5737 H   0  0  0  0  0  0  0  0  0  0  0  0
   -1.9378   -1.6797   -2.2580 H   0  0  0  0  0  0  0  0  0  0  0  0
   -3.3906   -0.6450   -2.1221 H   0  0  0  0  0  0  0  0  0  0  0  0
   -3.5177   -2.6906   -0.7768 H   0  0  0  0  0  0  0  0  0  0  0  0
   -3.5238   -1.3027    0.3513 H   0  0  0  0  0  0  0  0  0  0  0  0
    1.5826   -1.6014    1.0385 H   0  0  0  0  0  0  0  0  0  0  0  0
    1.4586   -3.7596    2.1988 H   0  0  0  0  0  0  0  0  0  0  0  0
   -0.6325   -5.0649    2.2013 H   0  0  0  0  0  0  0  0  0  0  0  0
    3.8390    1.3989    1.2234 H   0  0  0  0  0  0  0  0  0  0  0  0
    6.0108    0.6215    0.3384 H   0  0  0  0  0  0  0  0  0  0  0  0
    6.5010    0.7804   -2.0833 H   0  0  0  0  0  0  0  0  0  0  0  0
  2  1  1  0  0  0  0
  3  2  2  0  0  0  0
  3 28  1  0  0  0  0
  4  3  1  0  0  0  0
  5  4  1  0  0  0  0
  5 29  1  0  0  0  0
  5 30  1  0  0  0  0
  6  5  1  0  0  0  0
  7  6  1  0  0  0  0
  8  7  2  0  0  0  0
  9  8  1  0  0  0  0
  9 31  1  6  0  0  0
 10  9  1  0  0  0  0
 10 32  1  0  0  0  0
 10 33  1  0  0  0  0
 11 10  1  0  0  0  0
 12 11  1  0  0  0  0
 12 34  1  0  0  0  0
 13 12  2  0  0  0  0
 13 35  1  0  0  0  0
 14 13  1  0  0  0  0
 15 14  2  0  0  0  0
 15 11  1  0  0  0  0
 15 36  1  0  0  0  0
 16  9  1  0  0  0  0
 16 37  1  0  0  0  0
 16 38  1  0  0  0  0
 17 16  1  0  0  0  0
 17 39  1  0  0  0  0
 17 40  1  0  0  0  0
 18 17  1  0  0  0  0
 19 18  2  0  0  0  0
 19  8  1  0  0  0  0
 20 19  1  0  0  0  0
 20 41  1  0  0  0  0
 21 20  2  0  0  0  0
 21 42  1  0  0  0  0
 22 21  1  0  0  0  0
 22 43  1  0  0  0  0
 23 22  2  0  0  0  0
 23 18  1  0  0  0  0
 24 23  1  0  0  0  0
 25  4  2  0  0  0  0
 25 44  1  0  0  0  0
 26 25  1  0  0  0  0
 26 45  1  0  0  0  0
 27 26  2  0  0  0  0
 27  2  1  0  0  0  0
 27 46  1  0  0  0  0
M  END
>  <MOL Chiral Flag>
0

>  <energy>
71.289401230086796

$$$$
> 42_AKC_s11030-019-09953-4
>42.sdf
 OpenBabel10052218063D

 42 44  0  0  0  0  0  0  0  0999 V2000
    4.7701    1.4211    3.2953 F   0  0  0  0  0  0  0  0  0  0  0  0
    5.0861    1.5780    1.9578 C   0  0  0  0  0  0  0  0  0  0  0  0
    6.2339    0.8585    1.6788 F   0  0  0  0  0  0  0  0  0  0  0  0
    5.3360    2.9183    1.7192 F   0  0  0  0  0  0  0  0  0  0  0  0
    3.9499    1.0597    1.1134 C   0  0  0  0  0  0  0  0  0  0  0  0
    3.5515   -0.2803    1.2466 C   0  0  0  0  0  0  0  0  0  0  0  0
    2.4981   -0.7817    0.4806 C   0  0  0  0  0  0  0  0  0  0  0  0
    1.8288    0.0476   -0.4245 C   0  0  0  0  0  0  0  0  0  0  0  0
    0.8261   -0.4598   -1.1687 O   0  0  0  0  0  0  0  0  0  0  0  0
   -0.5117   -0.3992   -0.8142 C   0  0  1  0  0  0  0  0  0  0  0  0
   -1.3636   -0.0936   -2.0665 C   0  0  0  0  0  0  0  0  0  0  0  0
   -1.6032    1.4204   -2.2061 C   0  0  0  0  0  0  0  0  0  0  0  0
   -2.5326    1.8603   -1.1582 N   0  0  0  0  0  0  0  0  0  0  0  0
   -2.2797    2.6701   -0.1155 C   0  0  0  0  0  0  0  0  0  0  0  0
   -3.4363    2.7850    0.6258 C   0  0  0  0  0  0  0  0  0  0  0  0
   -4.4094    2.0563    0.0404 N   0  0  0  0  0  0  0  0  0  0  0  0
   -3.8295    1.5045   -1.0438 C   0  0  0  0  0  0  0  0  0  0  0  0
   -0.9284   -1.6971   -0.1645 C   0  0  0  0  0  0  0  0  0  0  0  0
   -0.5643   -2.9425   -0.7037 C   0  0  0  0  0  0  0  0  0  0  0  0
   -0.9536   -4.1236   -0.0601 C   0  0  0  0  0  0  0  0  0  0  0  0
   -1.7219   -4.0684    1.1078 C   0  0  0  0  0  0  0  0  0  0  0  0
   -2.0968   -2.8342    1.6403 C   0  0  0  0  0  0  0  0  0  0  0  0
   -1.6964   -1.6546    1.0146 C   0  0  0  0  0  0  0  0  0  0  0  0
    2.2229    1.3814   -0.5729 C   0  0  0  0  0  0  0  0  0  0  0  0
    3.2783    1.8887    0.1931 C   0  0  0  0  0  0  0  0  0  0  0  0
    4.0583   -0.9350    1.9451 H   0  0  0  0  0  0  0  0  0  0  0  0
    2.2006   -1.8176    0.5878 H   0  0  0  0  0  0  0  0  0  0  0  0
   -0.6864    0.3955   -0.0543 H   0  0  0  0  0  0  0  0  0  0  0  0
   -2.3667   -0.5671   -1.9937 H   0  0  0  0  0  0  0  0  0  0  0  0
   -0.8698   -0.5264   -2.9638 H   0  0  0  0  0  0  0  0  0  0  0  0
   -0.6325    1.9579   -2.1371 H   0  0  0  0  0  0  0  0  0  0  0  0
   -2.0582    1.6534   -3.1925 H   0  0  0  0  0  0  0  0  0  0  0  0
   -1.3234    3.1264    0.1019 H   0  0  0  0  0  0  0  0  0  0  0  0
   -3.5678    3.3529    1.5369 H   0  0  0  0  0  0  0  0  0  0  0  0
   -4.3475    0.8536   -1.7382 H   0  0  0  0  0  0  0  0  0  0  0  0
    0.0337   -2.9966   -1.6046 H   0  0  0  0  0  0  0  0  0  0  0  0
   -0.6597   -5.0825   -0.4651 H   0  0  0  0  0  0  0  0  0  0  0  0
   -2.0273   -4.9814    1.6013 H   0  0  0  0  0  0  0  0  0  0  0  0
   -2.6969   -2.7886    2.5402 H   0  0  0  0  0  0  0  0  0  0  0  0
   -1.9969   -0.7044    1.4408 H   0  0  0  0  0  0  0  0  0  0  0  0
    1.7169    2.0220   -1.2834 H   0  0  0  0  0  0  0  0  0  0  0  0
    3.5692    2.9228    0.0638 H   0  0  0  0  0  0  0  0  0  0  0  0
  2  1  1  0  0  0  0
  3  2  1  0  0  0  0
  4  2  1  0  0  0  0
  5  2  1  0  0  0  0
  6  5  2  0  0  0  0
  6 26  1  0  0  0  0
  7  6  1  0  0  0  0
  7 27  1  0  0  0  0
  8  7  2  0  0  0  0
  9  8  1  0  0  0  0
 10  9  1  0  0  0  0
 10 28  1  1  0  0  0
 11 10  1  0  0  0  0
 11 29  1  0  0  0  0
 11 30  1  0  0  0  0
 12 11  1  0  0  0  0
 12 31  1  0  0  0  0
 12 32  1  0  0  0  0
 13 12  1  0  0  0  0
 14 13  1  0  0  0  0
 14 33  1  0  0  0  0
 15 14  2  0  0  0  0
 15 34  1  0  0  0  0
 16 15  1  0  0  0  0
 17 16  2  0  0  0  0
 17 13  1  0  0  0  0
 17 35  1  0  0  0  0
 18 10  1  0  0  0  0
 19 18  2  0  0  0  0
 19 36  1  0  0  0  0
 20 19  1  0  0  0  0
 20 37  1  0  0  0  0
 21 20  2  0  0  0  0
 21 38  1  0  0  0  0
 22 21  1  0  0  0  0
 22 39  1  0  0  0  0
 23 22  2  0  0  0  0
 23 18  1  0  0  0  0
 23 40  1  0  0  0  0
 24  8  1  0  0  0  0
 24 41  1  0  0  0  0
 25 24  2  0  0  0  0
 25  5  1  0  0  0  0
 25 42  1  0  0  0  0
M  END
>  <MOL Chiral Flag>
0

>  <energy>
73.877156848933083

$$$$
> 43_AKC_j.bmcl.2011.01.026
>43.sdf
 OpenBabel10052218073D

 45 48  0  0  0  0  0  0  0  0999 V2000
    6.2219   -4.2960    1.5232 Cl  0  0  0  0  0  0  0  0  0  0  0  0
    5.1199   -3.5808    0.3599 C   0  0  0  0  0  0  0  0  0  0  0  0
    4.6631   -4.3405   -0.7178 C   0  0  0  0  0  0  0  0  0  0  0  0
    3.7756   -3.7841   -1.6379 C   0  0  0  0  0  0  0  0  0  0  0  0
    3.3234   -2.4664   -1.4852 C   0  0  0  0  0  0  0  0  0  0  0  0
    2.1688   -1.8570   -2.6690 Cl  0  0  0  0  0  0  0  0  0  0  0  0
    3.7668   -1.6874   -0.3826 C   0  0  0  0  0  0  0  0  0  0  0  0
    3.1980   -0.2916   -0.1005 C   0  0  0  0  0  0  0  0  0  0  0  0
    2.4152   -0.3654    1.2371 C   0  0  0  0  0  0  0  0  0  0  0  0
    1.0209    0.3111    1.3847 C   0  0  1  0  0  0  0  0  0  0  0  0
    0.9410    1.7881    1.7941 C   0  0  0  0  0  0  0  0  0  0  0  0
    1.1008    2.7636    0.6381 C   0  0  0  0  0  0  0  0  0  0  0  0
    0.1900    2.4253   -0.5153 C   0  0  0  0  0  0  0  0  0  0  0  0
   -0.2620    1.0998   -0.7407 C   0  0  0  0  0  0  0  0  0  0  0  0
   -1.0807    0.8357   -1.8540 C   0  0  0  0  0  0  0  0  0  0  0  0
   -1.4715    1.8639   -2.7115 C   0  0  0  0  0  0  0  0  0  0  0  0
   -1.0524    3.1712   -2.4717 C   0  0  0  0  0  0  0  0  0  0  0  0
   -0.2181    3.4516   -1.3871 C   0  0  0  0  0  0  0  0  0  0  0  0
    0.0577   -0.0491    0.2068 C   0  0  2  0  0  0  0  0  0  0  0  0
   -1.2108   -0.5793    0.7224 N   0  0  0  0  0  0  0  0  0  0  0  0
   -2.1598    0.0744    1.4069 C   0  0  0  0  0  0  0  0  0  0  0  0
   -3.1839   -0.8104    1.6584 C   0  0  0  0  0  0  0  0  0  0  0  0
   -2.8697   -2.0104    1.1325 N   0  0  0  0  0  0  0  0  0  0  0  0
   -1.6566   -1.8400    0.5636 C   0  0  0  0  0  0  0  0  0  0  0  0
    4.6786   -2.2619    0.5276 C   0  0  0  0  0  0  0  0  0  0  0  0
    4.9890   -5.3669   -0.8393 H   0  0  0  0  0  0  0  0  0  0  0  0
    3.4214   -4.3870   -2.4654 H   0  0  0  0  0  0  0  0  0  0  0  0
    2.5155    0.0016   -0.9150 H   0  0  0  0  0  0  0  0  0  0  0  0
    3.9842    0.4929   -0.0659 H   0  0  0  0  0  0  0  0  0  0  0  0
    3.0874   -0.1662    2.1008 H   0  0  0  0  0  0  0  0  0  0  0  0
    2.1286   -1.4379    1.3519 H   0  0  0  0  0  0  0  0  0  0  0  0
    0.6524   -0.2122    2.2988 H   0  0  0  0  0  0  0  0  0  0  0  0
   -0.0782    1.9571    2.2017 H   0  0  0  0  0  0  0  0  0  0  0  0
    1.6538    2.0187    2.6153 H   0  0  0  0  0  0  0  0  0  0  0  0
    2.1455    2.8044    0.2698 H   0  0  0  0  0  0  0  0  0  0  0  0
    0.8384    3.7696    1.0407 H   0  0  0  0  0  0  0  0  0  0  0  0
   -1.4276   -0.1722   -2.0464 H   0  0  0  0  0  0  0  0  0  0  0  0
   -2.1115    1.6470   -3.5572 H   0  0  0  0  0  0  0  0  0  0  0  0
   -1.3740    3.9690   -3.1293 H   0  0  0  0  0  0  0  0  0  0  0  0
    0.0985    4.4734   -1.2159 H   0  0  0  0  0  0  0  0  0  0  0  0
    0.5250   -0.8703   -0.3783 H   0  0  0  0  0  0  0  0  0  0  0  0
   -2.1250    1.1163    1.6890 H   0  0  0  0  0  0  0  0  0  0  0  0
   -4.1033   -0.5928    2.1824 H   0  0  0  0  0  0  0  0  0  0  0  0
   -1.1177   -2.6199    0.0432 H   0  0  0  0  0  0  0  0  0  0  0  0
    5.0207   -1.6952    1.3841 H   0  0  0  0  0  0  0  0  0  0  0  0
  2  1  1  0  0  0  0
  3  2  2  0  0  0  0
  3 26  1  0  0  0  0
  4  3  1  0  0  0  0
  4 27  1  0  0  0  0
  5  4  2  0  0  0  0
  6  5  1  0  0  0  0
  7  5  1  0  0  0  0
  8  7  1  0  0  0  0
  8 28  1  0  0  0  0
  8 29  1  0  0  0  0
  9  8  1  0  0  0  0
  9 30  1  0  0  0  0
  9 31  1  0  0  0  0
 10  9  1  0  0  0  0
 10 32  1  1  0  0  0
 11 10  1  0  0  0  0
 11 33  1  0  0  0  0
 11 34  1  0  0  0  0
 12 11  1  0  0  0  0
 12 35  1  0  0  0  0
 12 36  1  0  0  0  0
 13 12  1  0  0  0  0
 14 13  2  0  0  0  0
 15 14  1  0  0  0  0
 15 37  1  0  0  0  0
 16 15  2  0  0  0  0
 16 38  1  0  0  0  0
 17 16  1  0  0  0  0
 17 39  1  0  0  0  0
 18 17  2  0  0  0  0
 18 13  1  0  0  0  0
 18 40  1  0  0  0  0
 19 14  1  0  0  0  0
 19 10  1  0  0  0  0
 19 41  1  6  0  0  0
 20 19  1  0  0  0  0
 21 20  1  0  0  0  0
 21 42  1  0  0  0  0
 22 21  2  0  0  0  0
 22 43  1  0  0  0  0
 23 22  1  0  0  0  0
 24 23  2  0  0  0  0
 24 20  1  0  0  0  0
 24 44  1  0  0  0  0
 25  7  2  0  0  0  0
 25  2  1  0  0  0  0
 25 45  1  0  0  0  0
M  END
>  <MOL Chiral Flag>
0

>  <energy>
69.283056828326224

$$$$
> 44_AKC_14756360600700517
>44.sdf
 OpenBabel10052218073D

 42 45  0  0  0  0  0  0  0  0999 V2000
    3.0297   -3.3751   -1.1195 C   0  0  0  0  0  0  0  0  0  0  0  0
    3.4217   -1.9057   -1.2510 C   0  0  0  0  0  0  0  0  0  0  0  0
    2.3198   -1.0428   -0.8136 N   0  0  0  0  0  0  0  0  0  0  0  0
    1.1090   -0.9585   -1.4174 C   0  0  0  0  0  0  0  0  0  0  0  0
    0.2969   -0.0638   -0.7289 C   0  0  0  0  0  0  0  0  0  0  0  0
   -1.1400    0.2780   -1.0765 C   0  0  2  0  0  0  0  0  0  0  0  0
   -1.3282    1.7076   -1.4007 N   0  0  0  0  0  0  0  0  0  0  0  0
   -2.4897    2.2627   -1.7969 C   0  0  0  0  0  0  0  0  0  0  0  0
   -2.2755    3.6013   -2.0241 C   0  0  0  0  0  0  0  0  0  0  0  0
   -0.9802    3.8857   -1.7835 N   0  0  0  0  0  0  0  0  0  0  0  0
   -0.4245    2.7147   -1.4103 C   0  0  0  0  0  0  0  0  0  0  0  0
   -2.0523   -0.2117    0.0506 C   0  0  0  0  0  0  0  0  0  0  0  0
   -2.6984    0.6943    0.9206 C   0  0  0  0  0  0  0  0  0  0  0  0
   -3.5200    0.2297    1.9501 C   0  0  0  0  0  0  0  0  0  0  0  0
   -3.7201   -1.1392    2.1268 C   0  0  0  0  0  0  0  0  0  0  0  0
   -4.7573   -1.7165    3.4182 Cl  0  0  0  0  0  0  0  0  0  0  0  0
   -3.0955   -2.0503    1.2753 C   0  0  0  0  0  0  0  0  0  0  0  0
   -2.2627   -1.6020    0.2447 C   0  0  0  0  0  0  0  0  0  0  0  0
   -1.5252   -2.8134   -0.8009 Cl  0  0  0  0  0  0  0  0  0  0  0  0
    1.0623    0.4104    0.3273 C   0  0  0  0  0  0  0  0  0  0  0  0
    2.2894   -0.2000    0.2429 C   0  0  0  0  0  0  0  0  0  0  0  0
    3.3011    0.0682    1.1724 C   0  0  0  0  0  0  0  0  0  0  0  0
    3.0318    0.9891    2.2000 C   0  0  0  0  0  0  0  0  0  0  0  0
    1.7695    1.6166    2.2843 C   0  0  0  0  0  0  0  0  0  0  0  0
    1.4194    2.8682    3.6827 Br  0  0  0  0  0  0  0  0  0  0  0  0
    0.7691    1.3247    1.3405 C   0  0  0  0  0  0  0  0  0  0  0  0
    2.1421   -3.6041   -1.7453 H   0  0  0  0  0  0  0  0  0  0  0  0
    2.7937   -3.6066   -0.0583 H   0  0  0  0  0  0  0  0  0  0  0  0
    3.8726   -4.0196   -1.4457 H   0  0  0  0  0  0  0  0  0  0  0  0
    3.6800   -1.6710   -2.3057 H   0  0  0  0  0  0  0  0  0  0  0  0
    4.3276   -1.7422   -0.6350 H   0  0  0  0  0  0  0  0  0  0  0  0
    0.8265   -1.5210   -2.2982 H   0  0  0  0  0  0  0  0  0  0  0  0
   -1.4296   -0.2748   -1.9975 H   0  0  0  0  0  0  0  0  0  0  0  0
   -3.4258    1.7302   -1.9091 H   0  0  0  0  0  0  0  0  0  0  0  0
   -3.0114    4.3247   -2.3481 H   0  0  0  0  0  0  0  0  0  0  0  0
    0.6221    2.6119   -1.1623 H   0  0  0  0  0  0  0  0  0  0  0  0
   -2.5601    1.7611    0.8197 H   0  0  0  0  0  0  0  0  0  0  0  0
   -4.0013    0.9373    2.6129 H   0  0  0  0  0  0  0  0  0  0  0  0
   -3.2581   -3.1122    1.4124 H   0  0  0  0  0  0  0  0  0  0  0  0
    4.2690   -0.4078    1.1181 H   0  0  0  0  0  0  0  0  0  0  0  0
    3.7984    1.2165    2.9293 H   0  0  0  0  0  0  0  0  0  0  0  0
   -0.1958    1.8054    1.3996 H   0  0  0  0  0  0  0  0  0  0  0  0
  1 27  1  0  0  0  0
  1 28  1  0  0  0  0
  1 29  1  0  0  0  0
  2  1  1  0  0  0  0
  2 30  1  0  0  0  0
  2 31  1  0  0  0  0
  3  2  1  0  0  0  0
  4  3  1  0  0  0  0
  4 32  1  0  0  0  0
  5  4  2  0  0  0  0
  6  5  1  0  0  0  0
  6 33  1  6  0  0  0
  7  6  1  0  0  0  0
  8  7  1  0  0  0  0
  8 34  1  0  0  0  0
  9  8  2  0  0  0  0
  9 35  1  0  0  0  0
 10  9  1  0  0  0  0
 11 10  2  0  0  0  0
 11  7  1  0  0  0  0
 11 36  1  0  0  0  0
 12  6  1  0  0  0  0
 13 12  2  0  0  0  0
 13 37  1  0  0  0  0
 14 13  1  0  0  0  0
 14 38  1  0  0  0  0
 15 14  2  0  0  0  0
 16 15  1  0  0  0  0
 17 15  1  0  0  0  0
 17 39  1  0  0  0  0
 18 17  2  0  0  0  0
 18 12  1  0  0  0  0
 19 18  1  0  0  0  0
 20  5  1  0  0  0  0
 21 20  2  0  0  0  0
 21  3  1  0  0  0  0
 22 21  1  0  0  0  0
 22 40  1  0  0  0  0
 23 22  2  0  0  0  0
 23 41  1  0  0  0  0
 24 23  1  0  0  0  0
 25 24  1  0  0  0  0
 26 24  2  0  0  0  0
 26 20  1  0  0  0  0
 26 42  1  0  0  0  0
M  END
>  <MOL Chiral Flag>
0

>  <energy>
59.073770012426543

$$$$
> 45_AKC_tswj/2010/174124
>45.sdf
 OpenBabel10052218083D

 49 51  0  0  0  0  0  0  0  0999 V2000
    5.1083    1.7471    0.2241 C   0  0  0  0  0  0  0  0  0  0  0  0
    5.0732    0.3685    0.2619 O   0  0  0  0  0  0  0  0  0  0  0  0
    3.9585   -0.3908    0.0814 C   0  0  0  0  0  0  0  0  0  0  0  0
    4.0416   -1.7644    0.3312 C   0  0  0  0  0  0  0  0  0  0  0  0
    2.9128   -2.5790    0.2043 C   0  0  0  0  0  0  0  0  0  0  0  0
    1.6817   -2.0306   -0.1874 C   0  0  0  0  0  0  0  0  0  0  0  0
    0.4510   -2.9119   -0.2764 C   0  0  0  0  0  0  0  0  0  0  0  0
   -0.6226   -2.4228    0.6307 N   0  3  2  0  0  0  0  0  0  0  0  0
   -1.3015   -3.4701    1.3902 C   0  0  0  0  0  0  0  0  0  0  0  0
   -2.5382   -2.7510    1.9199 C   0  0  0  0  0  0  0  0  0  0  0  0
   -2.8831   -1.7359    0.8861 N   0  3  1  0  0  0  0  0  0  0  0  0
   -2.9947   -0.3797    1.4980 C   0  0  0  0  0  0  0  0  0  0  0  0
   -2.8546    0.7564    0.5049 C   0  0  0  0  0  0  0  0  0  0  0  0
   -1.6738    1.5155    0.5210 C   0  0  0  0  0  0  0  0  0  0  0  0
   -1.4717    2.5355   -0.4003 C   0  0  0  0  0  0  0  0  0  0  0  0
   -2.4608    2.8366   -1.3540 C   0  0  0  0  0  0  0  0  0  0  0  0
   -2.2929    3.8292   -2.2698 O   0  0  0  0  0  0  0  0  0  0  0  0
   -1.1454    4.5889   -2.4021 C   0  0  0  0  0  0  0  0  0  0  0  0
   -3.6503    2.0902   -1.3654 C   0  0  0  0  0  0  0  0  0  0  0  0
   -3.8456    1.0455   -0.4469 C   0  0  0  0  0  0  0  0  0  0  0  0
   -1.7704   -1.8595   -0.0882 C   0  0  0  0  0  0  0  0  0  0  0  0
    1.6018   -0.6567   -0.4711 C   0  0  0  0  0  0  0  0  0  0  0  0
    2.7285    0.1609   -0.3316 C   0  0  0  0  0  0  0  0  0  0  0  0
    6.1442    2.0876    0.4280 H   0  0  0  0  0  0  0  0  0  0  0  0
    4.4425    2.1639    1.0109 H   0  0  0  0  0  0  0  0  0  0  0  0
    4.8028    2.1214   -0.7753 H   0  0  0  0  0  0  0  0  0  0  0  0
    4.9812   -2.2010    0.6442 H   0  0  0  0  0  0  0  0  0  0  0  0
    2.9987   -3.6360    0.4220 H   0  0  0  0  0  0  0  0  0  0  0  0
    0.7345   -3.9549   -0.0105 H   0  0  0  0  0  0  0  0  0  0  0  0
    0.1115   -2.9444   -1.3364 H   0  0  0  0  0  0  0  0  0  0  0  0
   -0.2562   -1.7127    1.3125 H   0  0  0  0  0  0  0  0  0  0  0  0
   -0.6710   -3.9132    2.1940 H   0  0  0  0  0  0  0  0  0  0  0  0
   -1.6249   -4.2840    0.6996 H   0  0  0  0  0  0  0  0  0  0  0  0
   -2.2035   -2.2652    2.8661 H   0  0  0  0  0  0  0  0  0  0  0  0
   -3.3714   -3.4333    2.1905 H   0  0  0  0  0  0  0  0  0  0  0  0
   -3.7826   -1.9750    0.4045 H   0  0  0  0  0  0  0  0  0  0  0  0
   -2.1855   -0.2408    2.2470 H   0  0  0  0  0  0  0  0  0  0  0  0
   -3.9527   -0.2823    2.0571 H   0  0  0  0  0  0  0  0  0  0  0  0
   -0.8908    1.2955    1.2355 H   0  0  0  0  0  0  0  0  0  0  0  0
   -0.5390    3.0801   -0.3643 H   0  0  0  0  0  0  0  0  0  0  0  0
   -1.2844    5.3270   -3.2171 H   0  0  0  0  0  0  0  0  0  0  0  0
   -0.2820    3.9370   -2.6596 H   0  0  0  0  0  0  0  0  0  0  0  0
   -0.9333    5.1412   -1.4610 H   0  0  0  0  0  0  0  0  0  0  0  0
   -4.4196    2.3150   -2.0938 H   0  0  0  0  0  0  0  0  0  0  0  0
   -4.7637    0.4713   -0.4763 H   0  0  0  0  0  0  0  0  0  0  0  0
   -1.5173   -0.9404   -0.6476 H   0  0  0  0  0  0  0  0  0  0  0  0
   -2.0948   -2.5819   -0.8803 H   0  0  0  0  0  0  0  0  0  0  0  0
    0.6664   -0.2124   -0.7799 H   0  0  0  0  0  0  0  0  0  0  0  0
    2.6312    1.2179   -0.5381 H   0  0  0  0  0  0  0  0  0  0  0  0
  1 24  1  0  0  0  0
  1 25  1  0  0  0  0
  1 26  1  0  0  0  0
  2  1  1  0  0  0  0
  3  2  1  0  0  0  0
  4  3  2  0  0  0  0
  4 27  1  0  0  0  0
  5  4  1  0  0  0  0
  5 28  1  0  0  0  0
  6  5  2  0  0  0  0
  7  6  1  0  0  0  0
  7 29  1  0  0  0  0
  7 30  1  0  0  0  0
  8  7  1  0  0  0  0
  8 31  1  1  0  0  0
  9  8  1  0  0  0  0
  9 32  1  0  0  0  0
  9 33  1  0  0  0  0
 10  9  1  0  0  0  0
 10 34  1  0  0  0  0
 10 35  1  0  0  0  0
 11 10  1  0  0  0  0
 11 36  1  6  0  0  0
 12 11  1  0  0  0  0
 12 37  1  0  0  0  0
 12 38  1  0  0  0  0
 13 12  1  0  0  0  0
 14 13  2  0  0  0  0
 14 39  1  0  0  0  0
 15 14  1  0  0  0  0
 15 40  1  0  0  0  0
 16 15  2  0  0  0  0
 17 16  1  0  0  0  0
 18 17  1  0  0  0  0
 18 41  1  0  0  0  0
 18 42  1  0  0  0  0
 18 43  1  0  0  0  0
 19 16  1  0  0  0  0
 19 44  1  0  0  0  0
 20 19  2  0  0  0  0
 20 13  1  0  0  0  0
 20 45  1  0  0  0  0
 21 11  1  0  0  0  0
 21  8  1  0  0  0  0
 21 46  1  0  0  0  0
 21 47  1  0  0  0  0
 22  6  1  0  0  0  0
 22 48  1  0  0  0  0
 23 22  2  0  0  0  0
 23  3  1  0  0  0  0
 23 49  1  0  0  0  0
M  CHG  2   8   1  11   1
M  END
>  <MOL Chiral Flag>
0

>  <energy>
47.375163320604685

$$$$
> 46_AKC_tswj/2010/174124
>46.sdf
 OpenBabel10052218083D

 59 62  0  0  0  0  0  0  0  0999 V2000
    5.9881    2.7620   -0.3976 C   0  0  0  0  0  0  0  0  0  0  0  0
    6.0045    1.5923    0.3371 O   0  0  0  0  0  0  0  0  0  0  0  0
    5.0712    0.6080    0.2578 C   0  0  0  0  0  0  0  0  0  0  0  0
    5.1386   -0.4589    1.1657 C   0  0  0  0  0  0  0  0  0  0  0  0
    4.1841   -1.4813    1.1377 C   0  0  0  0  0  0  0  0  0  0  0  0
    3.1411   -1.4432    0.2027 C   0  0  0  0  0  0  0  0  0  0  0  0
    2.0572   -2.4963    0.1974 C   0  0  0  0  0  0  0  0  0  0  0  0
    0.8024   -1.9273    0.7527 N   0  3  2  0  0  0  0  0  0  0  0  0
    0.5467   -2.3079    2.1422 C   0  0  0  0  0  0  0  0  0  0  0  0
   -0.8940   -1.8781    2.3212 C   0  0  0  0  0  0  0  0  0  0  0  0
   -1.5250   -2.3806    1.0996 N   0  3  1  0  0  0  0  0  0  0  0  0
   -2.9359   -1.9956    0.8176 C   0  0  0  0  0  0  0  0  0  0  0  0
   -3.2569   -0.5294    0.5616 C   0  0  0  0  0  0  0  0  0  0  0  0
   -3.7979   -0.1533   -0.6812 C   0  0  0  0  0  0  0  0  0  0  0  0
   -4.1389    1.1774   -0.9375 C   0  0  0  0  0  0  0  0  0  0  0  0
   -3.9478    2.1611    0.0357 C   0  0  0  0  0  0  0  0  0  0  0  0
   -4.2889    3.4437   -0.2659 O   0  0  0  0  0  0  0  0  0  0  0  0
   -4.0275    4.5475    0.5195 C   0  0  0  0  0  0  0  0  0  0  0  0
   -3.4241    1.7922    1.2906 C   0  0  0  0  0  0  0  0  0  0  0  0
   -3.0955    0.4563    1.5541 C   0  0  0  0  0  0  0  0  0  0  0  0
   -0.4512   -2.3191    0.0547 C   0  0  1  0  0  0  0  0  0  0  0  0
   -0.6877   -1.4130   -1.1569 C   0  0  0  0  0  0  0  0  0  0  0  0
   -0.7152   -0.0059   -1.0419 C   0  0  0  0  0  0  0  0  0  0  0  0
   -0.8585    0.7944   -2.1792 C   0  0  0  0  0  0  0  0  0  0  0  0
   -0.9835    0.2071   -3.4391 C   0  0  0  0  0  0  0  0  0  0  0  0
   -0.9656   -1.1825   -3.5661 C   0  0  0  0  0  0  0  0  0  0  0  0
   -0.8137   -1.9893   -2.4352 C   0  0  0  0  0  0  0  0  0  0  0  0
    3.0754   -0.3828   -0.7159 C   0  0  0  0  0  0  0  0  0  0  0  0
    4.0325    0.6315   -0.6959 C   0  0  0  0  0  0  0  0  0  0  0  0
    6.8651    3.3796   -0.1161 H   0  0  0  0  0  0  0  0  0  0  0  0
    5.0656    3.3399   -0.1718 H   0  0  0  0  0  0  0  0  0  0  0  0
    6.0454    2.5429   -1.4847 H   0  0  0  0  0  0  0  0  0  0  0  0
    5.9269   -0.4845    1.9076 H   0  0  0  0  0  0  0  0  0  0  0  0
    4.2396   -2.2840    1.8622 H   0  0  0  0  0  0  0  0  0  0  0  0
    2.3683   -3.3956    0.7748 H   0  0  0  0  0  0  0  0  0  0  0  0
    1.9287   -2.8365   -0.8546 H   0  0  0  0  0  0  0  0  0  0  0  0
    0.8647   -0.8826    0.7715 H   0  0  0  0  0  0  0  0  0  0  0  0
    1.2454   -1.8337    2.8659 H   0  0  0  0  0  0  0  0  0  0  0  0
    0.6028   -3.4177    2.2538 H   0  0  0  0  0  0  0  0  0  0  0  0
   -0.8780   -0.7736    2.3298 H   0  0  0  0  0  0  0  0  0  0  0  0
   -1.3601   -2.2667    3.2547 H   0  0  0  0  0  0  0  0  0  0  0  0
   -1.6219   -3.4085    1.3033 H   0  0  0  0  0  0  0  0  0  0  0  0
   -3.5727   -2.3145    1.6733 H   0  0  0  0  0  0  0  0  0  0  0  0
   -3.2732   -2.5980   -0.0557 H   0  0  0  0  0  0  0  0  0  0  0  0
   -3.9575   -0.8922   -1.4559 H   0  0  0  0  0  0  0  0  0  0  0  0
   -4.5521    1.4455   -1.9012 H   0  0  0  0  0  0  0  0  0  0  0  0
   -4.4495    5.4475    0.0261 H   0  0  0  0  0  0  0  0  0  0  0  0
   -2.9300    4.6851    0.6232 H   0  0  0  0  0  0  0  0  0  0  0  0
   -4.5004    4.4453    1.5189 H   0  0  0  0  0  0  0  0  0  0  0  0
   -3.2809    2.5258    2.0721 H   0  0  0  0  0  0  0  0  0  0  0  0
   -2.7348    0.2035    2.5380 H   0  0  0  0  0  0  0  0  0  0  0  0
   -0.3343   -3.3616   -0.3355 H   0  0  0  0  0  0  0  0  0  0  0  0
   -0.6131    0.4765   -0.0794 H   0  0  0  0  0  0  0  0  0  0  0  0
   -0.8668    1.8725   -2.0833 H   0  0  0  0  0  0  0  0  0  0  0  0
   -1.0900    0.8292   -4.3183 H   0  0  0  0  0  0  0  0  0  0  0  0
   -1.0594   -1.6366   -4.5440 H   0  0  0  0  0  0  0  0  0  0  0  0
   -0.7871   -3.0646   -2.5581 H   0  0  0  0  0  0  0  0  0  0  0  0
    2.2763   -0.3445   -1.4468 H   0  0  0  0  0  0  0  0  0  0  0  0
    3.9530    1.4342   -1.4168 H   0  0  0  0  0  0  0  0  0  0  0  0
  1 30  1  0  0  0  0
  1 31  1  0  0  0  0
  1 32  1  0  0  0  0
  2  1  1  0  0  0  0
  3  2  1  0  0  0  0
  4  3  2  0  0  0  0
  4 33  1  0  0  0  0
  5  4  1  0  0  0  0
  5 34  1  0  0  0  0
  6  5  2  0  0  0  0
  7  6  1  0  0  0  0
  7 35  1  0  0  0  0
  7 36  1  0  0  0  0
  8  7  1  0  0  0  0
  8 37  1  6  0  0  0
  9  8  1  0  0  0  0
  9 38  1  0  0  0  0
  9 39  1  0  0  0  0
 10  9  1  0  0  0  0
 10 40  1  0  0  0  0
 10 41  1  0  0  0  0
 11 10  1  0  0  0  0
 11 42  1  1  0  0  0
 12 11  1  0  0  0  0
 12 43  1  0  0  0  0
 12 44  1  0  0  0  0
 13 12  1  0  0  0  0
 14 13  2  0  0  0  0
 14 45  1  0  0  0  0
 15 14  1  0  0  0  0
 15 46  1  0  0  0  0
 16 15  2  0  0  0  0
 17 16  1  0  0  0  0
 18 17  1  0  0  0  0
 18 47  1  0  0  0  0
 18 48  1  0  0  0  0
 18 49  1  0  0  0  0
 19 16  1  0  0  0  0
 19 50  1  0  0  0  0
 20 19  2  0  0  0  0
 20 13  1  0  0  0  0
 20 51  1  0  0  0  0
 21 11  1  0  0  0  0
 21  8  1  0  0  0  0
 21 52  1  6  0  0  0
 22 21  1  0  0  0  0
 23 22  2  0  0  0  0
 23 53  1  0  0  0  0
 24 23  1  0  0  0  0
 24 54  1  0  0  0  0
 25 24  2  0  0  0  0
 25 55  1  0  0  0  0
 26 25  1  0  0  0  0
 26 56  1  0  0  0  0
 27 26  2  0  0  0  0
 27 22  1  0  0  0  0
 27 57  1  0  0  0  0
 28  6  1  0  0  0  0
 28 58  1  0  0  0  0
 29 28  2  0  0  0  0
 29  3  1  0  0  0  0
 29 59  1  0  0  0  0
M  CHG  2   8   1  11   1
M  END
>  <MOL Chiral Flag>
0

>  <energy>
66.776189053992482

$$$$
> 47_AKC_1475636021000005749
>47.sdf
 OpenBabel10052218093D

 34 36  0  0  0  0  0  0  0  0999 V2000
   -5.4592    0.5960   -0.3170 C   0  0  0  0  0  0  0  0  0  0  0  0
   -4.3297   -0.3776   -0.3473 C   0  0  0  0  0  0  0  0  0  0  0  0
   -4.4875   -1.7143   -0.3901 N   0  0  0  0  0  0  0  0  0  0  0  0
   -3.2992   -2.2463   -0.3575 O   0  0  0  0  0  0  0  0  0  0  0  0
   -2.3718   -1.3161   -0.2973 C   0  0  0  0  0  0  0  0  0  0  0  0
   -2.9851   -0.0786   -0.2980 C   0  0  0  0  0  0  0  0  0  0  0  0
   -0.9814   -1.6073   -0.1570 N   0  0  0  0  0  0  0  0  0  0  0  0
   -0.4788   -2.9574   -0.0740 C   0  0  0  0  0  0  0  0  0  0  0  0
    1.0376   -2.7573    0.2072 C   0  0  0  0  0  0  0  0  0  0  0  0
    1.1959   -1.3190    0.2480 N   0  0  0  0  0  0  0  0  0  0  0  0
    2.5029   -0.7229    0.5330 C   0  0  0  0  0  0  0  0  0  0  0  0
    2.6670    0.7696    0.3157 C   0  0  0  0  0  0  0  0  0  0  0  0
    3.5485    1.2154   -0.6860 C   0  0  0  0  0  0  0  0  0  0  0  0
    3.7524    2.5784   -0.8988 C   0  0  0  0  0  0  0  0  0  0  0  0
    3.0817    3.5177   -0.1139 C   0  0  0  0  0  0  0  0  0  0  0  0
    3.3682    5.3818   -0.4155 Br  0  0  0  0  0  0  0  0  0  0  0  0
    2.2098    3.0906    0.8940 C   0  0  0  0  0  0  0  0  0  0  0  0
    2.0070    1.7214    1.1169 C   0  0  0  0  0  0  0  0  0  0  0  0
    0.0139   -0.7224    0.0091 C   0  0  0  0  0  0  0  0  0  0  0  0
   -0.1505    0.4834   -0.0156 O   0  0  0  0  0  0  0  0  0  0  0  0
   -6.0722    0.4124    0.5910 H   0  0  0  0  0  0  0  0  0  0  0  0
   -5.0757    1.6374   -0.2831 H   0  0  0  0  0  0  0  0  0  0  0  0
   -6.0927    0.4673   -1.2180 H   0  0  0  0  0  0  0  0  0  0  0  0
   -2.5427    0.9050   -0.2371 H   0  0  0  0  0  0  0  0  0  0  0  0
   -0.9624   -3.4897    0.7726 H   0  0  0  0  0  0  0  0  0  0  0  0
   -0.6548   -3.4967   -1.0311 H   0  0  0  0  0  0  0  0  0  0  0  0
    1.3267   -3.2110    1.1787 H   0  0  0  0  0  0  0  0  0  0  0  0
    1.6540   -3.1758   -0.6191 H   0  0  0  0  0  0  0  0  0  0  0  0
    2.7935   -0.9748    1.5766 H   0  0  0  0  0  0  0  0  0  0  0  0
    3.2328   -1.2400   -0.1253 H   0  0  0  0  0  0  0  0  0  0  0  0
    4.0831    0.5034   -1.3023 H   0  0  0  0  0  0  0  0  0  0  0  0
    4.4354    2.9021   -1.6737 H   0  0  0  0  0  0  0  0  0  0  0  0
    1.6946    3.8198    1.5060 H   0  0  0  0  0  0  0  0  0  0  0  0
    1.3387    1.4052    1.9083 H   0  0  0  0  0  0  0  0  0  0  0  0
  1 21  1  0  0  0  0
  1 22  1  0  0  0  0
  1 23  1  0  0  0  0
  2  1  1  0  0  0  0
  3  2  2  0  0  0  0
  4  3  1  0  0  0  0
  5  4  1  0  0  0  0
  6  5  2  0  0  0  0
  6  2  1  0  0  0  0
  6 24  1  0  0  0  0
  7  5  1  0  0  0  0
  8  7  1  0  0  0  0
  8 25  1  0  0  0  0
  8 26  1  0  0  0  0
  9  8  1  0  0  0  0
  9 27  1  0  0  0  0
  9 28  1  0  0  0  0
 10  9  1  0  0  0  0
 11 10  1  0  0  0  0
 11 29  1  0  0  0  0
 11 30  1  0  0  0  0
 12 11  1  0  0  0  0
 13 12  2  0  0  0  0
 13 31  1  0  0  0  0
 14 13  1  0  0  0  0
 14 32  1  0  0  0  0
 15 14  2  0  0  0  0
 16 15  1  0  0  0  0
 17 15  1  0  0  0  0
 17 33  1  0  0  0  0
 18 17  2  0  0  0  0
 18 12  1  0  0  0  0
 18 34  1  0  0  0  0
 19 10  1  0  0  0  0
 19  7  1  0  0  0  0
 20 19  2  0  0  0  0
M  END
>  <MOL Chiral Flag>
0

>  <energy>
-9.6989543151605986

$$$$
> 48_AKC_j.bmc.2013.09.002
>48.sdf
 OpenBabel10052218093D

 33 35  0  0  0  0  0  0  0  0999 V2000
    5.6671   -0.6746   -1.0578 Br  0  0  0  0  0  0  0  0  0  0  0  0
    4.0217   -0.3439   -0.1472 C   0  0  0  0  0  0  0  0  0  0  0  0
    3.1676    0.6811   -0.5836 C   0  0  0  0  0  0  0  0  0  0  0  0
    1.9985    0.8904    0.0868 N   0  0  0  0  0  0  0  0  0  0  0  0
    1.6427    0.1525    1.1579 C   0  0  0  0  0  0  0  0  0  0  0  0
    0.4528    0.5217    1.6752 N   0  0  0  0  0  0  0  0  0  0  0  0
    0.0312    1.5349    0.8844 C   0  0  0  0  0  0  0  0  0  0  0  0
   -1.3127    2.1762    1.0471 C   0  0  0  0  0  0  0  0  0  0  0  0
   -2.4262    1.4144   -0.1689 S   0  0  0  0  0  0  0  0  0  0  0  0
   -2.3156    2.1121   -1.5331 O   0  0  0  0  0  0  0  0  0  0  0  0
   -3.8789    1.7539    0.1974 O   0  0  0  0  0  0  0  0  0  0  0  0
   -2.3101   -0.3608   -0.3872 C   0  0  0  0  0  0  0  0  0  0  0  0
   -1.7532   -0.9084   -1.5510 C   0  0  0  0  0  0  0  0  0  0  0  0
   -1.6177   -2.2956   -1.6739 C   0  0  0  0  0  0  0  0  0  0  0  0
   -2.0329   -3.1354   -0.6350 C   0  0  0  0  0  0  0  0  0  0  0  0
   -2.5860   -2.5895    0.5268 C   0  0  0  0  0  0  0  0  0  0  0  0
   -2.7234   -1.2048    0.6510 C   0  0  0  0  0  0  0  0  0  0  0  0
    0.9888    1.7699   -0.1028 C   0  0  0  0  0  0  0  0  0  0  0  0
    0.9268    2.7595   -1.1342 N   0  0  0  0  0  0  0  0  0  0  0  0
    1.7974    2.8501   -1.9427 O   0  0  0  0  0  0  0  0  0  0  0  0
    0.0233    3.5382   -1.1654 O   0  0  0  0  0  0  0  0  0  0  0  0
    2.4489   -0.8821    1.6296 C   0  0  0  0  0  0  0  0  0  0  0  0
    1.9274   -1.9462    3.1297 Br  0  0  0  0  0  0  0  0  0  0  0  0
    3.6562   -1.1298    0.9613 C   0  0  0  0  0  0  0  0  0  0  0  0
    3.4500    1.2764   -1.4372 H   0  0  0  0  0  0  0  0  0  0  0  0
   -1.7256    1.8994    2.0403 H   0  0  0  0  0  0  0  0  0  0  0  0
   -1.2654    3.2826    0.9914 H   0  0  0  0  0  0  0  0  0  0  0  0
   -1.4154   -0.2647   -2.3527 H   0  0  0  0  0  0  0  0  0  0  0  0
   -1.1834   -2.7194   -2.5699 H   0  0  0  0  0  0  0  0  0  0  0  0
   -1.9209   -4.2077   -0.7273 H   0  0  0  0  0  0  0  0  0  0  0  0
   -2.9006   -3.2378    1.3343 H   0  0  0  0  0  0  0  0  0  0  0  0
   -3.1389   -0.7861    1.5590 H   0  0  0  0  0  0  0  0  0  0  0  0
    4.3067   -1.9267    1.2975 H   0  0  0  0  0  0  0  0  0  0  0  0
  2  1  1  0  0  0  0
  3  2  2  0  0  0  0
  3 25  1  0  0  0  0
  4  3  1  0  0  0  0
  5  4  1  0  0  0  0
  6  5  2  0  0  0  0
  7  6  1  0  0  0  0
  8  7  1  0  0  0  0
  8 26  1  0  0  0  0
  8 27  1  0  0  0  0
  9  8  1  0  0  0  0
 10  9  2  0  0  0  0
 11  9  2  0  0  0  0
 12  9  1  0  0  0  0
 13 12  2  0  0  0  0
 13 28  1  0  0  0  0
 14 13  1  0  0  0  0
 14 29  1  0  0  0  0
 15 14  2  0  0  0  0
 15 30  1  0  0  0  0
 16 15  1  0  0  0  0
 16 31  1  0  0  0  0
 17 16  2  0  0  0  0
 17 12  1  0  0  0  0
 17 32  1  0  0  0  0
 18  7  2  0  0  0  0
 18  4  1  0  0  0  0
 19 18  1  0  0  0  0
 20 19  2  0  0  0  0
 21 19  2  0  0  0  0
 22  5  1  0  0  0  0
 23 22  1  0  0  0  0
 24 22  2  0  0  0  0
 24  2  1  0  0  0  0
 24 33  1  0  0  0  0
M  END
>  <MOL Chiral Flag>
0

>  <energy>
59.048008158429042

$$$$
> 49_AKC_j.ejmech.2015.02.038
>49.sdf
 OpenBabel10052218103D

 64 68  0  0  0  0  0  0  0  0999 V2000
    3.8269   -0.0827   -3.8820 C   0  0  0  0  0  0  0  0  0  0  0  0
    4.6092   -0.9289   -2.9075 C   0  0  0  0  0  0  0  0  0  0  0  0
    5.7051   -1.3211   -3.2840 O   0  0  0  0  0  0  0  0  0  0  0  0
    4.1947   -1.1734   -1.6042 N   0  0  0  0  0  0  0  0  0  0  0  0
    2.9272   -0.6705   -1.1123 C   0  0  0  0  0  0  0  0  0  0  0  0
    2.7523   -0.2928    0.0953 N   0  0  0  0  0  0  0  0  0  0  0  0
    1.4643    0.0434    0.4053 N   0  0  0  0  0  0  0  0  0  0  0  0
    0.4903   -0.5563   -0.5031 C   0  0  2  0  0  0  0  0  0  0  0  0
    1.4117   -0.6671   -2.0896 S   0  0  0  0  0  0  0  0  0  0  0  0
   -0.9051    0.0357   -0.6548 C   0  0  0  0  0  0  0  0  0  0  0  0
   -1.3795    0.5765   -1.8377 C   0  0  0  0  0  0  0  0  0  0  0  0
   -2.6781    0.8918   -1.6859 N   0  0  0  0  0  0  0  0  0  0  0  0
   -3.0585    0.6010   -0.4521 N   0  0  0  0  0  0  0  0  0  0  0  0
   -2.0110    0.0687    0.2181 C   0  0  0  0  0  0  0  0  0  0  0  0
   -2.1740   -0.4262    1.6245 C   0  0  0  0  0  0  0  0  0  0  0  0
   -3.3780   -0.1442    2.3038 C   0  0  0  0  0  0  0  0  0  0  0  0
   -3.5786   -0.5730    3.6181 C   0  0  0  0  0  0  0  0  0  0  0  0
   -2.5835   -1.2989    4.2829 C   0  0  0  0  0  0  0  0  0  0  0  0
   -2.7878   -1.7629    5.6952 C   0  0  0  0  0  0  0  0  0  0  0  0
   -1.3873   -1.5925    3.6186 C   0  0  0  0  0  0  0  0  0  0  0  0
   -1.1817   -1.1627    2.3038 C   0  0  0  0  0  0  0  0  0  0  0  0
   -3.5795    1.3551   -2.7172 C   0  0  0  0  0  0  0  0  0  0  0  0
   -4.9620    1.4220   -2.4637 C   0  0  0  0  0  0  0  0  0  0  0  0
   -5.8529    1.7902   -3.4769 C   0  0  0  0  0  0  0  0  0  0  0  0
   -5.3783    2.1049   -4.7571 C   0  0  0  0  0  0  0  0  0  0  0  0
   -6.3447    2.4692   -5.8453 C   0  0  0  0  0  0  0  0  0  0  0  0
   -4.0014    2.0624   -5.0121 C   0  0  0  0  0  0  0  0  0  0  0  0
   -3.1088    1.6885   -4.0049 C   0  0  0  0  0  0  0  0  0  0  0  0
    1.2201    0.9643    1.3894 C   0  0  0  0  0  0  0  0  0  0  0  0
    2.3532    1.5025    2.2211 C   0  0  0  0  0  0  0  0  0  0  0  0
    0.0933    1.3733    1.6065 O   0  0  0  0  0  0  0  0  0  0  0  0
    5.0283   -1.9837   -0.7339 C   0  0  0  0  0  0  0  0  0  0  0  0
    5.2290   -1.6687    0.6316 C   0  0  0  0  0  0  0  0  0  0  0  0
    6.0164   -2.4927    1.4438 C   0  0  0  0  0  0  0  0  0  0  0  0
    6.6085   -3.6418    0.9209 C   0  0  0  0  0  0  0  0  0  0  0  0
    6.4206   -3.9728   -0.4181 C   0  0  0  0  0  0  0  0  0  0  0  0
    5.6421   -3.1566   -1.2395 C   0  0  0  0  0  0  0  0  0  0  0  0
    2.8995   -0.5890   -4.2058 H   0  0  0  0  0  0  0  0  0  0  0  0
    3.6131    0.9135   -3.4397 H   0  0  0  0  0  0  0  0  0  0  0  0
    4.4175    0.0793   -4.8095 H   0  0  0  0  0  0  0  0  0  0  0  0
    0.3680   -1.6265   -0.2369 H   0  0  0  0  0  0  0  0  0  0  0  0
   -0.8252    0.6761   -2.7572 H   0  0  0  0  0  0  0  0  0  0  0  0
   -4.1658    0.4191    1.8196 H   0  0  0  0  0  0  0  0  0  0  0  0
   -4.5105   -0.3363    4.1168 H   0  0  0  0  0  0  0  0  0  0  0  0
   -2.0018   -1.3285    6.3482 H   0  0  0  0  0  0  0  0  0  0  0  0
   -3.7798   -1.4537    6.0887 H   0  0  0  0  0  0  0  0  0  0  0  0
   -2.7240   -2.8705    5.7371 H   0  0  0  0  0  0  0  0  0  0  0  0
   -0.6110   -2.1556    4.1222 H   0  0  0  0  0  0  0  0  0  0  0  0
   -0.2495   -1.4145    1.8397 H   0  0  0  0  0  0  0  0  0  0  0  0
   -5.3543    1.1627   -1.4888 H   0  0  0  0  0  0  0  0  0  0  0  0
   -6.9156    1.8164   -3.2693 H   0  0  0  0  0  0  0  0  0  0  0  0
   -5.8217    2.6867   -6.8012 H   0  0  0  0  0  0  0  0  0  0  0  0
   -6.9270    3.3658   -5.5487 H   0  0  0  0  0  0  0  0  0  0  0  0
   -7.0421    1.6218   -6.0182 H   0  0  0  0  0  0  0  0  0  0  0  0
   -3.6181    2.3040   -5.9959 H   0  0  0  0  0  0  0  0  0  0  0  0
   -2.0577    1.6524   -4.2455 H   0  0  0  0  0  0  0  0  0  0  0  0
    1.9811    2.2328    2.9714 H   0  0  0  0  0  0  0  0  0  0  0  0
    3.0952    2.0094    1.5697 H   0  0  0  0  0  0  0  0  0  0  0  0
    2.8488    0.6669    2.7596 H   0  0  0  0  0  0  0  0  0  0  0  0
    4.8108   -0.7838    1.0795 H   0  0  0  0  0  0  0  0  0  0  0  0
    6.1681   -2.2376    2.4844 H   0  0  0  0  0  0  0  0  0  0  0  0
    7.2123   -4.2782    1.5545 H   0  0  0  0  0  0  0  0  0  0  0  0
    6.8728   -4.8695   -0.8227 H   0  0  0  0  0  0  0  0  0  0  0  0
    5.4960   -3.4612   -2.2671 H   0  0  0  0  0  0  0  0  0  0  0  0
  1 38  1  0  0  0  0
  1 39  1  0  0  0  0
  1 40  1  0  0  0  0
  2  1  1  0  0  0  0
  3  2  2  0  0  0  0
  4  2  1  0  0  0  0
  5  4  1  0  0  0  0
  6  5  2  0  0  0  0
  7  6  1  0  0  0  0
  8  7  1  0  0  0  0
  8 41  1  1  0  0  0
  9  8  1  0  0  0  0
  9  5  1  0  0  0  0
 10  8  1  0  0  0  0
 11 10  2  0  0  0  0
 11 42  1  0  0  0  0
 12 11  1  0  0  0  0
 13 12  1  0  0  0  0
 14 13  2  0  0  0  0
 14 10  1  0  0  0  0
 15 14  1  0  0  0  0
 16 15  2  0  0  0  0
 16 43  1  0  0  0  0
 17 16  1  0  0  0  0
 17 44  1  0  0  0  0
 18 17  2  0  0  0  0
 19 18  1  0  0  0  0
 19 45  1  0  0  0  0
 19 46  1  0  0  0  0
 19 47  1  0  0  0  0
 20 18  1  0  0  0  0
 20 48  1  0  0  0  0
 21 20  2  0  0  0  0
 21 15  1  0  0  0  0
 21 49  1  0  0  0  0
 22 12  1  0  0  0  0
 23 22  2  0  0  0  0
 23 50  1  0  0  0  0
 24 23  1  0  0  0  0
 24 51  1  0  0  0  0
 25 24  2  0  0  0  0
 26 25  1  0  0  0  0
 26 52  1  0  0  0  0
 26 53  1  0  0  0  0
 26 54  1  0  0  0  0
 27 25  1  0  0  0  0
 27 55  1  0  0  0  0
 28 27  2  0  0  0  0
 28 22  1  0  0  0  0
 28 56  1  0  0  0  0
 29  7  1  0  0  0  0
 30 29  1  0  0  0  0
 30 57  1  0  0  0  0
 30 58  1  0  0  0  0
 30 59  1  0  0  0  0
 31 29  2  0  0  0  0
 32  4  1  0  0  0  0
 33 32  2  0  0  0  0
 33 60  1  0  0  0  0
 34 33  1  0  0  0  0
 34 61  1  0  0  0  0
 35 34  2  0  0  0  0
 35 62  1  0  0  0  0
 36 35  1  0  0  0  0
 36 63  1  0  0  0  0
 37 36  2  0  0  0  0
 37 32  1  0  0  0  0
 37 64  1  0  0  0  0
M  END
>  <MOL Chiral Flag>
0

>  <energy>
118.06786031951515

$$$$
> 50_AKC_j.ejmech.2015.02.038
>50.sdf
 OpenBabel10052218103D

 57 61  0  0  0  0  0  0  0  0999 V2000
   -5.9461    0.2349    4.3686 C   0  0  0  0  0  0  0  0  0  0  0  0
   -4.7742    0.5429    3.4845 C   0  0  0  0  0  0  0  0  0  0  0  0
   -3.5381    0.9217    4.0303 C   0  0  0  0  0  0  0  0  0  0  0  0
   -2.4474    1.1857    3.1938 C   0  0  0  0  0  0  0  0  0  0  0  0
   -2.5742    1.0671    1.7986 C   0  0  0  0  0  0  0  0  0  0  0  0
   -3.8260    0.6986    1.2592 C   0  0  0  0  0  0  0  0  0  0  0  0
   -4.9125    0.4424    2.0964 C   0  0  0  0  0  0  0  0  0  0  0  0
   -1.4310    1.2904    0.9425 N   0  0  0  0  0  0  0  0  0  0  0  0
   -1.3676    1.0459   -0.3788 C   0  0  0  0  0  0  0  0  0  0  0  0
   -0.0913    1.3144   -0.8197 C   0  0  0  0  0  0  0  0  0  0  0  0
    0.3720    0.9983   -2.1848 C   0  0  0  0  0  0  0  0  0  0  0  0
   -0.3387    0.1713   -2.8594 N   0  0  0  0  0  0  0  0  0  0  0  0
    0.0274   -0.3023   -4.0930 N   0  0  0  0  0  0  0  0  0  0  0  0
    0.0448   -1.5723   -4.3445 C   0  0  0  0  0  0  0  0  0  0  0  0
   -0.1087   -2.1340   -6.0272 S   0  0  0  0  0  0  0  0  0  0  0  0
   -0.9318   -3.6583   -5.3928 C   0  0  0  0  0  0  0  0  0  0  0  0
   -0.7254   -3.6870   -3.9079 C   0  0  0  0  0  0  0  0  0  0  0  0
   -0.9930   -4.6836   -3.2543 O   0  0  0  0  0  0  0  0  0  0  0  0
   -0.1727   -2.5794   -3.3626 N   0  0  0  0  0  0  0  0  0  0  0  0
    0.2855   -2.4995   -1.9908 C   0  0  0  0  0  0  0  0  0  0  0  0
   -0.3678   -3.1805   -0.9369 C   0  0  0  0  0  0  0  0  0  0  0  0
    0.1317   -3.1137    0.3704 C   0  0  0  0  0  0  0  0  0  0  0  0
    1.2861   -2.3804    0.6482 C   0  0  0  0  0  0  0  0  0  0  0  0
    1.9483   -1.7113   -0.3785 C   0  0  0  0  0  0  0  0  0  0  0  0
    1.4578   -1.7718   -1.6855 C   0  0  0  0  0  0  0  0  0  0  0  0
    0.5985    1.7511    0.3085 C   0  0  0  0  0  0  0  0  0  0  0  0
   -0.2424    1.7003    1.3686 N   0  0  0  0  0  0  0  0  0  0  0  0
    2.0415    2.0732    0.4379 C   0  0  0  0  0  0  0  0  0  0  0  0
    2.7859    2.6062   -0.6300 C   0  0  0  0  0  0  0  0  0  0  0  0
    4.1540    2.8503   -0.4877 C   0  0  0  0  0  0  0  0  0  0  0  0
    4.8026    2.5588    0.7184 C   0  0  0  0  0  0  0  0  0  0  0  0
    6.2784    2.7929    0.8455 C   0  0  0  0  0  0  0  0  0  0  0  0
    4.0625    2.0474    1.7939 C   0  0  0  0  0  0  0  0  0  0  0  0
    2.6906    1.8181    1.6582 C   0  0  0  0  0  0  0  0  0  0  0  0
   -5.6883    0.3423    5.4432 H   0  0  0  0  0  0  0  0  0  0  0  0
   -6.7856    0.9222    4.1335 H   0  0  0  0  0  0  0  0  0  0  0  0
   -6.2757   -0.8114    4.1916 H   0  0  0  0  0  0  0  0  0  0  0  0
   -3.4161    1.0035    5.1029 H   0  0  0  0  0  0  0  0  0  0  0  0
   -1.4996    1.4640    3.6357 H   0  0  0  0  0  0  0  0  0  0  0  0
   -3.9741    0.6023    0.1949 H   0  0  0  0  0  0  0  0  0  0  0  0
   -5.8628    0.1549    1.6623 H   0  0  0  0  0  0  0  0  0  0  0  0
   -2.1688    0.6521   -0.9873 H   0  0  0  0  0  0  0  0  0  0  0  0
    1.3474    1.2776   -2.5535 H   0  0  0  0  0  0  0  0  0  0  0  0
   -0.4098   -4.5337   -5.8315 H   0  0  0  0  0  0  0  0  0  0  0  0
   -2.0170   -3.6769   -5.6273 H   0  0  0  0  0  0  0  0  0  0  0  0
   -1.2676   -3.7508   -1.1087 H   0  0  0  0  0  0  0  0  0  0  0  0
   -0.3771   -3.6351    1.1711 H   0  0  0  0  0  0  0  0  0  0  0  0
    1.6714   -2.3353    1.6592 H   0  0  0  0  0  0  0  0  0  0  0  0
    2.8492   -1.1495   -0.1645 H   0  0  0  0  0  0  0  0  0  0  0  0
    2.0053   -1.2622   -2.4672 H   0  0  0  0  0  0  0  0  0  0  0  0
    2.3172    2.8584   -1.5657 H   0  0  0  0  0  0  0  0  0  0  0  0
    4.7116    3.2609   -1.3209 H   0  0  0  0  0  0  0  0  0  0  0  0
    6.6544    2.4988    1.8483 H   0  0  0  0  0  0  0  0  0  0  0  0
    6.5038    3.8673    0.6828 H   0  0  0  0  0  0  0  0  0  0  0  0
    6.8147    2.1893    0.0823 H   0  0  0  0  0  0  0  0  0  0  0  0
    4.5480    1.8172    2.7339 H   0  0  0  0  0  0  0  0  0  0  0  0
    2.1412    1.4059    2.4956 H   0  0  0  0  0  0  0  0  0  0  0  0
  1 35  1  0  0  0  0
  1 36  1  0  0  0  0
  1 37  1  0  0  0  0
  2  1  1  0  0  0  0
  3  2  2  0  0  0  0
  3 38  1  0  0  0  0
  4  3  1  0  0  0  0
  4 39  1  0  0  0  0
  5  4  2  0  0  0  0
  6  5  1  0  0  0  0
  6 40  1  0  0  0  0
  7  6  2  0  0  0  0
  7  2  1  0  0  0  0
  7 41  1  0  0  0  0
  8  5  1  0  0  0  0
  9  8  1  0  0  0  0
  9 42  1  0  0  0  0
 10  9  2  0  0  0  0
 11 10  1  0  0  0  0
 11 43  1  0  0  0  0
 12 11  2  0  0  0  0
 13 12  1  0  0  0  0
 14 13  2  0  0  0  0
 15 14  1  0  0  0  0
 16 15  1  0  0  0  0
 16 44  1  0  0  0  0
 16 45  1  0  0  0  0
 17 16  1  0  0  0  0
 18 17  2  0  0  0  0
 19 17  1  0  0  0  0
 19 14  1  0  0  0  0
 20 19  1  0  0  0  0
 21 20  2  0  0  0  0
 21 46  1  0  0  0  0
 22 21  1  0  0  0  0
 22 47  1  0  0  0  0
 23 22  2  0  0  0  0
 23 48  1  0  0  0  0
 24 23  1  0  0  0  0
 24 49  1  0  0  0  0
 25 24  2  0  0  0  0
 25 20  1  0  0  0  0
 25 50  1  0  0  0  0
 26 10  1  0  0  0  0
 27 26  2  0  0  0  0
 27  8  1  0  0  0  0
 28 26  1  0  0  0  0
 29 28  2  0  0  0  0
 29 51  1  0  0  0  0
 30 29  1  0  0  0  0
 30 52  1  0  0  0  0
 31 30  2  0  0  0  0
 32 31  1  0  0  0  0
 32 53  1  0  0  0  0
 32 54  1  0  0  0  0
 32 55  1  0  0  0  0
 33 31  1  0  0  0  0
 33 56  1  0  0  0  0
 34 33  2  0  0  0  0
 34 28  1  0  0  0  0
 34 57  1  0  0  0  0
M  END
>  <MOL Chiral Flag>
0

>  <energy>
121.25233773204211

$$$$
> 51_AKC_AJPP2016.4401
>51.sdf
 OpenBabel10052218113D

 59 63  0  0  0  0  0  0  0  0999 V2000
    3.1487   -2.8501   -2.1653 C   0  0  0  0  0  0  0  0  0  0  0  0
    2.9987   -3.4591   -0.7752 C   0  0  0  0  0  0  0  0  0  0  0  0
    1.7786   -2.9345   -0.0557 C   0  0  0  0  0  0  0  0  0  0  0  0
    0.8562   -3.7036    0.1764 O   0  0  0  0  0  0  0  0  0  0  0  0
    1.7100   -1.6444    0.3865 N   0  0  0  0  0  0  0  0  0  0  0  0
    2.7121   -0.7358    0.2174 N   0  0  0  0  0  0  0  0  0  0  0  0
    2.4906    0.3118    0.9093 C   0  0  0  0  0  0  0  0  0  0  0  0
    1.2478    0.1781    1.7411 C   0  0  0  0  0  0  0  0  0  0  0  0
    0.5893   -1.0771    1.1051 C   0  0  1  0  0  0  0  0  0  0  0  0
   -0.4572   -0.6333    0.0960 C   0  0  0  0  0  0  0  0  0  0  0  0
   -0.1913   -0.1037   -1.1579 C   0  0  0  0  0  0  0  0  0  0  0  0
   -1.3638    0.1870   -1.7587 N   0  0  0  0  0  0  0  0  0  0  0  0
   -2.3603   -0.1392   -0.9506 N   0  0  0  0  0  0  0  0  0  0  0  0
   -1.8465   -0.6170    0.2008 C   0  0  0  0  0  0  0  0  0  0  0  0
   -2.7122   -0.8786    1.3732 C   0  0  0  0  0  0  0  0  0  0  0  0
   -2.2523   -0.6629    2.6851 C   0  0  0  0  0  0  0  0  0  0  0  0
   -3.1223   -0.7945    3.7692 C   0  0  0  0  0  0  0  0  0  0  0  0
   -4.4586   -1.1584    3.5636 C   0  0  0  0  0  0  0  0  0  0  0  0
   -5.3884   -1.2645    4.7344 C   0  0  0  0  0  0  0  0  0  0  0  0
   -4.9179   -1.3949    2.2600 C   0  0  0  0  0  0  0  0  0  0  0  0
   -4.0548   -1.2408    1.1724 C   0  0  0  0  0  0  0  0  0  0  0  0
   -1.5669    0.8339   -3.0350 C   0  0  0  0  0  0  0  0  0  0  0  0
   -2.8761    1.0487   -3.5090 C   0  0  0  0  0  0  0  0  0  0  0  0
   -3.0937    1.7125   -4.7192 C   0  0  0  0  0  0  0  0  0  0  0  0
   -2.0116    2.1740   -5.4696 C   0  0  0  0  0  0  0  0  0  0  0  0
   -0.7078    1.9683   -5.0140 C   0  0  0  0  0  0  0  0  0  0  0  0
   -0.4807    1.3009   -3.8052 C   0  0  0  0  0  0  0  0  0  0  0  0
    3.3767    1.4964    0.9297 C   0  0  0  0  0  0  0  0  0  0  0  0
    3.2466    2.4530    1.9538 C   0  0  0  0  0  0  0  0  0  0  0  0
    4.0530    3.5920    1.9620 C   0  0  0  0  0  0  0  0  0  0  0  0
    4.9819    3.7981    0.9407 C   0  0  0  0  0  0  0  0  0  0  0  0
    5.1150    2.8572   -0.0848 C   0  0  0  0  0  0  0  0  0  0  0  0
    4.3229    1.7036   -0.0881 C   0  0  0  0  0  0  0  0  0  0  0  0
    2.2578   -3.0987   -2.7813 H   0  0  0  0  0  0  0  0  0  0  0  0
    3.2633   -1.7489   -2.1176 H   0  0  0  0  0  0  0  0  0  0  0  0
    4.0472   -3.2784   -2.6588 H   0  0  0  0  0  0  0  0  0  0  0  0
    3.9050   -3.2646   -0.1615 H   0  0  0  0  0  0  0  0  0  0  0  0
    2.9072   -4.5605   -0.9054 H   0  0  0  0  0  0  0  0  0  0  0  0
    1.5934   -0.0263    2.7781 H   0  0  0  0  0  0  0  0  0  0  0  0
    0.5668    1.0565    1.7257 H   0  0  0  0  0  0  0  0  0  0  0  0
    0.1851   -1.7335    1.9044 H   0  0  0  0  0  0  0  0  0  0  0  0
    0.7888    0.0666   -1.5798 H   0  0  0  0  0  0  0  0  0  0  0  0
   -1.2450   -0.3347    2.8787 H   0  0  0  0  0  0  0  0  0  0  0  0
   -2.7602   -0.5910    4.7696 H   0  0  0  0  0  0  0  0  0  0  0  0
   -5.0022   -2.0131    5.4562 H   0  0  0  0  0  0  0  0  0  0  0  0
   -5.4574   -0.2757    5.2370 H   0  0  0  0  0  0  0  0  0  0  0  0
   -6.4098   -1.5655    4.4190 H   0  0  0  0  0  0  0  0  0  0  0  0
   -5.9486   -1.6748    2.0830 H   0  0  0  0  0  0  0  0  0  0  0  0
   -4.4346   -1.4007    0.1706 H   0  0  0  0  0  0  0  0  0  0  0  0
   -3.7300    0.7085   -2.9376 H   0  0  0  0  0  0  0  0  0  0  0  0
   -4.1043    1.8751   -5.0714 H   0  0  0  0  0  0  0  0  0  0  0  0
   -2.1838    2.6949   -6.4026 H   0  0  0  0  0  0  0  0  0  0  0  0
    0.1291    2.3334   -5.5953 H   0  0  0  0  0  0  0  0  0  0  0  0
    0.5384    1.1694   -3.4742 H   0  0  0  0  0  0  0  0  0  0  0  0
    2.5273    2.3159    2.7513 H   0  0  0  0  0  0  0  0  0  0  0  0
    3.9511    4.3183    2.7583 H   0  0  0  0  0  0  0  0  0  0  0  0
    5.5957    4.6891    0.9428 H   0  0  0  0  0  0  0  0  0  0  0  0
    5.8278    3.0255   -0.8810 H   0  0  0  0  0  0  0  0  0  0  0  0
    4.4268    0.9904   -0.8965 H   0  0  0  0  0  0  0  0  0  0  0  0
  1 34  1  0  0  0  0
  1 35  1  0  0  0  0
  1 36  1  0  0  0  0
  2  1  1  0  0  0  0
  2 37  1  0  0  0  0
  2 38  1  0  0  0  0
  3  2  1  0  0  0  0
  4  3  2  0  0  0  0
  5  3  1  0  0  0  0
  6  5  1  0  0  0  0
  7  6  2  0  0  0  0
  8  7  1  0  0  0  0
  8 39  1  0  0  0  0
  8 40  1  0  0  0  0
  9  8  1  0  0  0  0
  9  5  1  0  0  0  0
  9 41  1  1  0  0  0
 10  9  1  0  0  0  0
 11 10  2  0  0  0  0
 11 42  1  0  0  0  0
 12 11  1  0  0  0  0
 13 12  1  0  0  0  0
 14 13  2  0  0  0  0
 14 10  1  0  0  0  0
 15 14  1  0  0  0  0
 16 15  2  0  0  0  0
 16 43  1  0  0  0  0
 17 16  1  0  0  0  0
 17 44  1  0  0  0  0
 18 17  2  0  0  0  0
 19 18  1  0  0  0  0
 19 45  1  0  0  0  0
 19 46  1  0  0  0  0
 19 47  1  0  0  0  0
 20 18  1  0  0  0  0
 20 48  1  0  0  0  0
 21 20  2  0  0  0  0
 21 15  1  0  0  0  0
 21 49  1  0  0  0  0
 22 12  1  0  0  0  0
 23 22  2  0  0  0  0
 23 50  1  0  0  0  0
 24 23  1  0  0  0  0
 24 51  1  0  0  0  0
 25 24  2  0  0  0  0
 25 52  1  0  0  0  0
 26 25  1  0  0  0  0
 26 53  1  0  0  0  0
 27 26  2  0  0  0  0
 27 22  1  0  0  0  0
 27 54  1  0  0  0  0
 28  7  1  0  0  0  0
 29 28  2  0  0  0  0
 29 55  1  0  0  0  0
 30 29  1  0  0  0  0
 30 56  1  0  0  0  0
 31 30  2  0  0  0  0
 31 57  1  0  0  0  0
 32 31  1  0  0  0  0
 32 58  1  0  0  0  0
 33 32  2  0  0  0  0
 33 28  1  0  0  0  0
 33 59  1  0  0  0  0
M  END
>  <MOL Chiral Flag>
0

>  <energy>
119.46395511510815

$$$$
> 52_AKC_acs.jmedchem.5b01456
>52.sdf
 OpenBabel10052218123D

 46 49  0  0  0  0  0  0  0  0999 V2000
   -3.2461    3.3411    6.4618 F   0  0  0  0  0  0  0  0  0  0  0  0
   -3.3629    2.8748    5.1941 C   0  0  0  0  0  0  0  0  0  0  0  0
   -3.0209    3.6903    4.1194 C   0  0  0  0  0  0  0  0  0  0  0  0
   -3.1391    3.2171    2.8118 C   0  0  0  0  0  0  0  0  0  0  0  0
   -3.6059    1.9033    2.5499 C   0  0  0  0  0  0  0  0  0  0  0  0
   -3.9413    1.0895    3.6587 C   0  0  0  0  0  0  0  0  0  0  0  0
   -3.8217    1.5786    4.9646 C   0  0  0  0  0  0  0  0  0  0  0  0
   -3.7138    1.4180    1.1902 N   0  0  0  0  0  0  0  0  0  0  0  0
   -3.7546    2.3068    0.0511 C   0  0  0  0  0  0  0  0  0  0  0  0
   -2.4967    2.1023   -0.7696 C   0  0  0  0  0  0  0  0  0  0  0  0
   -2.0634    0.7037   -0.9072 N   0  0  0  0  0  0  0  0  0  0  0  0
   -2.6321   -0.3791   -0.0802 C   0  0  0  0  0  0  0  0  0  0  0  0
   -3.8172    0.0167    0.8234 C   0  0  0  0  0  0  0  0  0  0  0  0
   -0.9674    0.4637   -1.7082 C   0  0  0  0  0  0  0  0  0  0  0  0
   -0.4215    1.4144   -2.2572 O   0  0  0  0  0  0  0  0  0  0  0  0
   -0.4902   -0.8035   -1.9353 N   0  0  0  0  0  0  0  0  0  0  0  0
    0.6822   -1.0547   -2.7120 C   0  0  0  0  0  0  0  0  0  0  0  0
    1.7314   -0.1858   -2.9425 C   0  0  0  0  0  0  0  0  0  0  0  0
    2.5990   -0.8938   -3.7508 C   0  0  0  0  0  0  0  0  0  0  0  0
    2.0866   -2.1219   -3.9858 N   0  0  0  0  0  0  0  0  0  0  0  0
    0.9340   -2.2179   -3.3383 N   0  0  0  0  0  0  0  0  0  0  0  0
    3.8875   -0.4121   -4.2880 C   0  0  0  0  0  0  0  0  0  0  0  0
    4.5235   -1.1320   -5.2545 N   0  0  0  0  0  0  0  0  0  0  0  0
    5.7033   -0.7199   -5.7943 C   0  0  0  0  0  0  0  0  0  0  0  0
    6.3057    0.4587   -5.3486 C   0  0  0  0  0  0  0  0  0  0  0  0
    5.6849    1.2083   -4.3512 C   0  0  0  0  0  0  0  0  0  0  0  0
    4.4687    0.7813   -3.8201 C   0  0  0  0  0  0  0  0  0  0  0  0
   -2.6569    4.6947    4.2966 H   0  0  0  0  0  0  0  0  0  0  0  0
   -2.8393    3.8835    2.0194 H   0  0  0  0  0  0  0  0  0  0  0  0
   -4.3115    0.0861    3.5383 H   0  0  0  0  0  0  0  0  0  0  0  0
   -4.0878    0.9474    5.8025 H   0  0  0  0  0  0  0  0  0  0  0  0
   -3.8848    3.3788    0.2867 H   0  0  0  0  0  0  0  0  0  0  0  0
   -4.6469    2.0437   -0.5605 H   0  0  0  0  0  0  0  0  0  0  0  0
   -2.6758    2.5622   -1.7670 H   0  0  0  0  0  0  0  0  0  0  0  0
   -1.6683    2.6565   -0.2743 H   0  0  0  0  0  0  0  0  0  0  0  0
   -1.8120   -0.7101    0.5955 H   0  0  0  0  0  0  0  0  0  0  0  0
   -2.9566   -1.2489   -0.6905 H   0  0  0  0  0  0  0  0  0  0  0  0
   -4.7621   -0.1055    0.2485 H   0  0  0  0  0  0  0  0  0  0  0  0
   -3.8681   -0.7019    1.6603 H   0  0  0  0  0  0  0  0  0  0  0  0
   -1.0067   -1.6239   -1.5915 H   0  0  0  0  0  0  0  0  0  0  0  0
    1.8596    0.8201   -2.5732 H   0  0  0  0  0  0  0  0  0  0  0  0
    0.3216   -3.0640   -3.3495 H   0  0  0  0  0  0  0  0  0  0  0  0
    6.1744   -1.3069   -6.5709 H   0  0  0  0  0  0  0  0  0  0  0  0
    7.2459    0.7877   -5.7715 H   0  0  0  0  0  0  0  0  0  0  0  0
    6.1435    2.1201   -3.9902 H   0  0  0  0  0  0  0  0  0  0  0  0
    3.9987    1.3710   -3.0454 H   0  0  0  0  0  0  0  0  0  0  0  0
  2  1  1  0  0  0  0
  3  2  2  0  0  0  0
  3 28  1  0  0  0  0
  4  3  1  0  0  0  0
  4 29  1  0  0  0  0
  5  4  2  0  0  0  0
  6  5  1  0  0  0  0
  6 30  1  0  0  0  0
  7  6  2  0  0  0  0
  7  2  1  0  0  0  0
  7 31  1  0  0  0  0
  8  5  1  0  0  0  0
  9  8  1  0  0  0  0
  9 32  1  0  0  0  0
  9 33  1  0  0  0  0
 10  9  1  0  0  0  0
 10 34  1  0  0  0  0
 10 35  1  0  0  0  0
 11 10  1  0  0  0  0
 12 11  1  0  0  0  0
 12 36  1  0  0  0  0
 12 37  1  0  0  0  0
 13 12  1  0  0  0  0
 13  8  1  0  0  0  0
 13 38  1  0  0  0  0
 13 39  1  0  0  0  0
 14 11  1  0  0  0  0
 15 14  2  0  0  0  0
 16 14  1  0  0  0  0
 16 40  1  0  0  0  0
 17 16  1  0  0  0  0
 18 17  2  0  0  0  0
 18 41  1  0  0  0  0
 19 18  1  0  0  0  0
 20 19  2  0  0  0  0
 21 20  1  0  0  0  0
 21 17  1  0  0  0  0
 21 42  1  0  0  0  0
 22 19  1  0  0  0  0
 23 22  2  0  0  0  0
 24 23  1  0  0  0  0
 24 43  1  0  0  0  0
 25 24  2  0  0  0  0
 25 44  1  0  0  0  0
 26 25  1  0  0  0  0
 26 45  1  0  0  0  0
 27 26  2  0  0  0  0
 27 22  1  0  0  0  0
 27 46  1  0  0  0  0
M  END
>  <MOL Chiral Flag>
0

>  <energy>
104.83402605916163

$$$$
> 53_AKC_molecules18044718
>53.sdf
 OpenBabel10052218133D

 39 41  0  0  0  0  0  0  0  0999 V2000
    0.4342    1.3972    2.0138 O   0  5  0  0  0  0  0  0  0  0  0  0
    1.0026    0.7856    0.9726 N   0  3  0  0  0  0  0  0  0  0  0  0
    0.2216    0.1136    0.0888 C   0  0  0  0  0  0  0  0  0  0  0  0
   -1.1536    0.1191    0.2725 N   0  0  0  0  0  0  0  0  0  0  0  0
   -1.8262   -0.9557    0.7783 C   0  0  0  0  0  0  0  0  0  0  0  0
   -1.2629   -2.0198    0.9860 O   0  0  0  0  0  0  0  0  0  0  0  0
   -3.2616   -0.7585    1.1403 C   0  0  0  0  0  0  0  0  0  0  0  0
   -4.0095   -0.6354   -0.2015 C   0  0  0  0  0  0  0  0  0  0  0  0
   -5.2187    0.2631   -0.1966 C   0  0  0  0  0  0  0  0  0  0  0  0
   -4.9209    1.5862    0.5350 C   0  0  0  0  0  0  0  0  0  0  0  0
   -4.4702    1.3721    1.9887 C   0  0  0  0  0  0  0  0  0  0  0  0
   -3.2629    0.4670    2.1216 C   0  0  0  0  0  0  0  0  0  0  0  0
    0.7744   -0.5327   -1.0125 C   0  0  0  0  0  0  0  0  0  0  0  0
   -0.0765   -1.2148   -1.9660 C   0  0  0  0  0  0  0  0  0  0  0  0
   -0.7114   -1.7712   -2.7576 N   0  0  0  0  0  0  0  0  0  0  0  0
    2.1192   -0.4881   -1.2044 N   0  3  0  0  0  0  0  0  0  0  0  0
    2.6452   -1.0934   -2.2693 O   0  5  0  0  0  0  0  0  0  0  0  0
    2.9230    0.1778   -0.3164 C   0  0  0  0  0  0  0  0  0  0  0  0
    2.3477    0.8217    0.8056 C   0  0  0  0  0  0  0  0  0  0  0  0
    3.1649    1.4908    1.7300 C   0  0  0  0  0  0  0  0  0  0  0  0
    4.5415    1.5325    1.5373 C   0  0  0  0  0  0  0  0  0  0  0  0
    5.1134    0.9146    0.4212 C   0  0  0  0  0  0  0  0  0  0  0  0
    6.8443    0.9866    0.1760 Cl  0  0  0  0  0  0  0  0  0  0  0  0
    4.3097    0.2381   -0.5014 C   0  0  0  0  0  0  0  0  0  0  0  0
   -1.6180    1.0355    0.1710 H   0  0  0  0  0  0  0  0  0  0  0  0
   -3.7416   -1.6182    1.6428 H   0  0  0  0  0  0  0  0  0  0  0  0
   -3.3516   -0.0699   -0.9474 H   0  0  0  0  0  0  0  0  0  0  0  0
   -4.4323   -1.7006   -0.3940 H   0  0  0  0  0  0  0  0  0  0  0  0
   -6.0561   -0.2520    0.3827 H   0  0  0  0  0  0  0  0  0  0  0  0
   -5.3136    0.5176   -1.3700 H   0  0  0  0  0  0  0  0  0  0  0  0
   -4.1594    2.1573   -0.0367 H   0  0  0  0  0  0  0  0  0  0  0  0
   -5.8720    2.1568    0.5720 H   0  0  0  0  0  0  0  0  0  0  0  0
   -5.2751    0.8615    2.5060 H   0  0  0  0  0  0  0  0  0  0  0  0
   -4.2800    2.3495    2.5088 H   0  0  0  0  0  0  0  0  0  0  0  0
   -2.3870    1.1441    2.0576 H   0  0  0  0  0  0  0  0  0  0  0  0
   -3.1734    0.0830    3.1629 H   0  0  0  0  0  0  0  0  0  0  0  0
    2.7373    1.9782    2.5993 H   0  0  0  0  0  0  0  0  0  0  0  0
    5.1623    2.0499    2.2554 H   0  0  0  0  0  0  0  0  0  0  0  0
    4.7649   -0.2369   -1.3588 H   0  0  0  0  0  0  0  0  0  0  0  0
  2  1  1  0  0  0  0
  3  2  2  0  0  0  0
  4  3  1  0  0  0  0
  4 25  1  0  0  0  0
  5  4  1  0  0  0  0
  6  5  2  0  0  0  0
  7  5  1  0  0  0  0
  7 26  1  0  0  0  0
  8  7  1  0  0  0  0
  8 27  1  0  0  0  0
  8 28  1  0  0  0  0
  9  8  1  0  0  0  0
  9 29  1  0  0  0  0
  9 30  1  0  0  0  0
 10  9  1  0  0  0  0
 10 31  1  0  0  0  0
 10 32  1  0  0  0  0
 11 10  1  0  0  0  0
 11 33  1  0  0  0  0
 11 34  1  0  0  0  0
 12 11  1  0  0  0  0
 12  7  1  0  0  0  0
 12 35  1  0  0  0  0
 12 36  1  0  0  0  0
 13  3  1  0  0  0  0
 14 13  1  0  0  0  0
 15 14  3  0  0  0  0
 16 13  2  0  0  0  0
 17 16  1  0  0  0  0
 18 16  1  0  0  0  0
 19 18  2  0  0  0  0
 19  2  1  0  0  0  0
 20 19  1  0  0  0  0
 20 37  1  0  0  0  0
 21 20  2  0  0  0  0
 21 38  1  0  0  0  0
 22 21  1  0  0  0  0
 23 22  1  0  0  0  0
 24 22  2  0  0  0  0
 24 18  1  0  0  0  0
 24 39  1  0  0  0  0
M  CHG  4   1  -1   2   1  16   1  17  -1
M  END
>  <MOL Chiral Flag>
0

>  <energy>
26.290741058099101

$$$$
> 54_AKC_j.bmc.2018.06.033
>54.sdf
 OpenBabel10052218133D

 22 23  0  0  0  0  0  0  0  0999 V2000
   -3.4005   -0.7529    1.3048 C   0  0  0  0  0  0  0  0  0  0  0  0
   -2.9407    0.6322    0.2346 S   0  0  0  0  0  0  0  0  0  0  0  0
   -3.8122    0.6244   -1.0307 O   0  0  0  0  0  0  0  0  0  0  0  0
   -3.3471    1.9590    0.8942 O   0  0  0  0  0  0  0  0  0  0  0  0
   -1.2195    0.6784   -0.2088 C   0  0  0  0  0  0  0  0  0  0  0  0
   -0.4272   -0.2751    0.3348 N   0  0  0  0  0  0  0  0  0  0  0  0
    0.8938   -0.3373    0.0649 C   0  0  0  0  0  0  0  0  0  0  0  0
    1.4637    0.6108   -0.8025 C   0  0  0  0  0  0  0  0  0  0  0  0
    2.8323    0.5508   -1.0865 C   0  0  0  0  0  0  0  0  0  0  0  0
    3.6214   -0.4523   -0.5043 C   0  0  0  0  0  0  0  0  0  0  0  0
    5.4885   -0.5405   -0.8864 Br  0  0  0  0  0  0  0  0  0  0  0  0
    3.0430   -1.3928    0.3594 C   0  0  0  0  0  0  0  0  0  0  0  0
    1.6780   -1.3342    0.6434 C   0  0  0  0  0  0  0  0  0  0  0  0
    0.6752    1.5735   -1.3536 N   0  0  0  0  0  0  0  0  0  0  0  0
   -0.6588    1.6326   -1.0780 C   0  0  0  0  0  0  0  0  0  0  0  0
   -1.6317    2.8950   -1.8162 Cl  0  0  0  0  0  0  0  0  0  0  0  0
   -3.1650   -1.6981    0.7712 H   0  0  0  0  0  0  0  0  0  0  0  0
   -2.7783   -0.7033    2.2237 H   0  0  0  0  0  0  0  0  0  0  0  0
   -4.4739   -0.7173    1.5682 H   0  0  0  0  0  0  0  0  0  0  0  0
    3.2801    1.2762   -1.7531 H   0  0  0  0  0  0  0  0  0  0  0  0
    3.6485   -2.1679    0.8101 H   0  0  0  0  0  0  0  0  0  0  0  0
    1.2304   -2.0615    1.3111 H   0  0  0  0  0  0  0  0  0  0  0  0
  1 17  1  0  0  0  0
  1 18  1  0  0  0  0
  1 19  1  0  0  0  0
  2  1  1  0  0  0  0
  3  2  2  0  0  0  0
  4  2  2  0  0  0  0
  5  2  1  0  0  0  0
  6  5  2  0  0  0  0
  7  6  1  0  0  0  0
  8  7  2  0  0  0  0
  9  8  1  0  0  0  0
  9 20  1  0  0  0  0
 10  9  2  0  0  0  0
 11 10  1  0  0  0  0
 12 10  1  0  0  0  0
 12 21  1  0  0  0  0
 13 12  2  0  0  0  0
 13  7  1  0  0  0  0
 13 22  1  0  0  0  0
 14  8  1  0  0  0  0
 15 14  2  0  0  0  0
 15  5  1  0  0  0  0
 16 15  1  0  0  0  0
M  END
>  <MOL Chiral Flag>
0

>  <energy>
99.632384022418819

$$$$
> 55_AKC_AAC.02582-15
>55.sdf
 OpenBabel10042212333D

 36 39  0  0  0  0  0  0  0  0999 V2000
   -6.2515    2.5332   -0.4049 Cl  0  0  0  0  0  0  0  0  0  0  0  0
   -4.9554    1.3912   -0.3353 C   0  0  0  0  0  0  0  0  0  0  0  0
   -3.6679    1.8878   -0.1306 C   0  0  0  0  0  0  0  0  0  0  0  0
   -2.5686    1.0416   -0.1000 C   0  0  0  0  0  0  0  0  0  0  0  0
   -2.7641   -0.3510   -0.2290 C   0  0  0  0  0  0  0  0  0  0  0  0
   -4.0537   -0.8443   -0.4030 C   0  0  0  0  0  0  0  0  0  0  0  0
   -5.1480    0.0196   -0.4825 C   0  0  0  0  0  0  0  0  0  0  0  0
   -6.7017   -0.6672   -0.7945 Cl  0  0  0  0  0  0  0  0  0  0  0  0
   -1.7259   -1.2046   -0.2160 N   0  0  0  0  0  0  0  0  0  0  0  0
   -0.4774   -0.6677   -0.0937 C   0  0  0  0  0  0  0  0  0  0  0  0
    0.6154   -1.6429   -0.1362 C   0  0  0  0  0  0  0  0  0  0  0  0
    0.8545   -2.4836    0.9669 C   0  0  0  0  0  0  0  0  0  0  0  0
    1.9248   -3.3786    0.9534 C   0  0  0  0  0  0  0  0  0  0  0  0
    2.7499   -3.4606   -0.1711 C   0  0  0  0  0  0  0  0  0  0  0  0
    2.5121   -2.6520   -1.2845 C   0  0  0  0  0  0  0  0  0  0  0  0
    1.4499   -1.7460   -1.2669 C   0  0  0  0  0  0  0  0  0  0  0  0
   -0.2813    0.7120    0.0530 C   0  0  0  0  0  0  0  0  0  0  0  0
   -1.3376    1.5698    0.0436 N   0  0  0  0  0  0  0  0  0  0  0  0
    1.0271    1.3606    0.2500 C   0  0  0  0  0  0  0  0  0  0  0  0
    1.7671    1.1588    1.4292 C   0  0  0  0  0  0  0  0  0  0  0  0
    2.9929    1.8004    1.6270 C   0  0  0  0  0  0  0  0  0  0  0  0
    3.4983    2.6581    0.6520 C   0  0  0  0  0  0  0  0  0  0  0  0
    2.7839    2.8694   -0.5252 C   0  0  0  0  0  0  0  0  0  0  0  0
    1.5547    2.2305   -0.7209 C   0  0  0  0  0  0  0  0  0  0  0  0
   -3.4972    2.9563   -0.0096 H   0  0  0  0  0  0  0  0  0  0  0  0
   -4.1977   -1.9204   -0.4998 H   0  0  0  0  0  0  0  0  0  0  0  0
    0.2125   -2.4349    1.8476 H   0  0  0  0  0  0  0  0  0  0  0  0
    2.1166   -4.0037    1.8257 H   0  0  0  0  0  0  0  0  0  0  0  0
    3.5789   -4.1633   -0.1770 H   0  0  0  0  0  0  0  0  0  0  0  0
    3.1489   -2.7218   -2.1664 H   0  0  0  0  0  0  0  0  0  0  0  0
    1.2778   -1.1224   -2.1446 H   0  0  0  0  0  0  0  0  0  0  0  0
    1.3839    0.5082    2.2130 H   0  0  0  0  0  0  0  0  0  0  0  0
    3.5503    1.6385    2.5463 H   0  0  0  0  0  0  0  0  0  0  0  0
    4.4457    3.1688    0.8103 H   0  0  0  0  0  0  0  0  0  0  0  0
    3.1795    3.5400   -1.2849 H   0  0  0  0  0  0  0  0  0  0  0  0
    1.0031    2.4198   -1.6415 H   0  0  0  0  0  0  0  0  0  0  0  0
  2  1  1  0  0  0  0
  3  2  2  0  0  0  0
  3 25  1  0  0  0  0
  4  3  1  0  0  0  0
  5  4  2  0  0  0  0
  6  5  1  0  0  0  0
  6 26  1  0  0  0  0
  7  6  2  0  0  0  0
  7  2  1  0  0  0  0
  8  7  1  0  0  0  0
  9  5  1  0  0  0  0
 10  9  2  0  0  0  0
 11 10  1  0  0  0  0
 12 11  2  0  0  0  0
 12 27  1  0  0  0  0
 13 12  1  0  0  0  0
 13 28  1  0  0  0  0
 14 13  2  0  0  0  0
 14 29  1  0  0  0  0
 15 14  1  0  0  0  0
 15 30  1  0  0  0  0
 16 15  2  0  0  0  0
 16 11  1  0  0  0  0
 16 31  1  0  0  0  0
 17 10  1  0  0  0  0
 18 17  2  0  0  0  0
 18  4  1  0  0  0  0
 19 17  1  0  0  0  0
 20 19  2  0  0  0  0
 20 32  1  0  0  0  0
 21 20  1  0  0  0  0
 21 33  1  0  0  0  0
 22 21  2  0  0  0  0
 22 34  1  0  0  0  0
 23 22  1  0  0  0  0
 23 35  1  0  0  0  0
 24 23  2  0  0  0  0
 24 19  1  0  0  0  0
 24 36  1  0  0  0  0
M  END
>  <energy>
133.58742848068974

$$$$
> 56_AKC_j.ejmech.2014.12.051
>56.sdf
 OpenBabel10052218133D

 36 38  0  0  0  0  0  0  0  0999 V2000
    4.1296    3.1878    0.7476 C   0  0  0  0  0  0  0  0  0  0  0  0
    4.2084    2.0877    1.5774 O   0  0  0  0  0  0  0  0  0  0  0  0
    3.5125    0.9487    1.3506 C   0  0  0  0  0  0  0  0  0  0  0  0
    2.8368    0.3573    2.4200 C   0  0  0  0  0  0  0  0  0  0  0  0
    2.0370   -0.7640    2.2122 C   0  0  0  0  0  0  0  0  0  0  0  0
    1.9051   -1.3121    0.9303 C   0  0  0  0  0  0  0  0  0  0  0  0
    0.9740   -2.3657    0.7319 N   0  0  0  0  0  0  0  0  0  0  0  0
   -0.3362   -2.0254    0.2592 C   0  0  0  0  0  0  0  0  0  0  0  0
   -1.4411   -2.7471    0.7350 C   0  0  0  0  0  0  0  0  0  0  0  0
   -2.7393   -2.3475    0.4186 C   0  0  0  0  0  0  0  0  0  0  0  0
   -2.9564   -1.2275   -0.3872 C   0  0  0  0  0  0  0  0  0  0  0  0
   -4.2268   -0.8148   -0.6318 N   0  0  0  0  0  0  0  0  0  0  0  0
   -4.4727    0.2819   -1.3902 C   0  0  0  0  0  0  0  0  0  0  0  0
   -5.8003    0.7286   -1.5739 N   0  0  0  0  0  0  0  0  0  0  0  0
   -3.4453    0.9675   -1.9516 N   0  0  0  0  0  0  0  0  0  0  0  0
   -2.1485    0.6055   -1.7544 C   0  0  0  0  0  0  0  0  0  0  0  0
   -1.1336    1.3718   -2.3895 N   0  0  0  0  0  0  0  0  0  0  0  0
   -1.8649   -0.5120   -0.9255 C   0  0  0  0  0  0  0  0  0  0  0  0
   -0.5557   -0.9194   -0.5942 C   0  0  0  0  0  0  0  0  0  0  0  0
    2.6249   -0.7587   -0.1393 C   0  0  0  0  0  0  0  0  0  0  0  0
    3.4263    0.3691    0.0679 C   0  0  0  0  0  0  0  0  0  0  0  0
    4.7870    3.9891    1.1398 H   0  0  0  0  0  0  0  0  0  0  0  0
    4.4337    2.9491   -0.2906 H   0  0  0  0  0  0  0  0  0  0  0  0
    3.0832    3.5681    0.7487 H   0  0  0  0  0  0  0  0  0  0  0  0
    2.8921    0.7995    3.4066 H   0  0  0  0  0  0  0  0  0  0  0  0
    1.4726   -1.1769    3.0390 H   0  0  0  0  0  0  0  0  0  0  0  0
    0.9953   -3.1182    1.4376 H   0  0  0  0  0  0  0  0  0  0  0  0
   -1.2966   -3.5928    1.3956 H   0  0  0  0  0  0  0  0  0  0  0  0
   -3.5797   -2.8940    0.8276 H   0  0  0  0  0  0  0  0  0  0  0  0
   -5.9902    1.5785   -2.1241 H   0  0  0  0  0  0  0  0  0  0  0  0
   -6.5815    0.2334   -1.1207 H   0  0  0  0  0  0  0  0  0  0  0  0
   -1.4008    2.1698   -2.9838 H   0  0  0  0  0  0  0  0  0  0  0  0
   -0.1356    1.1396   -2.3271 H   0  0  0  0  0  0  0  0  0  0  0  0
    0.2842   -0.3677   -0.9596 H   0  0  0  0  0  0  0  0  0  0  0  0
    2.5418   -1.1840   -1.1322 H   0  0  0  0  0  0  0  0  0  0  0  0
    3.9606    0.7945   -0.7704 H   0  0  0  0  0  0  0  0  0  0  0  0
  1 22  1  0  0  0  0
  1 23  1  0  0  0  0
  1 24  1  0  0  0  0
  2  1  1  0  0  0  0
  3  2  1  0  0  0  0
  4  3  2  0  0  0  0
  4 25  1  0  0  0  0
  5  4  1  0  0  0  0
  5 26  1  0  0  0  0
  6  5  2  0  0  0  0
  7  6  1  0  0  0  0
  7 27  1  0  0  0  0
  8  7  1  0  0  0  0
  9  8  2  0  0  0  0
  9 28  1  0  0  0  0
 10  9  1  0  0  0  0
 10 29  1  0  0  0  0
 11 10  2  0  0  0  0
 12 11  1  0  0  0  0
 13 12  2  0  0  0  0
 14 13  1  0  0  0  0
 14 30  1  0  0  0  0
 14 31  1  0  0  0  0
 15 13  1  0  0  0  0
 16 15  2  0  0  0  0
 17 16  1  0  0  0  0
 17 32  1  0  0  0  0
 17 33  1  0  0  0  0
 18 16  1  0  0  0  0
 18 11  1  0  0  0  0
 19 18  2  0  0  0  0
 19  8  1  0  0  0  0
 19 34  1  0  0  0  0
 20  6  1  0  0  0  0
 20 35  1  0  0  0  0
 21 20  2  0  0  0  0
 21  3  1  0  0  0  0
 21 36  1  0  0  0  0
M  END
>  <MOL Chiral Flag>
0

>  <energy>
-93.926365626716517

$$$$
> 57_AKC_S0925-4439(02)00088-1
>57.sdf
 OpenBabel10052218143D

 41 43  0  0  0  0  0  0  0  0999 V2000
    2.6368    1.8214    1.8347 C   0  0  0  0  0  0  0  0  0  0  0  0
    2.1757    2.1872    0.4235 C   0  0  0  0  0  0  0  0  0  0  0  0
    0.8410    1.6703    0.1392 N   0  0  0  0  0  0  0  0  0  0  0  0
    0.0990    2.3093   -0.9409 C   0  0  0  0  0  0  0  0  0  0  0  0
   -1.3670    2.4078   -0.6161 C   0  0  0  0  0  0  0  0  0  0  0  0
   -1.7974    3.2079    0.4532 C   0  0  0  0  0  0  0  0  0  0  0  0
   -3.1602    3.3142    0.7468 C   0  0  0  0  0  0  0  0  0  0  0  0
   -4.1000    2.6178   -0.0209 C   0  0  0  0  0  0  0  0  0  0  0  0
   -5.8093    2.7543    0.3478 Cl  0  0  0  0  0  0  0  0  0  0  0  0
   -3.6759    1.8143   -1.0843 C   0  0  0  0  0  0  0  0  0  0  0  0
   -2.3147    1.7107   -1.3845 C   0  0  0  0  0  0  0  0  0  0  0  0
    0.5911    0.2769    0.3176 C   0  0  0  0  0  0  0  0  0  0  0  0
   -0.3981   -0.1513    1.2111 C   0  0  0  0  0  0  0  0  0  0  0  0
   -0.6717   -1.5129    1.3555 C   0  0  0  0  0  0  0  0  0  0  0  0
    0.0271   -2.4566    0.5940 C   0  0  0  0  0  0  0  0  0  0  0  0
   -0.2695   -3.7758    0.7213 N   0  0  0  0  0  0  0  0  0  0  0  0
    0.3732   -4.7131   -0.0204 C   0  0  0  0  0  0  0  0  0  0  0  0
    0.0360   -6.0774    0.1188 N   0  0  0  0  0  0  0  0  0  0  0  0
    1.3332   -4.3413   -0.9049 N   0  0  0  0  0  0  0  0  0  0  0  0
    1.6852   -3.0392   -1.0782 C   0  0  0  0  0  0  0  0  0  0  0  0
    2.6948   -2.7356   -2.0310 N   0  0  0  0  0  0  0  0  0  0  0  0
    1.0259   -2.0409   -0.3170 C   0  0  0  0  0  0  0  0  0  0  0  0
    1.3059   -0.6643   -0.4380 C   0  0  0  0  0  0  0  0  0  0  0  0
    3.6423    2.2551    2.0197 H   0  0  0  0  0  0  0  0  0  0  0  0
    1.9272    2.2311    2.5846 H   0  0  0  0  0  0  0  0  0  0  0  0
    2.7046    0.7203    1.9580 H   0  0  0  0  0  0  0  0  0  0  0  0
    2.1729    3.2975    0.3614 H   0  0  0  0  0  0  0  0  0  0  0  0
    2.9013    1.8008   -0.3238 H   0  0  0  0  0  0  0  0  0  0  0  0
    0.4764    3.3344   -1.1472 H   0  0  0  0  0  0  0  0  0  0  0  0
    0.2572    1.7210   -1.8730 H   0  0  0  0  0  0  0  0  0  0  0  0
   -1.0769    3.7531    1.0502 H   0  0  0  0  0  0  0  0  0  0  0  0
   -3.4852    3.9392    1.5685 H   0  0  0  0  0  0  0  0  0  0  0  0
   -4.4002    1.2727   -1.6796 H   0  0  0  0  0  0  0  0  0  0  0  0
   -1.9997    1.0863   -2.2116 H   0  0  0  0  0  0  0  0  0  0  0  0
   -0.9548    0.5717    1.7940 H   0  0  0  0  0  0  0  0  0  0  0  0
   -1.4382   -1.8341    2.0505 H   0  0  0  0  0  0  0  0  0  0  0  0
   -0.6941   -6.3676    0.7848 H   0  0  0  0  0  0  0  0  0  0  0  0
    0.5126   -6.7902   -0.4526 H   0  0  0  0  0  0  0  0  0  0  0  0
    3.1221   -3.4987   -2.5750 H   0  0  0  0  0  0  0  0  0  0  0  0
    3.0243   -1.7804   -2.2106 H   0  0  0  0  0  0  0  0  0  0  0  0
    2.0472   -0.2961   -1.1256 H   0  0  0  0  0  0  0  0  0  0  0  0
  1 24  1  0  0  0  0
  1 25  1  0  0  0  0
  1 26  1  0  0  0  0
  2  1  1  0  0  0  0
  2 27  1  0  0  0  0
  2 28  1  0  0  0  0
  3  2  1  0  0  0  0
  4  3  1  0  0  0  0
  4 29  1  0  0  0  0
  4 30  1  0  0  0  0
  5  4  1  0  0  0  0
  6  5  2  0  0  0  0
  6 31  1  0  0  0  0
  7  6  1  0  0  0  0
  7 32  1  0  0  0  0
  8  7  2  0  0  0  0
  9  8  1  0  0  0  0
 10  8  1  0  0  0  0
 10 33  1  0  0  0  0
 11 10  2  0  0  0  0
 11  5  1  0  0  0  0
 11 34  1  0  0  0  0
 12  3  1  0  0  0  0
 13 12  2  0  0  0  0
 13 35  1  0  0  0  0
 14 13  1  0  0  0  0
 14 36  1  0  0  0  0
 15 14  2  0  0  0  0
 16 15  1  0  0  0  0
 17 16  2  0  0  0  0
 18 17  1  0  0  0  0
 18 37  1  0  0  0  0
 18 38  1  0  0  0  0
 19 17  1  0  0  0  0
 20 19  2  0  0  0  0
 21 20  1  0  0  0  0
 21 39  1  0  0  0  0
 21 40  1  0  0  0  0
 22 20  1  0  0  0  0
 22 15  1  0  0  0  0
 23 22  2  0  0  0  0
 23 12  1  0  0  0  0
 23 41  1  0  0  0  0
M  END
>  <MOL Chiral Flag>
0

>  <energy>
-78.186755673329657

$$$$
> 58_AKC_j.bmcl.2009.07.081
>58.sdf
 OpenBabel10052218143D

 60 65  0  0  0  0  0  0  0  0999 V2000
   -1.4927   -2.6665   -5.9086 Cl  0  0  0  0  0  0  0  0  0  0  0  0
   -1.6008   -2.3788   -4.1817 C   0  0  0  0  0  0  0  0  0  0  0  0
   -2.4059   -3.1990   -3.3850 C   0  0  0  0  0  0  0  0  0  0  0  0
   -2.4948   -2.9710   -2.0086 C   0  0  0  0  0  0  0  0  0  0  0  0
   -1.7793   -1.9147   -1.4181 C   0  0  0  0  0  0  0  0  0  0  0  0
   -0.9716   -1.0943   -2.2259 C   0  0  0  0  0  0  0  0  0  0  0  0
   -0.8833   -1.3281   -3.6011 C   0  0  0  0  0  0  0  0  0  0  0  0
   -1.8857   -1.6571    0.0679 C   0  0  1  0  0  0  0  0  0  0  0  0
   -0.5657   -1.7804    0.6790 N   0  0  0  0  0  0  0  0  0  0  0  0
    0.0410   -0.7061    1.4142 C   0  0  0  0  0  0  0  0  0  0  0  0
   -0.5925    0.4078    1.5403 N   0  0  0  0  0  0  0  0  0  0  0  0
   -1.8694    0.6582    0.9883 C   0  0  0  0  0  0  0  0  0  0  0  0
   -2.5280   -0.3030    0.3061 C   0  0  0  0  0  0  0  0  0  0  0  0
   -3.9428   -0.0220   -0.1876 C   0  0  0  0  0  0  0  0  0  0  0  0
   -4.0104    1.3948   -0.7568 C   0  0  0  0  0  0  0  0  0  0  0  0
   -3.5603    2.3642    0.3146 C   0  0  0  0  0  0  0  0  0  0  0  0
   -2.4760    2.0059    1.1419 C   0  0  0  0  0  0  0  0  0  0  0  0
   -1.9916    2.9197    2.0919 C   0  0  0  0  0  0  0  0  0  0  0  0
   -2.6025    4.1677    2.2363 C   0  0  0  0  0  0  0  0  0  0  0  0
   -3.6950    4.5122    1.4345 C   0  0  0  0  0  0  0  0  0  0  0  0
   -4.1747    3.6148    0.4738 C   0  0  0  0  0  0  0  0  0  0  0  0
    1.3342   -0.8344    2.0488 N   0  0  0  0  0  0  0  0  0  0  0  0
    1.8146    0.2280    2.9295 C   0  0  0  0  0  0  0  0  0  0  0  0
    3.1407    0.7587    2.3974 C   0  0  0  0  0  0  0  0  0  0  0  0
    4.0554   -0.3733    2.2709 N   0  0  0  0  0  0  0  0  0  0  0  0
    3.6006   -1.4386    1.3709 C   0  0  0  0  0  0  0  0  0  0  0  0
    2.2389   -1.9666    1.8544 C   0  0  0  0  0  0  0  0  0  0  0  0
    5.2796   -0.4602    3.0502 C   0  0  0  0  0  0  0  0  0  0  0  0
    5.9330   -1.7015    3.2611 C   0  0  0  0  0  0  0  0  0  0  0  0
    7.0895   -1.7797    4.0439 C   0  0  0  0  0  0  0  0  0  0  0  0
    7.6226   -0.6359    4.6314 C   0  0  0  0  0  0  0  0  0  0  0  0
    7.0072    0.5953    4.4351 C   0  0  0  0  0  0  0  0  0  0  0  0
    5.8529    0.6913    3.6556 C   0  0  0  0  0  0  0  0  0  0  0  0
   -2.9643   -4.0118   -3.8320 H   0  0  0  0  0  0  0  0  0  0  0  0
   -3.1253   -3.6122   -1.4051 H   0  0  0  0  0  0  0  0  0  0  0  0
   -0.4139   -0.2760   -1.7874 H   0  0  0  0  0  0  0  0  0  0  0  0
   -0.2592   -0.6915   -4.2150 H   0  0  0  0  0  0  0  0  0  0  0  0
   -2.5482   -2.4147    0.5414 H   0  0  0  0  0  0  0  0  0  0  0  0
   -0.1001   -2.6906    0.5963 H   0  0  0  0  0  0  0  0  0  0  0  0
   -4.2786   -0.7843   -0.9217 H   0  0  0  0  0  0  0  0  0  0  0  0
   -4.6343   -0.0623    0.6829 H   0  0  0  0  0  0  0  0  0  0  0  0
   -3.2958    1.4455   -1.6077 H   0  0  0  0  0  0  0  0  0  0  0  0
   -5.0243    1.6458   -1.1358 H   0  0  0  0  0  0  0  0  0  0  0  0
   -1.1547    2.6624    2.7294 H   0  0  0  0  0  0  0  0  0  0  0  0
   -2.2310    4.8668    2.9746 H   0  0  0  0  0  0  0  0  0  0  0  0
   -4.1638    5.4805    1.5517 H   0  0  0  0  0  0  0  0  0  0  0  0
   -5.0080    3.9003   -0.1551 H   0  0  0  0  0  0  0  0  0  0  0  0
    1.9750   -0.1918    3.9468 H   0  0  0  0  0  0  0  0  0  0  0  0
    1.1059    1.0749    3.0346 H   0  0  0  0  0  0  0  0  0  0  0  0
    3.4599    1.5428    3.0988 H   0  0  0  0  0  0  0  0  0  0  0  0
    2.9936    1.2315    1.4008 H   0  0  0  0  0  0  0  0  0  0  0  0
    3.4754   -1.0079    0.3529 H   0  0  0  0  0  0  0  0  0  0  0  0
    4.3093   -2.2750    1.2529 H   0  0  0  0  0  0  0  0  0  0  0  0
    1.8816   -2.7183    1.1325 H   0  0  0  0  0  0  0  0  0  0  0  0
    2.3879   -2.4755    2.8315 H   0  0  0  0  0  0  0  0  0  0  0  0
    5.5560   -2.6245    2.8569 H   0  0  0  0  0  0  0  0  0  0  0  0
    7.5693   -2.7367    4.2024 H   0  0  0  0  0  0  0  0  0  0  0  0
    8.5142   -0.7033    5.2411 H   0  0  0  0  0  0  0  0  0  0  0  0
    7.4244    1.4848    4.8904 H   0  0  0  0  0  0  0  0  0  0  0  0
    5.4388    1.6762    3.5338 H   0  0  0  0  0  0  0  0  0  0  0  0
  2  1  1  0  0  0  0
  3  2  2  0  0  0  0
  3 34  1  0  0  0  0
  4  3  1  0  0  0  0
  4 35  1  0  0  0  0
  5  4  2  0  0  0  0
  6  5  1  0  0  0  0
  6 36  1  0  0  0  0
  7  6  2  0  0  0  0
  7  2  1  0  0  0  0
  7 37  1  0  0  0  0
  8  5  1  0  0  0  0
  8 38  1  1  0  0  0
  9  8  1  0  0  0  0
  9 39  1  0  0  0  0
 10  9  1  0  0  0  0
 11 10  2  0  0  0  0
 12 11  1  0  0  0  0
 13 12  2  0  0  0  0
 13  8  1  0  0  0  0
 14 13  1  0  0  0  0
 14 40  1  0  0  0  0
 14 41  1  0  0  0  0
 15 14  1  0  0  0  0
 15 42  1  0  0  0  0
 15 43  1  0  0  0  0
 16 15  1  0  0  0  0
 17 16  2  0  0  0  0
 17 12  1  0  0  0  0
 18 17  1  0  0  0  0
 18 44  1  0  0  0  0
 19 18  2  0  0  0  0
 19 45  1  0  0  0  0
 20 19  1  0  0  0  0
 20 46  1  0  0  0  0
 21 20  2  0  0  0  0
 21 16  1  0  0  0  0
 21 47  1  0  0  0  0
 22 10  1  0  0  0  0
 23 22  1  0  0  0  0
 23 48  1  0  0  0  0
 23 49  1  0  0  0  0
 24 23  1  0  0  0  0
 24 50  1  0  0  0  0
 24 51  1  0  0  0  0
 25 24  1  0  0  0  0
 26 25  1  0  0  0  0
 26 52  1  0  0  0  0
 26 53  1  0  0  0  0
 27 26  1  0  0  0  0
 27 22  1  0  0  0  0
 27 54  1  0  0  0  0
 27 55  1  0  0  0  0
 28 25  1  0  0  0  0
 29 28  2  0  0  0  0
 29 56  1  0  0  0  0
 30 29  1  0  0  0  0
 30 57  1  0  0  0  0
 31 30  2  0  0  0  0
 31 58  1  0  0  0  0
 32 31  1  0  0  0  0
 32 59  1  0  0  0  0
 33 32  2  0  0  0  0
 33 28  1  0  0  0  0
 33 60  1  0  0  0  0
M  END
>  <MOL Chiral Flag>
0

>  <energy>
6.1355546888009229

$$$$
> 59_AKC_2047773211Y.0000000005
>59.sdf
 OpenBabel10052218143D

 52 56  0  0  0  0  0  0  0  0999 V2000
   -7.0648   -2.1946   -1.7005 C   0  0  0  0  0  0  0  0  0  0  0  0
   -6.6157   -1.3237   -0.7241 O   0  0  0  0  0  0  0  0  0  0  0  0
   -5.3340   -0.9466   -0.4594 C   0  0  0  0  0  0  0  0  0  0  0  0
   -4.2063   -1.5952   -1.0047 C   0  0  0  0  0  0  0  0  0  0  0  0
   -2.9163   -1.1564   -0.6852 C   0  0  0  0  0  0  0  0  0  0  0  0
   -2.7174   -0.0542    0.1684 C   0  0  0  0  0  0  0  0  0  0  0  0
   -3.8501    0.5667    0.7302 C   0  0  0  0  0  0  0  0  0  0  0  0
   -5.1364    0.1239    0.4162 C   0  0  0  0  0  0  0  0  0  0  0  0
   -1.3213    0.3773    0.4940 C   0  0  0  0  0  0  0  0  0  0  0  0
   -0.9519    1.6857    0.8870 C   0  0  0  0  0  0  0  0  0  0  0  0
   -1.6952    2.8222    0.9572 N   0  0  0  0  0  0  0  0  0  0  0  0
   -0.8474    3.7942    1.3563 C   0  0  0  0  0  0  0  0  0  0  0  0
    0.4193    3.2964    1.5355 C   0  0  0  0  0  0  0  0  0  0  0  0
    1.4796    4.1099    1.9293 C   0  0  0  0  0  0  0  0  0  0  0  0
    1.2165    5.4759    2.1439 C   0  0  0  0  0  0  0  0  0  0  0  0
   -0.0886    5.9903    1.9584 C   0  0  0  0  0  0  0  0  0  0  0  0
   -1.1383    5.1414    1.5581 C   0  0  0  0  0  0  0  0  0  0  0  0
    0.3562    1.9596    1.2273 C   0  0  0  0  0  0  0  0  0  0  0  0
    1.3458    0.9933    1.1975 C   0  0  0  0  0  0  0  0  0  0  0  0
    0.9862   -0.2927    0.7540 C   0  0  0  0  0  0  0  0  0  0  0  0
   -0.3172   -0.5555    0.4116 N   0  0  0  0  0  0  0  0  0  0  0  0
    2.0203   -1.3501    0.6357 C   0  0  0  0  0  0  0  0  0  0  0  0
    3.1295   -1.1585    1.1158 O   0  0  0  0  0  0  0  0  0  0  0  0
    1.7596   -2.5050   -0.0435 N   0  0  0  0  0  0  0  0  0  0  0  0
    2.7643   -3.5404   -0.2284 C   0  0  0  0  0  0  0  0  0  0  0  0
    3.9947   -2.9857   -0.9098 C   0  0  0  0  0  0  0  0  0  0  0  0
    5.2496   -3.0700   -0.2811 C   0  0  0  0  0  0  0  0  0  0  0  0
    6.3831   -2.5308   -0.8962 C   0  0  0  0  0  0  0  0  0  0  0  0
    6.2734   -1.9027   -2.1393 C   0  0  0  0  0  0  0  0  0  0  0  0
    5.0302   -1.8175   -2.7728 C   0  0  0  0  0  0  0  0  0  0  0  0
    3.8930   -2.3593   -2.1636 C   0  0  0  0  0  0  0  0  0  0  0  0
   -7.5417   -3.0716   -1.2168 H   0  0  0  0  0  0  0  0  0  0  0  0
   -6.2785   -2.5418   -2.3940 H   0  0  0  0  0  0  0  0  0  0  0  0
   -7.8293   -1.6736   -2.3130 H   0  0  0  0  0  0  0  0  0  0  0  0
   -4.3014   -2.4424   -1.6647 H   0  0  0  0  0  0  0  0  0  0  0  0
   -2.0693   -1.6742   -1.1180 H   0  0  0  0  0  0  0  0  0  0  0  0
   -3.7599    1.3651    1.4435 H   0  0  0  0  0  0  0  0  0  0  0  0
   -5.9912    0.6159    0.8641 H   0  0  0  0  0  0  0  0  0  0  0  0
   -2.6967    2.9765    0.7237 H   0  0  0  0  0  0  0  0  0  0  0  0
    2.4763    3.7089    2.0603 H   0  0  0  0  0  0  0  0  0  0  0  0
    2.0181    6.1365    2.4472 H   0  0  0  0  0  0  0  0  0  0  0  0
   -0.2801    7.0427    2.1210 H   0  0  0  0  0  0  0  0  0  0  0  0
   -2.1388    5.5255    1.4077 H   0  0  0  0  0  0  0  0  0  0  0  0
    2.3663    1.2399    1.4623 H   0  0  0  0  0  0  0  0  0  0  0  0
    0.8334   -2.6451   -0.4740 H   0  0  0  0  0  0  0  0  0  0  0  0
    2.3399   -4.3549   -0.8548 H   0  0  0  0  0  0  0  0  0  0  0  0
    3.0257   -3.9750    0.7609 H   0  0  0  0  0  0  0  0  0  0  0  0
    5.3479   -3.5470    0.6861 H   0  0  0  0  0  0  0  0  0  0  0  0
    7.3460   -2.5956   -0.4059 H   0  0  0  0  0  0  0  0  0  0  0  0
    7.1517   -1.4803   -2.6104 H   0  0  0  0  0  0  0  0  0  0  0  0
    4.9473   -1.3270   -3.7341 H   0  0  0  0  0  0  0  0  0  0  0  0
    2.9333   -2.2807   -2.6590 H   0  0  0  0  0  0  0  0  0  0  0  0
  1 32  1  0  0  0  0
  1 33  1  0  0  0  0
  1 34  1  0  0  0  0
  2  1  1  0  0  0  0
  3  2  1  0  0  0  0
  4  3  2  0  0  0  0
  4 35  1  0  0  0  0
  5  4  1  0  0  0  0
  5 36  1  0  0  0  0
  6  5  2  0  0  0  0
  7  6  1  0  0  0  0
  7 37  1  0  0  0  0
  8  7  2  0  0  0  0
  8  3  1  0  0  0  0
  8 38  1  0  0  0  0
  9  6  1  0  0  0  0
 10  9  2  0  0  0  0
 11 10  1  0  0  0  0
 11 39  1  0  0  0  0
 12 11  1  0  0  0  0
 13 12  2  0  0  0  0
 14 13  1  0  0  0  0
 14 40  1  0  0  0  0
 15 14  2  0  0  0  0
 15 41  1  0  0  0  0
 16 15  1  0  0  0  0
 16 42  1  0  0  0  0
 17 16  2  0  0  0  0
 17 12  1  0  0  0  0
 17 43  1  0  0  0  0
 18 13  1  0  0  0  0
 18 10  1  0  0  0  0
 19 18  2  0  0  0  0
 19 44  1  0  0  0  0
 20 19  1  0  0  0  0
 21 20  2  0  0  0  0
 21  9  1  0  0  0  0
 22 20  1  0  0  0  0
 23 22  2  0  0  0  0
 24 22  1  0  0  0  0
 24 45  1  0  0  0  0
 25 24  1  0  0  0  0
 25 46  1  0  0  0  0
 25 47  1  0  0  0  0
 26 25  1  0  0  0  0
 27 26  2  0  0  0  0
 27 48  1  0  0  0  0
 28 27  1  0  0  0  0
 28 49  1  0  0  0  0
 29 28  2  0  0  0  0
 29 50  1  0  0  0  0
 30 29  1  0  0  0  0
 30 51  1  0  0  0  0
 31 30  2  0  0  0  0
 31 26  1  0  0  0  0
 31 52  1  0  0  0  0
M  END
>  <MOL Chiral Flag>
0

>  <energy>
96.709034706047262

$$$$
> 60_AKC_j.ejmech.2018.03.014
>60.sdf
 OpenBabel10052218153D

 70 74  0  0  0  0  0  0  0  0999 V2000
   -3.1196   -6.3538    0.9999 C   0  0  0  0  0  0  0  0  0  0  0  0
   -2.8020   -5.4003    1.9463 O   0  0  0  0  0  0  0  0  0  0  0  0
   -2.6813   -4.0677    1.7043 C   0  0  0  0  0  0  0  0  0  0  0  0
   -2.8560   -3.5171    0.4217 C   0  0  0  0  0  0  0  0  0  0  0  0
   -2.7248   -2.1415    0.2221 C   0  0  0  0  0  0  0  0  0  0  0  0
   -2.4322   -1.2760    1.2962 C   0  0  0  0  0  0  0  0  0  0  0  0
   -2.2368   -1.8407    2.5724 C   0  0  0  0  0  0  0  0  0  0  0  0
   -2.3643   -3.2196    2.7688 C   0  0  0  0  0  0  0  0  0  0  0  0
   -2.3152    0.1910    1.0182 C   0  0  0  0  0  0  0  0  0  0  0  0
   -2.5336    1.2290    1.9595 C   0  0  0  0  0  0  0  0  0  0  0  0
   -2.9157    1.1725    3.2638 N   0  0  0  0  0  0  0  0  0  0  0  0
   -2.9787    2.4534    3.6880 C   0  0  0  0  0  0  0  0  0  0  0  0
   -2.6641    3.3218    2.6730 C   0  0  0  0  0  0  0  0  0  0  0  0
   -2.6655    4.7029    2.8605 C   0  0  0  0  0  0  0  0  0  0  0  0
   -2.9968    5.1939    4.1373 C   0  0  0  0  0  0  0  0  0  0  0  0
   -3.3218    4.2997    5.1845 C   0  0  0  0  0  0  0  0  0  0  0  0
   -3.3169    2.9092    4.9606 C   0  0  0  0  0  0  0  0  0  0  0  0
   -2.3963    2.5475    1.5707 C   0  0  0  0  0  0  0  0  0  0  0  0
   -2.0625    2.9081    0.2767 C   0  0  0  0  0  0  0  0  0  0  0  0
   -1.8542    1.8745   -0.6538 C   0  0  0  0  0  0  0  0  0  0  0  0
   -1.9866    0.5693   -0.2586 N   0  0  0  0  0  0  0  0  0  0  0  0
   -1.4871    2.1918   -2.0550 C   0  0  0  0  0  0  0  0  0  0  0  0
   -1.5747    3.3489   -2.4446 O   0  0  0  0  0  0  0  0  0  0  0  0
   -1.0163    1.2191   -2.8919 N   0  0  0  0  0  0  0  0  0  0  0  0
   -0.6575    1.4973   -4.2728 C   0  0  0  0  0  0  0  0  0  0  0  0
    0.8588    1.4850   -4.4688 C   0  0  0  0  0  0  0  0  0  0  0  0
    1.4512    0.1707   -4.3043 N   0  0  0  0  0  0  0  0  0  0  0  0
    2.2747   -0.1197   -3.1823 C   0  0  0  0  0  0  0  0  0  0  0  0
    2.0516    0.4767   -1.9808 N   0  0  0  0  0  0  0  0  0  0  0  0
    2.8598    0.2084   -0.9180 C   0  0  0  0  0  0  0  0  0  0  0  0
    3.9149   -0.6337   -1.0805 N   0  0  0  0  0  0  0  0  0  0  0  0
    4.1532   -1.2251   -2.2800 C   0  0  0  0  0  0  0  0  0  0  0  0
    3.3178   -0.9774   -3.3229 N   0  0  0  0  0  0  0  0  0  0  0  0
    5.2924   -2.0692   -2.4529 N   0  0  0  0  0  0  0  0  0  0  0  0
    5.5477   -2.6843   -3.7446 C   0  0  0  0  0  0  0  0  0  0  0  0
    6.2075   -2.2834   -1.3439 C   0  0  0  0  0  0  0  0  0  0  0  0
    2.6047    0.7927    0.3637 N   0  0  0  0  0  0  0  0  0  0  0  0
    3.4916    0.5008    1.4753 C   0  0  0  0  0  0  0  0  0  0  0  0
    1.4626    1.6620    0.5877 C   0  0  0  0  0  0  0  0  0  0  0  0
   -4.1194   -6.1442    0.5626 H   0  0  0  0  0  0  0  0  0  0  0  0
   -2.3485   -6.3754    0.2004 H   0  0  0  0  0  0  0  0  0  0  0  0
   -3.1505   -7.3502    1.4861 H   0  0  0  0  0  0  0  0  0  0  0  0
   -3.0950   -4.1437   -0.4268 H   0  0  0  0  0  0  0  0  0  0  0  0
   -2.8719   -1.7493   -0.7766 H   0  0  0  0  0  0  0  0  0  0  0  0
   -1.9506   -1.2442    3.4164 H   0  0  0  0  0  0  0  0  0  0  0  0
   -2.2088   -3.6334    3.7574 H   0  0  0  0  0  0  0  0  0  0  0  0
   -3.1459    0.3516    3.8572 H   0  0  0  0  0  0  0  0  0  0  0  0
   -2.4178    5.3795    2.0529 H   0  0  0  0  0  0  0  0  0  0  0  0
   -3.0041    6.2610    4.3181 H   0  0  0  0  0  0  0  0  0  0  0  0
   -3.5763    4.6867    6.1626 H   0  0  0  0  0  0  0  0  0  0  0  0
   -3.5653    2.2172    5.7547 H   0  0  0  0  0  0  0  0  0  0  0  0
   -1.9657    3.9508    0.0011 H   0  0  0  0  0  0  0  0  0  0  0  0
   -0.8750    0.2622   -2.5350 H   0  0  0  0  0  0  0  0  0  0  0  0
   -1.1639    0.7759   -4.9494 H   0  0  0  0  0  0  0  0  0  0  0  0
   -0.9967    2.5119   -4.5738 H   0  0  0  0  0  0  0  0  0  0  0  0
    1.3313    2.2297   -3.7906 H   0  0  0  0  0  0  0  0  0  0  0  0
    1.0661    1.8245   -5.5076 H   0  0  0  0  0  0  0  0  0  0  0  0
    1.6795   -0.3376   -5.1726 H   0  0  0  0  0  0  0  0  0  0  0  0
    5.6669   -1.8958   -4.5181 H   0  0  0  0  0  0  0  0  0  0  0  0
    4.6976   -3.3426   -4.0214 H   0  0  0  0  0  0  0  0  0  0  0  0
    6.4726   -3.2987   -3.7384 H   0  0  0  0  0  0  0  0  0  0  0  0
    5.6673   -2.7522   -0.4949 H   0  0  0  0  0  0  0  0  0  0  0  0
    7.0542   -2.9451   -1.6234 H   0  0  0  0  0  0  0  0  0  0  0  0
    6.6303   -1.3098   -1.0149 H   0  0  0  0  0  0  0  0  0  0  0  0
    4.5204    0.8436    1.2350 H   0  0  0  0  0  0  0  0  0  0  0  0
    3.1602    1.0164    2.4028 H   0  0  0  0  0  0  0  0  0  0  0  0
    3.5051   -0.5925    1.6714 H   0  0  0  0  0  0  0  0  0  0  0  0
    1.8105    2.6558    0.9385 H   0  0  0  0  0  0  0  0  0  0  0  0
    0.8006    1.2153    1.3606 H   0  0  0  0  0  0  0  0  0  0  0  0
    0.8649    1.8160   -0.3298 H   0  0  0  0  0  0  0  0  0  0  0  0
  1 40  1  0  0  0  0
  1 41  1  0  0  0  0
  1 42  1  0  0  0  0
  2  1  1  0  0  0  0
  3  2  1  0  0  0  0
  4  3  2  0  0  0  0
  4 43  1  0  0  0  0
  5  4  1  0  0  0  0
  5 44  1  0  0  0  0
  6  5  2  0  0  0  0
  7  6  1  0  0  0  0
  7 45  1  0  0  0  0
  8  7  2  0  0  0  0
  8  3  1  0  0  0  0
  8 46  1  0  0  0  0
  9  6  1  0  0  0  0
 10  9  2  0  0  0  0
 11 10  1  0  0  0  0
 11 47  1  0  0  0  0
 12 11  1  0  0  0  0
 13 12  2  0  0  0  0
 14 13  1  0  0  0  0
 14 48  1  0  0  0  0
 15 14  2  0  0  0  0
 15 49  1  0  0  0  0
 16 15  1  0  0  0  0
 16 50  1  0  0  0  0
 17 16  2  0  0  0  0
 17 12  1  0  0  0  0
 17 51  1  0  0  0  0
 18 13  1  0  0  0  0
 18 10  1  0  0  0  0
 19 18  2  0  0  0  0
 19 52  1  0  0  0  0
 20 19  1  0  0  0  0
 21 20  2  0  0  0  0
 21  9  1  0  0  0  0
 22 20  1  0  0  0  0
 23 22  2  0  0  0  0
 24 22  1  0  0  0  0
 24 53  1  0  0  0  0
 25 24  1  0  0  0  0
 25 54  1  0  0  0  0
 25 55  1  0  0  0  0
 26 25  1  0  0  0  0
 26 56  1  0  0  0  0
 26 57  1  0  0  0  0
 27 26  1  0  0  0  0
 27 58  1  0  0  0  0
 28 27  1  0  0  0  0
 29 28  2  0  0  0  0
 30 29  1  0  0  0  0
 31 30  2  0  0  0  0
 32 31  1  0  0  0  0
 33 32  2  0  0  0  0
 33 28  1  0  0  0  0
 34 32  1  0  0  0  0
 35 34  1  0  0  0  0
 35 59  1  0  0  0  0
 35 60  1  0  0  0  0
 35 61  1  0  0  0  0
 36 34  1  0  0  0  0
 36 62  1  0  0  0  0
 36 63  1  0  0  0  0
 36 64  1  0  0  0  0
 37 30  1  0  0  0  0
 38 37  1  0  0  0  0
 38 65  1  0  0  0  0
 38 66  1  0  0  0  0
 38 67  1  0  0  0  0
 39 37  1  0  0  0  0
 39 68  1  0  0  0  0
 39 69  1  0  0  0  0
 39 70  1  0  0  0  0
M  END
>  <MOL Chiral Flag>
0

>  <energy>
-171.13122668323197

$$$$
> 61_AKC_C4MD00298A
>61.sdf
 OpenBabel10052218163D

 54 59  0  0  0  0  0  0  0  0999 V2000
    4.6931    4.6862    2.7806 C   0  0  0  0  0  0  0  0  0  0  0  0
    4.1148    3.5343    2.2901 O   0  0  0  0  0  0  0  0  0  0  0  0
    2.7740    3.3132    2.2921 C   0  0  0  0  0  0  0  0  0  0  0  0
    2.0075    4.1546    2.7420 O   0  0  0  0  0  0  0  0  0  0  0  0
    2.2333    2.0513    1.7492 C   0  0  0  0  0  0  0  0  0  0  0  0
    0.8765    1.8386    1.7574 N   0  0  0  0  0  0  0  0  0  0  0  0
    0.3036    0.6950    1.2699 C   0  0  0  0  0  0  0  0  0  0  0  0
   -1.2028    0.5448    1.3116 C   0  0  2  0  0  0  0  0  0  0  0  0
   -1.5291   -0.5479    2.2154 N   0  0  0  0  0  0  0  0  0  0  0  0
   -2.3131   -1.6614    1.8447 C   0  0  0  0  0  0  0  0  0  0  0  0
   -2.5815   -2.6755    2.7787 C   0  0  0  0  0  0  0  0  0  0  0  0
   -3.3627   -3.7751    2.4170 C   0  0  0  0  0  0  0  0  0  0  0  0
   -3.8800   -3.8662    1.1241 C   0  0  0  0  0  0  0  0  0  0  0  0
   -3.6153   -2.8580    0.1935 C   0  0  0  0  0  0  0  0  0  0  0  0
   -2.8256   -1.7481    0.5553 C   0  0  0  0  0  0  0  0  0  0  0  0
   -2.5299   -0.6717   -0.4107 C   0  0  0  0  0  0  0  0  0  0  0  0
   -3.0441   -0.7408   -1.5170 O   0  0  0  0  0  0  0  0  0  0  0  0
   -1.7429    0.4118   -0.0628 N   0  0  0  0  0  0  0  0  0  0  0  0
   -1.4336    1.4620   -1.0300 C   0  0  0  0  0  0  0  0  0  0  0  0
   -1.1776    2.7898   -0.6005 C   0  0  0  0  0  0  0  0  0  0  0  0
   -0.8647    3.7967   -1.5170 C   0  0  0  0  0  0  0  0  0  0  0  0
   -0.7874    3.5107   -2.8779 C   0  0  0  0  0  0  0  0  0  0  0  0
   -0.3884    4.7796   -4.0216 Cl  0  0  0  0  0  0  0  0  0  0  0  0
   -1.0178    2.2126   -3.3275 C   0  0  0  0  0  0  0  0  0  0  0  0
   -1.3347    1.1961   -2.4222 C   0  0  0  0  0  0  0  0  0  0  0  0
    1.1538   -0.2880    0.7471 C   0  0  0  0  0  0  0  0  0  0  0  0
    0.8363   -1.4901    0.2118 N   0  0  0  0  0  0  0  0  0  0  0  0
    2.0106   -2.0531   -0.1439 C   0  0  0  0  0  0  0  0  0  0  0  0
    3.0642   -1.2212    0.1604 C   0  0  0  0  0  0  0  0  0  0  0  0
    4.3825   -1.5793   -0.1119 C   0  0  0  0  0  0  0  0  0  0  0  0
    4.6138   -2.8308   -0.7145 C   0  0  0  0  0  0  0  0  0  0  0  0
    3.5303   -3.6862   -1.0273 C   0  0  0  0  0  0  0  0  0  0  0  0
    2.2083   -3.2959   -0.7398 C   0  0  0  0  0  0  0  0  0  0  0  0
    2.5159   -0.0948    0.7291 C   0  0  0  0  0  0  0  0  0  0  0  0
    3.0960    1.0661    1.2229 C   0  0  0  0  0  0  0  0  0  0  0  0
    4.4556    4.8051    3.8596 H   0  0  0  0  0  0  0  0  0  0  0  0
    5.7941    4.6186    2.6632 H   0  0  0  0  0  0  0  0  0  0  0  0
    4.3270    5.5699    2.2153 H   0  0  0  0  0  0  0  0  0  0  0  0
   -1.6398    1.4527    1.7755 H   0  0  0  0  0  0  0  0  0  0  0  0
   -1.1819   -0.4899    3.1857 H   0  0  0  0  0  0  0  0  0  0  0  0
   -2.1851   -2.6109    3.7843 H   0  0  0  0  0  0  0  0  0  0  0  0
   -3.5676   -4.5552    3.1387 H   0  0  0  0  0  0  0  0  0  0  0  0
   -4.4862   -4.7176    0.8426 H   0  0  0  0  0  0  0  0  0  0  0  0
   -4.0238   -2.9447   -0.8056 H   0  0  0  0  0  0  0  0  0  0  0  0
   -1.2295    3.0677    0.4391 H   0  0  0  0  0  0  0  0  0  0  0  0
   -0.6811    4.8038   -1.1644 H   0  0  0  0  0  0  0  0  0  0  0  0
   -0.9436    1.9852   -4.3836 H   0  0  0  0  0  0  0  0  0  0  0  0
   -1.4661    0.2063   -2.8271 H   0  0  0  0  0  0  0  0  0  0  0  0
   -0.1086   -1.9102    0.0906 H   0  0  0  0  0  0  0  0  0  0  0  0
    5.2048   -0.9188    0.1306 H   0  0  0  0  0  0  0  0  0  0  0  0
    5.6260   -3.1402   -0.9397 H   0  0  0  0  0  0  0  0  0  0  0  0
    3.7189   -4.6459   -1.4904 H   0  0  0  0  0  0  0  0  0  0  0  0
    1.3727   -3.9422   -0.9750 H   0  0  0  0  0  0  0  0  0  0  0  0
    4.1700    1.2015    1.2003 H   0  0  0  0  0  0  0  0  0  0  0  0
  1 36  1  0  0  0  0
  1 37  1  0  0  0  0
  1 38  1  0  0  0  0
  2  1  1  0  0  0  0
  3  2  1  0  0  0  0
  4  3  2  0  0  0  0
  5  3  1  0  0  0  0
  6  5  2  0  0  0  0
  7  6  1  0  0  0  0
  8  7  1  0  0  0  0
  8 39  1  1  0  0  0
  9  8  1  0  0  0  0
  9 40  1  0  0  0  0
 10  9  1  0  0  0  0
 11 10  2  0  0  0  0
 11 41  1  0  0  0  0
 12 11  1  0  0  0  0
 12 42  1  0  0  0  0
 13 12  2  0  0  0  0
 13 43  1  0  0  0  0
 14 13  1  0  0  0  0
 14 44  1  0  0  0  0
 15 14  2  0  0  0  0
 15 10  1  0  0  0  0
 16 15  1  0  0  0  0
 17 16  2  0  0  0  0
 18 16  1  0  0  0  0
 18  8  1  0  0  0  0
 19 18  1  0  0  0  0
 20 19  2  0  0  0  0
 20 45  1  0  0  0  0
 21 20  1  0  0  0  0
 21 46  1  0  0  0  0
 22 21  2  0  0  0  0
 23 22  1  0  0  0  0
 24 22  1  0  0  0  0
 24 47  1  0  0  0  0
 25 24  2  0  0  0  0
 25 19  1  0  0  0  0
 25 48  1  0  0  0  0
 26  7  2  0  0  0  0
 27 26  1  0  0  0  0
 27 49  1  0  0  0  0
 28 27  1  0  0  0  0
 29 28  2  0  0  0  0
 30 29  1  0  0  0  0
 30 50  1  0  0  0  0
 31 30  2  0  0  0  0
 31 51  1  0  0  0  0
 32 31  1  0  0  0  0
 32 52  1  0  0  0  0
 33 32  2  0  0  0  0
 33 28  1  0  0  0  0
 33 53  1  0  0  0  0
 34 29  1  0  0  0  0
 34 26  1  0  0  0  0
 35 34  2  0  0  0  0
 35  5  1  0  0  0  0
 35 54  1  0  0  0  0
M  END
>  <MOL Chiral Flag>
0

>  <energy>
128.99536594929012

$$$$
> 62_AKC_C4MD00298A
>61_alt.sdf
 OpenBabel10062217243D

 54 59  0  0  0  0  0  0  0  0999 V2000
    4.2991    4.6004    2.8469 C   0  0  0  0  0  0  0  0  0  0  0  0
    3.9183    3.4053    2.2741 O   0  0  0  0  0  0  0  0  0  0  0  0
    2.6298    2.9746    2.2172 C   0  0  0  0  0  0  0  0  0  0  0  0
    1.7267    3.6539    2.6863 O   0  0  0  0  0  0  0  0  0  0  0  0
    2.3182    1.6732    1.5917 C   0  0  0  0  0  0  0  0  0  0  0  0
    1.0188    1.2208    1.5646 N   0  0  0  0  0  0  0  0  0  0  0  0
    0.6670    0.0266    0.9945 C   0  0  0  0  0  0  0  0  0  0  0  0
   -0.7648   -0.4818    1.0586 C   0  0  1  0  0  0  0  0  0  0  0  0
   -1.2326   -0.6676    2.4127 N   0  0  0  0  0  0  0  0  0  0  0  0
   -2.4835   -1.3176    2.5603 C   0  0  0  0  0  0  0  0  0  0  0  0
   -2.7903   -2.0358    3.7206 C   0  0  0  0  0  0  0  0  0  0  0  0
   -4.0116   -2.7077    3.8175 C   0  0  0  0  0  0  0  0  0  0  0  0
   -4.9328   -2.6486    2.7646 C   0  0  0  0  0  0  0  0  0  0  0  0
   -4.6434   -1.9044    1.6134 C   0  0  0  0  0  0  0  0  0  0  0  0
   -3.4122   -1.2392    1.5029 C   0  0  0  0  0  0  0  0  0  0  0  0
   -3.0736   -0.3603    0.3385 C   0  0  0  0  0  0  0  0  0  0  0  0
   -3.9525   -0.0230   -0.4422 O   0  0  0  0  0  0  0  0  0  0  0  0
   -1.8009    0.1580    0.2383 N   0  0  0  0  0  0  0  0  0  0  0  0
   -1.4892    1.1524   -0.7469 C   0  0  0  0  0  0  0  0  0  0  0  0
   -0.9462    2.3899   -0.3614 C   0  0  0  0  0  0  0  0  0  0  0  0
   -0.6602    3.3675   -1.3179 C   0  0  0  0  0  0  0  0  0  0  0  0
   -0.9115    3.1202   -2.6700 C   0  0  0  0  0  0  0  0  0  0  0  0
   -0.5484    4.3490   -3.8682 Cl  0  0  0  0  0  0  0  0  0  0  0  0
   -1.4610    1.8965   -3.0645 C   0  0  0  0  0  0  0  0  0  0  0  0
   -1.7576    0.9191   -2.1084 C   0  0  0  0  0  0  0  0  0  0  0  0
    1.6918   -0.7566    0.4356 C   0  0  0  0  0  0  0  0  0  0  0  0
    1.6062   -1.9710   -0.1653 N   0  0  0  0  0  0  0  0  0  0  0  0
    2.8674   -2.3051   -0.4981 C   0  0  0  0  0  0  0  0  0  0  0  0
    3.7511   -1.3207   -0.1217 C   0  0  0  0  0  0  0  0  0  0  0  0
    5.1201   -1.4469   -0.3478 C   0  0  0  0  0  0  0  0  0  0  0  0
    5.5785   -2.6210   -0.9787 C   0  0  0  0  0  0  0  0  0  0  0  0
    4.6648   -3.6293   -1.3685 C   0  0  0  0  0  0  0  0  0  0  0  0
    3.2886   -3.4720   -1.1273 C   0  0  0  0  0  0  0  0  0  0  0  0
    2.9978   -0.3293    0.4694 C   0  0  0  0  0  0  0  0  0  0  0  0
    3.3514    0.8854    1.0377 C   0  0  0  0  0  0  0  0  0  0  0  0
    4.0151    4.6195    3.9208 H   0  0  0  0  0  0  0  0  0  0  0  0
    5.4013    4.7042    2.7695 H   0  0  0  0  0  0  0  0  0  0  0  0
    3.8224    5.4507    2.3143 H   0  0  0  0  0  0  0  0  0  0  0  0
   -0.7404   -1.5093    0.6540 H   0  0  0  0  0  0  0  0  0  0  0  0
   -0.5961   -0.5444    3.2151 H   0  0  0  0  0  0  0  0  0  0  0  0
   -2.0770   -2.0913    4.5335 H   0  0  0  0  0  0  0  0  0  0  0  0
   -4.2429   -3.2776    4.7081 H   0  0  0  0  0  0  0  0  0  0  0  0
   -5.8765   -3.1716    2.8465 H   0  0  0  0  0  0  0  0  0  0  0  0
   -5.3730   -1.8491    0.8159 H   0  0  0  0  0  0  0  0  0  0  0  0
   -0.7734    2.6108    0.6807 H   0  0  0  0  0  0  0  0  0  0  0  0
   -0.2498    4.3197   -1.0060 H   0  0  0  0  0  0  0  0  0  0  0  0
   -1.6598    1.7034   -4.1110 H   0  0  0  0  0  0  0  0  0  0  0  0
   -2.1806   -0.0248   -2.4280 H   0  0  0  0  0  0  0  0  0  0  0  0
    0.7654   -2.5602   -0.3473 H   0  0  0  0  0  0  0  0  0  0  0  0
    5.8122   -0.6732   -0.0435 H   0  0  0  0  0  0  0  0  0  0  0  0
    6.6356   -2.7546   -1.1649 H   0  0  0  0  0  0  0  0  0  0  0  0
    5.0251   -4.5281   -1.8515 H   0  0  0  0  0  0  0  0  0  0  0  0
    2.5795   -4.2373   -1.4169 H   0  0  0  0  0  0  0  0  0  0  0  0
    4.3854    1.2057    1.0558 H   0  0  0  0  0  0  0  0  0  0  0  0
  1 36  1  0  0  0  0
  1 37  1  0  0  0  0
  1 38  1  0  0  0  0
  2  1  1  0  0  0  0
  3  2  1  0  0  0  0
  4  3  2  0  0  0  0
  5  3  1  0  0  0  0
  6  5  2  0  0  0  0
  7  6  1  0  0  0  0
  8  7  1  0  0  0  0
  8 39  1  6  0  0  0
  9  8  1  0  0  0  0
  9 40  1  0  0  0  0
 10  9  1  0  0  0  0
 11 10  2  0  0  0  0
 11 41  1  0  0  0  0
 12 11  1  0  0  0  0
 12 42  1  0  0  0  0
 13 12  2  0  0  0  0
 13 43  1  0  0  0  0
 14 13  1  0  0  0  0
 14 44  1  0  0  0  0
 15 14  2  0  0  0  0
 15 10  1  0  0  0  0
 16 15  1  0  0  0  0
 17 16  2  0  0  0  0
 18 16  1  0  0  0  0
 18  8  1  0  0  0  0
 19 18  1  0  0  0  0
 20 19  2  0  0  0  0
 20 45  1  0  0  0  0
 21 20  1  0  0  0  0
 21 46  1  0  0  0  0
 22 21  2  0  0  0  0
 23 22  1  0  0  0  0
 24 22  1  0  0  0  0
 24 47  1  0  0  0  0
 25 24  2  0  0  0  0
 25 19  1  0  0  0  0
 25 48  1  0  0  0  0
 26  7  2  0  0  0  0
 27 26  1  0  0  0  0
 27 49  1  0  0  0  0
 28 27  1  0  0  0  0
 29 28  2  0  0  0  0
 30 29  1  0  0  0  0
 30 50  1  0  0  0  0
 31 30  2  0  0  0  0
 31 51  1  0  0  0  0
 32 31  1  0  0  0  0
 32 52  1  0  0  0  0
 33 32  2  0  0  0  0
 33 28  1  0  0  0  0
 33 53  1  0  0  0  0
 34 29  1  0  0  0  0
 34 26  1  0  0  0  0
 35 34  2  0  0  0  0
 35  5  1  0  0  0  0
 35 54  1  0  0  0  0
M  END
>  <MOL Chiral Flag>
0

>  <energy>
128.99536594929012

$$$$
> 63_AKC_s00436-021-07266-w
>62.sdf
 OpenBabel10052218163D

 52 52  0  0  0  0  0  0  0  0999 V2000
   -4.1178    3.2376    1.2409 C   0  0  0  0  0  0  0  0  0  0  0  0
   -3.0094    2.6703    0.6497 O   0  0  0  0  0  0  0  0  0  0  0  0
   -2.8598    1.3289    0.4916 C   0  0  0  0  0  0  0  0  0  0  0  0
   -3.7890    0.5752    0.7541 O   0  0  0  0  0  0  0  0  0  0  0  0
   -1.5101    0.7795    0.0407 C   0  0  2  0  0  0  0  0  0  0  0  0
   -0.4954    1.2729    1.1024 C   0  0  0  0  0  0  0  0  0  0  0  0
   -1.1093    1.3450   -1.3665 C   0  0  0  0  0  0  0  0  0  0  0  0
   -2.0736    1.0420   -2.5504 C   0  0  0  0  0  0  0  0  0  0  0  0
   -1.3105    1.1423   -3.8817 C   0  0  0  0  0  0  0  0  0  0  0  0
   -3.2589    2.0256   -2.6041 C   0  0  0  0  0  0  0  0  0  0  0  0
   -1.5133   -0.6986    0.0363 N   0  0  0  0  0  0  0  0  0  0  0  0
   -0.3959   -1.4575   -0.1763 C   0  0  0  0  0  0  0  0  0  0  0  0
    0.6708   -0.9352   -0.4567 O   0  0  0  0  0  0  0  0  0  0  0  0
   -0.4591   -2.9506   -0.0185 C   0  0  0  0  0  0  0  0  0  0  0  0
    1.1925   -3.7079   -0.2419 S   0  0  0  0  0  0  0  0  0  0  0  0
    1.8572   -3.3749    1.4421 C   0  0  0  0  0  0  0  0  0  0  0  0
    3.2925   -2.8276    1.3685 C   0  0  0  0  0  0  0  0  0  0  0  0
    3.3337   -1.3816    1.0774 N   0  0  0  0  0  0  0  0  0  0  0  0
    3.0927   -0.3894    1.9781 C   0  0  0  0  0  0  0  0  0  0  0  0
    2.7385   -0.5789    3.4249 C   0  0  0  0  0  0  0  0  0  0  0  0
    3.2508    0.8397    1.4412 N   0  0  0  0  0  0  0  0  0  0  0  0
    3.6041    0.6278    0.1609 C   0  0  0  0  0  0  0  0  0  0  0  0
    3.6630   -0.7318   -0.0681 C   0  0  0  0  0  0  0  0  0  0  0  0
    3.9989   -1.3240   -1.3216 N   0  0  0  0  0  0  0  0  0  0  0  0
    4.2551   -0.6245   -2.2558 O   0  0  0  0  0  0  0  0  0  0  0  0
    3.9852   -2.5059   -1.4664 O   0  0  0  0  0  0  0  0  0  0  0  0
   -4.0076    4.3406    1.2360 H   0  0  0  0  0  0  0  0  0  0  0  0
   -4.1980    2.8932    2.2952 H   0  0  0  0  0  0  0  0  0  0  0  0
   -5.0394    2.9616    0.6858 H   0  0  0  0  0  0  0  0  0  0  0  0
   -0.4957    2.3812    1.1701 H   0  0  0  0  0  0  0  0  0  0  0  0
    0.5451    0.9819    0.8739 H   0  0  0  0  0  0  0  0  0  0  0  0
   -0.7548    0.8574    2.1008 H   0  0  0  0  0  0  0  0  0  0  0  0
   -0.1227    0.9131   -1.6173 H   0  0  0  0  0  0  0  0  0  0  0  0
   -0.9359    2.4428   -1.3233 H   0  0  0  0  0  0  0  0  0  0  0  0
   -2.4449   -0.0033   -2.4768 H   0  0  0  0  0  0  0  0  0  0  0  0
   -0.8791    2.1564   -4.0219 H   0  0  0  0  0  0  0  0  0  0  0  0
   -1.9879    0.9182   -4.7343 H   0  0  0  0  0  0  0  0  0  0  0  0
   -0.4875    0.3957   -3.9066 H   0  0  0  0  0  0  0  0  0  0  0  0
   -2.8857    3.0704   -2.6961 H   0  0  0  0  0  0  0  0  0  0  0  0
   -3.9109    1.9614   -1.7176 H   0  0  0  0  0  0  0  0  0  0  0  0
   -3.8986    1.8117   -3.4864 H   0  0  0  0  0  0  0  0  0  0  0  0
   -2.3811   -1.2051    0.2666 H   0  0  0  0  0  0  0  0  0  0  0  0
   -1.1596   -3.3843   -0.7632 H   0  0  0  0  0  0  0  0  0  0  0  0
   -0.8533   -3.2240    0.9833 H   0  0  0  0  0  0  0  0  0  0  0  0
    1.8709   -4.3577    1.9565 H   0  0  0  0  0  0  0  0  0  0  0  0
    1.2185   -2.6916    2.0420 H   0  0  0  0  0  0  0  0  0  0  0  0
    3.8727   -3.4340    0.6503 H   0  0  0  0  0  0  0  0  0  0  0  0
    3.8127   -2.9891    2.3358 H   0  0  0  0  0  0  0  0  0  0  0  0
    2.6586   -1.6431    3.7159 H   0  0  0  0  0  0  0  0  0  0  0  0
    1.7691   -0.0834    3.6366 H   0  0  0  0  0  0  0  0  0  0  0  0
    3.5258   -0.1094    4.0528 H   0  0  0  0  0  0  0  0  0  0  0  0
    3.8056    1.4174   -0.5512 H   0  0  0  0  0  0  0  0  0  0  0  0
  1 27  1  0  0  0  0
  1 28  1  0  0  0  0
  1 29  1  0  0  0  0
  2  1  1  0  0  0  0
  3  2  1  0  0  0  0
  4  3  2  0  0  0  0
  5  3  1  1  0  0  0
  6  5  1  0  0  0  0
  6 30  1  0  0  0  0
  6 31  1  0  0  0  0
  6 32  1  0  0  0  0
  7  5  1  0  0  0  0
  7 33  1  0  0  0  0
  7 34  1  0  0  0  0
  8  7  1  0  0  0  0
  8 35  1  0  0  0  0
  9  8  1  0  0  0  0
  9 36  1  0  0  0  0
  9 37  1  0  0  0  0
  9 38  1  0  0  0  0
 10  8  1  0  0  0  0
 10 39  1  0  0  0  0
 10 40  1  0  0  0  0
 10 41  1  0  0  0  0
 11  5  1  0  0  0  0
 11 42  1  0  0  0  0
 12 11  1  0  0  0  0
 13 12  2  0  0  0  0
 14 12  1  0  0  0  0
 14 43  1  0  0  0  0
 14 44  1  0  0  0  0
 15 14  1  0  0  0  0
 16 15  1  0  0  0  0
 16 45  1  0  0  0  0
 16 46  1  0  0  0  0
 17 16  1  0  0  0  0
 17 47  1  0  0  0  0
 17 48  1  0  0  0  0
 18 17  1  0  0  0  0
 19 18  1  0  0  0  0
 20 19  1  0  0  0  0
 20 49  1  0  0  0  0
 20 50  1  0  0  0  0
 20 51  1  0  0  0  0
 21 19  2  0  0  0  0
 22 21  1  0  0  0  0
 22 52  1  0  0  0  0
 23 22  2  0  0  0  0
 23 18  1  0  0  0  0
 24 23  1  0  0  0  0
 25 24  2  0  0  0  0
 26 24  2  0  0  0  0
M  END
>  <MOL Chiral Flag>
0

>  <energy>
70.855552871053959

$$$$
> 64_AKC_10406638.2022.2092877
>63.sdf
 OpenBabel10052218173D

 55 56  0  0  0  0  0  0  0  0999 V2000
   -0.8101    2.8207    3.1634 C   0  0  0  0  0  0  0  0  0  0  0  0
    0.4840    2.0826    3.4606 C   0  0  0  0  0  0  0  0  0  0  0  0
    0.6101    0.9947    2.6123 O   0  0  0  0  0  0  0  0  0  0  0  0
    0.7402   -0.2997    3.0154 C   0  0  0  0  0  0  0  0  0  0  0  0
    0.6443   -0.5723    4.1994 O   0  0  0  0  0  0  0  0  0  0  0  0
    1.0688   -1.3477    1.9826 C   0  0  0  0  0  0  0  0  0  0  0  0
    1.3368   -2.6711    2.2431 C   0  0  0  0  0  0  0  0  0  0  0  0
    1.3227   -3.3155    3.6160 C   0  0  0  0  0  0  0  0  0  0  0  0
    1.6631   -3.5502    1.1664 N   0  0  0  0  0  0  0  0  0  0  0  0
    1.9595   -3.0908   -0.1474 C   0  0  0  0  0  0  0  0  0  0  0  0
    2.5621   -4.0796   -1.1196 C   0  0  0  0  0  0  0  0  0  0  0  0
    1.7240   -1.7956   -0.4794 C   0  0  0  0  0  0  0  0  0  0  0  0
    1.0657   -0.8677    0.5302 C   0  0  1  0  0  0  0  0  0  0  0  0
   -0.3784   -0.6536    0.0701 C   0  0  0  0  0  0  0  0  0  0  0  0
   -1.3508   -1.6279    0.3604 C   0  0  0  0  0  0  0  0  0  0  0  0
   -2.6639   -1.4772   -0.0680 C   0  0  0  0  0  0  0  0  0  0  0  0
   -3.0504   -0.3775   -0.8339 C   0  0  0  0  0  0  0  0  0  0  0  0
   -4.3533   -0.3345   -1.2353 O   0  0  0  0  0  0  0  0  0  0  0  0
   -4.9566    0.6018   -2.0474 C   0  0  0  0  0  0  0  0  0  0  0  0
   -2.0817    0.6106   -1.1670 C   0  0  0  0  0  0  0  0  0  0  0  0
   -2.4374    1.6589   -1.9567 O   0  0  0  0  0  0  0  0  0  0  0  0
   -1.5737    2.5821   -2.5080 C   0  0  0  0  0  0  0  0  0  0  0  0
   -0.7529    0.4692   -0.6872 C   0  0  0  0  0  0  0  0  0  0  0  0
    2.1097   -1.1932   -1.8068 C   0  0  0  0  0  0  0  0  0  0  0  0
    2.5729   -1.8770   -2.7084 O   0  0  0  0  0  0  0  0  0  0  0  0
    2.0495    0.1581   -1.9522 O   0  0  0  0  0  0  0  0  0  0  0  0
    2.7435    0.8783   -2.9081 C   0  0  0  0  0  0  0  0  0  0  0  0
    4.2510    0.8153   -2.6489 C   0  0  0  0  0  0  0  0  0  0  0  0
   -0.8196    3.1587    2.1056 H   0  0  0  0  0  0  0  0  0  0  0  0
   -1.6778    2.1521    3.3439 H   0  0  0  0  0  0  0  0  0  0  0  0
   -0.8924    3.7081    3.8265 H   0  0  0  0  0  0  0  0  0  0  0  0
    0.4962    1.7907    4.5337 H   0  0  0  0  0  0  0  0  0  0  0  0
    1.3402    2.7687    3.2867 H   0  0  0  0  0  0  0  0  0  0  0  0
    2.3244   -3.7548    3.8055 H   0  0  0  0  0  0  0  0  0  0  0  0
    1.0851   -2.7039    4.4917 H   0  0  0  0  0  0  0  0  0  0  0  0
    0.5804   -4.1411    3.6048 H   0  0  0  0  0  0  0  0  0  0  0  0
    1.8291   -4.5440    1.3855 H   0  0  0  0  0  0  0  0  0  0  0  0
    2.6722   -5.0822   -0.6580 H   0  0  0  0  0  0  0  0  0  0  0  0
    3.5738   -3.7465   -1.4325 H   0  0  0  0  0  0  0  0  0  0  0  0
    1.9009   -4.1938   -2.0050 H   0  0  0  0  0  0  0  0  0  0  0  0
    1.6741    0.0629    0.5001 H   0  0  0  0  0  0  0  0  0  0  0  0
   -1.0953   -2.5097    0.9319 H   0  0  0  0  0  0  0  0  0  0  0  0
   -3.3924   -2.2385    0.1838 H   0  0  0  0  0  0  0  0  0  0  0  0
   -6.0256    0.3300   -2.1695 H   0  0  0  0  0  0  0  0  0  0  0  0
   -4.4847    0.5992   -3.0527 H   0  0  0  0  0  0  0  0  0  0  0  0
   -4.9100    1.6094   -1.5841 H   0  0  0  0  0  0  0  0  0  0  0  0
   -1.0584    3.1585   -1.7126 H   0  0  0  0  0  0  0  0  0  0  0  0
   -2.1564    3.2865   -3.1367 H   0  0  0  0  0  0  0  0  0  0  0  0
   -0.8324    2.0676   -3.1580 H   0  0  0  0  0  0  0  0  0  0  0  0
   -0.0054    1.2102   -0.9277 H   0  0  0  0  0  0  0  0  0  0  0  0
    2.5039    0.5076   -3.9275 H   0  0  0  0  0  0  0  0  0  0  0  0
    2.4302    1.9417   -2.8390 H   0  0  0  0  0  0  0  0  0  0  0  0
    4.6238   -0.2275   -2.7231 H   0  0  0  0  0  0  0  0  0  0  0  0
    4.4795    1.2044   -1.6331 H   0  0  0  0  0  0  0  0  0  0  0  0
    4.7899    1.4347   -3.3962 H   0  0  0  0  0  0  0  0  0  0  0  0
  1 29  1  0  0  0  0
  1 30  1  0  0  0  0
  1 31  1  0  0  0  0
  2  1  1  0  0  0  0
  2 32  1  0  0  0  0
  2 33  1  0  0  0  0
  3  2  1  0  0  0  0
  4  3  1  0  0  0  0
  5  4  2  0  0  0  0
  6  4  1  0  0  0  0
  7  6  2  0  0  0  0
  8  7  1  0  0  0  0
  8 34  1  0  0  0  0
  8 35  1  0  0  0  0
  8 36  1  0  0  0  0
  9  7  1  0  0  0  0
  9 37  1  0  0  0  0
 10  9  1  0  0  0  0
 11 10  1  0  0  0  0
 11 38  1  0  0  0  0
 11 39  1  0  0  0  0
 11 40  1  0  0  0  0
 12 10  2  0  0  0  0
 13 12  1  0  0  0  0
 13  6  1  0  0  0  0
 13 41  1  6  0  0  0
 14 13  1  0  0  0  0
 15 14  2  0  0  0  0
 15 42  1  0  0  0  0
 16 15  1  0  0  0  0
 16 43  1  0  0  0  0
 17 16  2  0  0  0  0
 18 17  1  0  0  0  0
 19 18  1  0  0  0  0
 19 44  1  0  0  0  0
 19 45  1  0  0  0  0
 19 46  1  0  0  0  0
 20 17  1  0  0  0  0
 21 20  1  0  0  0  0
 22 21  1  0  0  0  0
 22 47  1  0  0  0  0
 22 48  1  0  0  0  0
 22 49  1  0  0  0  0
 23 20  2  0  0  0  0
 23 14  1  0  0  0  0
 23 50  1  0  0  0  0
 24 12  1  0  0  0  0
 25 24  2  0  0  0  0
 26 24  1  0  0  0  0
 27 26  1  0  0  0  0
 27 51  1  0  0  0  0
 27 52  1  0  0  0  0
 28 27  1  0  0  0  0
 28 53  1  0  0  0  0
 28 54  1  0  0  0  0
 28 55  1  0  0  0  0
M  END
>  <MOL Chiral Flag>
0

>  <energy>
39.047854071458012

$$$$
> 65_AKC_acs.jmedchem.1c00813
>64.sdf
 OpenBabel10052218173D

 37 39  0  0  0  0  0  0  0  0999 V2000
   -4.9883   -0.9144    1.7408 C   0  0  0  0  0  0  0  0  0  0  0  0
   -4.5757   -0.7103    0.3583 N   0  0  0  0  0  0  0  0  0  0  0  0
   -5.5994   -0.6005   -0.6730 C   0  0  0  0  0  0  0  0  0  0  0  0
   -3.1766   -0.5892    0.0172 C   0  0  0  0  0  0  0  0  0  0  0  0
   -2.7541   -0.5728   -1.3336 C   0  0  0  0  0  0  0  0  0  0  0  0
   -1.4031   -0.4313   -1.6618 C   0  0  0  0  0  0  0  0  0  0  0  0
   -0.4452   -0.2762   -0.6529 C   0  0  0  0  0  0  0  0  0  0  0  0
    0.9028   -0.0770   -0.9633 C   0  0  0  0  0  0  0  0  0  0  0  0
    1.8408    0.1591    0.0597 C   0  0  0  0  0  0  0  0  0  0  0  0
    1.3882    0.1282    1.4089 C   0  0  0  0  0  0  0  0  0  0  0  0
    2.2789    0.2773    2.5062 N   0  0  0  0  0  0  0  0  0  0  0  0
    0.0750   -0.1014    1.6735 N   0  0  0  0  0  0  0  0  0  0  0  0
   -0.8465   -0.2862    0.6915 C   0  0  0  0  0  0  0  0  0  0  0  0
   -2.1921   -0.4596    1.0258 C   0  0  0  0  0  0  0  0  0  0  0  0
    3.2430    0.4898   -0.3217 C   0  0  0  0  0  0  0  0  0  0  0  0
    3.9065   -0.2368   -1.3285 C   0  0  0  0  0  0  0  0  0  0  0  0
    5.2135    0.1019   -1.7002 C   0  0  0  0  0  0  0  0  0  0  0  0
    6.0454   -0.8298   -2.9315 Cl  0  0  0  0  0  0  0  0  0  0  0  0
    5.8567    1.1852   -1.0938 C   0  0  0  0  0  0  0  0  0  0  0  0
    5.1987    1.9280   -0.1112 C   0  0  0  0  0  0  0  0  0  0  0  0
    5.9910    3.3094    0.6247 Cl  0  0  0  0  0  0  0  0  0  0  0  0
    3.9028    1.5804    0.2778 C   0  0  0  0  0  0  0  0  0  0  0  0
   -4.5465   -1.8590    2.1245 H   0  0  0  0  0  0  0  0  0  0  0  0
   -6.0905   -0.9969    1.8436 H   0  0  0  0  0  0  0  0  0  0  0  0
   -4.6636   -0.0614    2.3718 H   0  0  0  0  0  0  0  0  0  0  0  0
   -5.5157    0.3898   -1.1715 H   0  0  0  0  0  0  0  0  0  0  0  0
   -5.4856   -1.4106   -1.4215 H   0  0  0  0  0  0  0  0  0  0  0  0
   -6.6260   -0.6726   -0.2567 H   0  0  0  0  0  0  0  0  0  0  0  0
   -3.4626   -0.6681   -2.1434 H   0  0  0  0  0  0  0  0  0  0  0  0
   -1.1084   -0.4183   -2.7046 H   0  0  0  0  0  0  0  0  0  0  0  0
    1.2141   -0.0457   -2.0015 H   0  0  0  0  0  0  0  0  0  0  0  0
    3.2971    0.3249    2.3829 H   0  0  0  0  0  0  0  0  0  0  0  0
    1.9092    0.2427    3.4671 H   0  0  0  0  0  0  0  0  0  0  0  0
   -2.4622   -0.4585    2.0719 H   0  0  0  0  0  0  0  0  0  0  0  0
    3.4183   -1.0761   -1.8084 H   0  0  0  0  0  0  0  0  0  0  0  0
    6.8624    1.4544   -1.3908 H   0  0  0  0  0  0  0  0  0  0  0  0
    3.3980    2.1819    1.0237 H   0  0  0  0  0  0  0  0  0  0  0  0
  1 23  1  0  0  0  0
  1 24  1  0  0  0  0
  1 25  1  0  0  0  0
  2  1  1  0  0  0  0
  3  2  1  0  0  0  0
  3 26  1  0  0  0  0
  3 27  1  0  0  0  0
  3 28  1  0  0  0  0
  4  2  1  0  0  0  0
  5  4  2  0  0  0  0
  5 29  1  0  0  0  0
  6  5  1  0  0  0  0
  6 30  1  0  0  0  0
  7  6  2  0  0  0  0
  8  7  1  0  0  0  0
  8 31  1  0  0  0  0
  9  8  2  0  0  0  0
 10  9  1  0  0  0  0
 11 10  1  0  0  0  0
 11 32  1  0  0  0  0
 11 33  1  0  0  0  0
 12 10  2  0  0  0  0
 13 12  1  0  0  0  0
 13  7  1  0  0  0  0
 14 13  2  0  0  0  0
 14  4  1  0  0  0  0
 14 34  1  0  0  0  0
 15  9  1  0  0  0  0
 16 15  2  0  0  0  0
 16 35  1  0  0  0  0
 17 16  1  0  0  0  0
 18 17  1  0  0  0  0
 19 17  2  0  0  0  0
 19 36  1  0  0  0  0
 20 19  1  0  0  0  0
 21 20  1  0  0  0  0
 22 20  2  0  0  0  0
 22 15  1  0  0  0  0
 22 37  1  0  0  0  0
M  END
>  <MOL Chiral Flag>
0

>  <energy>
15.192906213209383

$$$$
> 66_AKC_ijms21186839
>65.sdf
 OpenBabel10052218173D

 47 50  0  0  0  0  0  0  0  0999 V2000
   -2.0990   -0.2247    1.5441 C   0  0  0  0  0  0  0  0  0  0  0  0
   -3.2083    0.0104    0.7578 O   0  0  0  0  0  0  0  0  0  0  0  0
   -3.4503   -0.6849   -0.3778 C   0  0  0  0  0  0  0  0  0  0  0  0
   -3.7285    0.0231   -1.5512 C   0  0  0  0  0  0  0  0  0  0  0  0
   -3.9208   -0.6583   -2.7549 C   0  0  0  0  0  0  0  0  0  0  0  0
   -3.8536   -2.0542   -2.7873 C   0  0  0  0  0  0  0  0  0  0  0  0
   -3.5951   -2.7704   -1.6143 C   0  0  0  0  0  0  0  0  0  0  0  0
   -3.3887   -2.0905   -0.4101 C   0  0  0  0  0  0  0  0  0  0  0  0
   -1.2372    0.9850    1.4393 C   0  0  0  0  0  0  0  0  0  0  0  0
   -0.1844    1.1561    0.5746 C   0  0  0  0  0  0  0  0  0  0  0  0
    0.2431    2.4246    0.7232 N   0  0  0  0  0  0  0  0  0  0  0  0
   -0.5527    3.0081    1.6142 N   0  0  0  0  0  0  0  0  0  0  0  0
   -1.4606    2.1534    2.0622 N   0  0  0  0  0  0  0  0  0  0  0  0
    1.2573    3.1567   -0.0140 C   0  0  0  0  0  0  0  0  0  0  0  0
    2.4151    2.5728   -0.6540 C   0  0  0  0  0  0  0  0  0  0  0  0
    2.8711    1.1485   -0.5896 C   0  0  0  0  0  0  0  0  0  0  0  0
    2.4141    0.2801    0.2396 N   0  0  0  0  0  0  0  0  0  0  0  0
    2.8442   -1.0303    0.1949 N   0  0  0  0  0  0  0  0  0  0  0  0
    2.1577   -2.0511    0.9100 C   0  0  0  0  0  0  0  0  0  0  0  0
    2.3954   -3.3983    0.5890 C   0  0  0  0  0  0  0  0  0  0  0  0
    1.6987   -4.4156    1.2474 C   0  0  0  0  0  0  0  0  0  0  0  0
    0.7668   -4.0980    2.2380 C   0  0  0  0  0  0  0  0  0  0  0  0
    0.5328   -2.7623    2.5746 C   0  0  0  0  0  0  0  0  0  0  0  0
    1.2229   -1.7400    1.9142 C   0  0  0  0  0  0  0  0  0  0  0  0
    3.2539    3.4170   -1.4143 C   0  0  0  0  0  0  0  0  0  0  0  0
    3.0027    4.7790   -1.5373 C   0  0  0  0  0  0  0  0  0  0  0  0
    1.9110    5.3444   -0.9003 C   0  0  0  0  0  0  0  0  0  0  0  0
    1.0538    4.5494   -0.1477 C   0  0  0  0  0  0  0  0  0  0  0  0
   -1.5127   -1.0890    1.1608 H   0  0  0  0  0  0  0  0  0  0  0  0
   -2.3778   -0.4390    2.5972 H   0  0  0  0  0  0  0  0  0  0  0  0
   -3.7651    1.1054   -1.5325 H   0  0  0  0  0  0  0  0  0  0  0  0
   -4.1129   -0.1028   -3.6633 H   0  0  0  0  0  0  0  0  0  0  0  0
   -3.9992   -2.5798   -3.7215 H   0  0  0  0  0  0  0  0  0  0  0  0
   -3.5460   -3.8512   -1.6401 H   0  0  0  0  0  0  0  0  0  0  0  0
   -3.1809   -2.6530    0.4918 H   0  0  0  0  0  0  0  0  0  0  0  0
    0.1581    0.4282   -0.1406 H   0  0  0  0  0  0  0  0  0  0  0  0
    3.6633    0.8454   -1.2717 H   0  0  0  0  0  0  0  0  0  0  0  0
    3.5543   -1.3101   -0.5011 H   0  0  0  0  0  0  0  0  0  0  0  0
    3.1071   -3.6569   -0.1852 H   0  0  0  0  0  0  0  0  0  0  0  0
    1.8775   -5.4503    0.9845 H   0  0  0  0  0  0  0  0  0  0  0  0
    0.2258   -4.8871    2.7441 H   0  0  0  0  0  0  0  0  0  0  0  0
   -0.1879   -2.5181    3.3443 H   0  0  0  0  0  0  0  0  0  0  0  0
    1.0285   -0.7134    2.1879 H   0  0  0  0  0  0  0  0  0  0  0  0
    4.1284    3.0142   -1.9121 H   0  0  0  0  0  0  0  0  0  0  0  0
    3.6652    5.3999   -2.1265 H   0  0  0  0  0  0  0  0  0  0  0  0
    1.7178    6.4049   -0.9992 H   0  0  0  0  0  0  0  0  0  0  0  0
    0.1954    5.0222    0.3121 H   0  0  0  0  0  0  0  0  0  0  0  0
  1 29  1  0  0  0  0
  1 30  1  0  0  0  0
  2  1  1  0  0  0  0
  3  2  1  0  0  0  0
  4  3  2  0  0  0  0
  4 31  1  0  0  0  0
  5  4  1  0  0  0  0
  5 32  1  0  0  0  0
  6  5  2  0  0  0  0
  6 33  1  0  0  0  0
  7  6  1  0  0  0  0
  7 34  1  0  0  0  0
  8  7  2  0  0  0  0
  8  3  1  0  0  0  0
  8 35  1  0  0  0  0
  9  1  1  0  0  0  0
 10  9  2  0  0  0  0
 10 36  1  0  0  0  0
 11 10  1  0  0  0  0
 12 11  1  0  0  0  0
 13 12  2  0  0  0  0
 13  9  1  0  0  0  0
 14 11  1  0  0  0  0
 15 14  2  0  0  0  0
 16 15  1  0  0  0  0
 16 37  1  0  0  0  0
 17 16  2  0  0  0  0
 18 17  1  0  0  0  0
 18 38  1  0  0  0  0
 19 18  1  0  0  0  0
 20 19  2  0  0  0  0
 20 39  1  0  0  0  0
 21 20  1  0  0  0  0
 21 40  1  0  0  0  0
 22 21  2  0  0  0  0
 22 41  1  0  0  0  0
 23 22  1  0  0  0  0
 23 42  1  0  0  0  0
 24 23  2  0  0  0  0
 24 19  1  0  0  0  0
 24 43  1  0  0  0  0
 25 15  1  0  0  0  0
 25 44  1  0  0  0  0
 26 25  2  0  0  0  0
 26 45  1  0  0  0  0
 27 26  1  0  0  0  0
 27 46  1  0  0  0  0
 28 27  2  0  0  0  0
 28 14  1  0  0  0  0
 28 47  1  0  0  0  0
M  END
>  <MOL Chiral Flag>
0

>  <energy>
114.5228921774487

$$$$
> 67_AKC_ardp.201900241
>66.sdf
 OpenBabel10052218173D

 39 41  0  0  0  0  0  0  0  0999 V2000
   -2.4106    1.1259   -3.9343 C   0  0  0  0  0  0  0  0  0  0  0  0
   -3.1770    0.9807   -2.7935 O   0  0  0  0  0  0  0  0  0  0  0  0
   -2.7103    0.4530   -1.6315 C   0  0  0  0  0  0  0  0  0  0  0  0
   -1.6110   -0.4164   -1.6067 C   0  0  0  0  0  0  0  0  0  0  0  0
   -1.0501   -0.8142   -0.3927 C   0  0  0  0  0  0  0  0  0  0  0  0
   -1.6179   -0.3820    0.8162 C   0  0  0  0  0  0  0  0  0  0  0  0
   -2.7554    0.4532    0.8069 C   0  0  0  0  0  0  0  0  0  0  0  0
   -3.3277    0.9064    1.9552 O   0  0  0  0  0  0  0  0  0  0  0  0
   -2.8150    0.7415    3.2254 C   0  0  0  0  0  0  0  0  0  0  0  0
   -3.2879    0.8737   -0.4285 C   0  0  0  0  0  0  0  0  0  0  0  0
   -4.3121    1.7543   -0.4789 O   0  0  0  0  0  0  0  0  0  0  0  0
   -4.1395    3.0706   -0.1042 C   0  0  0  0  0  0  0  0  0  0  0  0
    0.2247   -1.5421   -0.4341 C   0  0  0  0  0  0  0  0  0  0  0  0
    1.2494   -1.3807    0.4667 C   0  0  0  0  0  0  0  0  0  0  0  0
    2.3252   -1.9737   -0.1469 C   0  0  0  0  0  0  0  0  0  0  0  0
    1.9357   -2.5082   -1.3192 N   0  0  0  0  0  0  0  0  0  0  0  0
    0.6766   -2.2160   -1.4701 O   0  0  0  0  0  0  0  0  0  0  0  0
    3.7156   -1.8272    0.2735 C   0  0  0  0  0  0  0  0  0  0  0  0
    4.8283   -2.2987   -0.3976 C   0  0  0  0  0  0  0  0  0  0  0  0
    5.9183   -1.7845    0.2726 C   0  0  0  0  0  0  0  0  0  0  0  0
    5.3983   -1.0291    1.3071 C   0  0  0  0  0  0  0  0  0  0  0  0
    4.0881   -1.0767    1.2844 O   0  0  0  0  0  0  0  0  0  0  0  0
    6.1385   -0.2577    2.2366 N   0  0  0  0  0  0  0  0  0  0  0  0
    5.5696    0.3909    3.0593 O   0  0  0  0  0  0  0  0  0  0  0  0
    7.3301   -0.2079    2.1633 O   0  0  0  0  0  0  0  0  0  0  0  0
   -2.9953    1.6722   -4.7004 H   0  0  0  0  0  0  0  0  0  0  0  0
   -1.5066    1.7325   -3.6967 H   0  0  0  0  0  0  0  0  0  0  0  0
   -2.1069    0.1439   -4.3491 H   0  0  0  0  0  0  0  0  0  0  0  0
   -1.1358   -0.7203   -2.5288 H   0  0  0  0  0  0  0  0  0  0  0  0
   -1.1657   -0.6825    1.7519 H   0  0  0  0  0  0  0  0  0  0  0  0
   -3.4934    1.2321    3.9533 H   0  0  0  0  0  0  0  0  0  0  0  0
   -2.7384   -0.3353    3.4843 H   0  0  0  0  0  0  0  0  0  0  0  0
   -1.8182    1.2277    3.2944 H   0  0  0  0  0  0  0  0  0  0  0  0
   -3.3464    3.5343   -0.7326 H   0  0  0  0  0  0  0  0  0  0  0  0
   -3.8486    3.1522    0.9628 H   0  0  0  0  0  0  0  0  0  0  0  0
   -5.0844    3.6258   -0.2661 H   0  0  0  0  0  0  0  0  0  0  0  0
    1.2513   -0.7894    1.3730 H   0  0  0  0  0  0  0  0  0  0  0  0
    4.8438   -2.9090   -1.2912 H   0  0  0  0  0  0  0  0  0  0  0  0
    6.9605   -1.9192    0.0168 H   0  0  0  0  0  0  0  0  0  0  0  0
  1 26  1  0  0  0  0
  1 27  1  0  0  0  0
  1 28  1  0  0  0  0
  2  1  1  0  0  0  0
  3  2  1  0  0  0  0
  4  3  2  0  0  0  0
  4 29  1  0  0  0  0
  5  4  1  0  0  0  0
  6  5  2  0  0  0  0
  6 30  1  0  0  0  0
  7  6  1  0  0  0  0
  8  7  1  0  0  0  0
  9  8  1  0  0  0  0
  9 31  1  0  0  0  0
  9 32  1  0  0  0  0
  9 33  1  0  0  0  0
 10  7  2  0  0  0  0
 10  3  1  0  0  0  0
 11 10  1  0  0  0  0
 12 11  1  0  0  0  0
 12 34  1  0  0  0  0
 12 35  1  0  0  0  0
 12 36  1  0  0  0  0
 13  5  1  0  0  0  0
 14 13  2  0  0  0  0
 14 37  1  0  0  0  0
 15 14  1  0  0  0  0
 16 15  2  0  0  0  0
 17 16  1  0  0  0  0
 17 13  1  0  0  0  0
 18 15  1  0  0  0  0
 19 18  2  0  0  0  0
 19 38  1  0  0  0  0
 20 19  1  0  0  0  0
 20 39  1  0  0  0  0
 21 20  2  0  0  0  0
 22 21  1  0  0  0  0
 22 18  1  0  0  0  0
 23 21  1  0  0  0  0
 24 23  2  0  0  0  0
 25 23  2  0  0  0  0
M  END
>  <MOL Chiral Flag>
0

>  <energy>
113.48885697328717

$$$$
> 68_AKC_jhet.3812
>67.sdf
 OpenBabel10052218183D

 59 63  0  0  0  0  0  0  0  0999 V2000
   -2.9276   -0.2744   -3.0525 F   0  0  0  0  0  0  0  0  0  0  0  0
   -2.9731    1.0044   -2.6010 C   0  0  0  0  0  0  0  0  0  0  0  0
   -3.4447    2.0138   -3.4340 C   0  0  0  0  0  0  0  0  0  0  0  0
   -3.4715    3.3485   -2.9937 C   0  0  0  0  0  0  0  0  0  0  0  0
   -3.0611    3.6414   -1.6756 C   0  0  0  0  0  0  0  0  0  0  0  0
   -2.5851    2.6238   -0.8410 C   0  0  0  0  0  0  0  0  0  0  0  0
   -2.5120    1.3007   -1.3201 C   0  0  0  0  0  0  0  0  0  0  0  0
   -1.9660    0.2907   -0.6085 O   0  0  0  0  0  0  0  0  0  0  0  0
   -1.3918    0.3714    0.6384 C   0  0  0  0  0  0  0  0  0  0  0  0
   -0.6898   -0.9868    0.9508 C   0  0  1  0  0  0  0  0  0  0  0  0
   -0.2017   -1.0592    2.4245 C   0  0  0  0  0  0  0  0  0  0  0  0
   -1.2639   -0.9832    3.4441 N   0  0  0  0  0  0  0  0  0  0  0  0
   -2.6062   -0.9315    3.3121 C   0  0  0  0  0  0  0  0  0  0  0  0
   -3.1590   -0.8388    4.5649 C   0  0  0  0  0  0  0  0  0  0  0  0
   -2.1727   -0.8476    5.4822 N   0  0  0  0  0  0  0  0  0  0  0  0
   -1.0302   -0.9415    4.7704 C   0  0  0  0  0  0  0  0  0  0  0  0
   -1.6026   -2.2343    0.5927 C   0  0  0  0  0  0  0  0  0  0  0  0
   -0.8526   -2.9536   -0.4919 C   0  0  0  0  0  0  0  0  0  0  0  0
    0.3279   -2.3467   -0.8096 C   0  0  0  0  0  0  0  0  0  0  0  0
    1.1819   -2.8674   -1.7870 C   0  0  0  0  0  0  0  0  0  0  0  0
    0.8022   -4.0436   -2.4525 C   0  0  0  0  0  0  0  0  0  0  0  0
   -0.4175   -4.6703   -2.1338 C   0  0  0  0  0  0  0  0  0  0  0  0
   -1.2540   -4.1230   -1.1458 C   0  0  0  0  0  0  0  0  0  0  0  0
    0.5007   -1.1712   -0.0022 C   0  0  0  0  0  0  0  0  0  0  0  0
    1.5224   -0.3845   -0.1126 N   0  0  0  0  0  0  0  0  0  0  0  0
    1.6421    0.6785    0.6562 O   0  0  0  0  0  0  0  0  0  0  0  0
    2.4490    1.7511    0.3445 C   0  0  0  0  0  0  0  0  0  0  0  0
    3.9226    1.4039    0.3482 C   0  0  0  0  0  0  0  0  0  0  0  0
    4.8015    1.9026    1.3429 C   0  0  0  0  0  0  0  0  0  0  0  0
    4.2409    2.9147    2.6729 Cl  0  0  0  0  0  0  0  0  0  0  0  0
    6.1633    1.5849    1.2923 C   0  0  0  0  0  0  0  0  0  0  0  0
    6.6660    0.7888    0.2634 C   0  0  0  0  0  0  0  0  0  0  0  0
    5.8089    0.2955   -0.7226 C   0  0  0  0  0  0  0  0  0  0  0  0
    6.4503   -0.6916   -2.0230 Cl  0  0  0  0  0  0  0  0  0  0  0  0
    4.4430    0.5965   -0.6795 C   0  0  0  0  0  0  0  0  0  0  0  0
   -3.8849    4.3923   -3.8771 N   0  0  0  0  0  0  0  0  0  0  0  0
   -3.8622    5.5294   -3.5220 O   0  0  0  0  0  0  0  0  0  0  0  0
   -4.1679    4.1397   -5.0127 O   0  0  0  0  0  0  0  0  0  0  0  0
   -3.7650    1.7541   -4.4340 H   0  0  0  0  0  0  0  0  0  0  0  0
   -3.0840    4.6583   -1.3045 H   0  0  0  0  0  0  0  0  0  0  0  0
   -2.2523    2.8778    0.1577 H   0  0  0  0  0  0  0  0  0  0  0  0
   -2.1715    0.6550    1.3650 H   0  0  0  0  0  0  0  0  0  0  0  0
   -0.6552    1.1982    0.6666 H   0  0  0  0  0  0  0  0  0  0  0  0
    0.5025   -0.2231    2.6096 H   0  0  0  0  0  0  0  0  0  0  0  0
    0.3597   -2.0088    2.5760 H   0  0  0  0  0  0  0  0  0  0  0  0
   -3.1645   -0.9561    2.3886 H   0  0  0  0  0  0  0  0  0  0  0  0
   -4.2133   -0.7679    4.7951 H   0  0  0  0  0  0  0  0  0  0  0  0
   -0.0441   -0.9680    5.2153 H   0  0  0  0  0  0  0  0  0  0  0  0
   -2.6023   -1.9399    0.2067 H   0  0  0  0  0  0  0  0  0  0  0  0
   -1.7337   -2.9271    1.4508 H   0  0  0  0  0  0  0  0  0  0  0  0
    2.1184   -2.3794   -2.0260 H   0  0  0  0  0  0  0  0  0  0  0  0
    1.4473   -4.4692   -3.2107 H   0  0  0  0  0  0  0  0  0  0  0  0
   -0.7096   -5.5764   -2.6492 H   0  0  0  0  0  0  0  0  0  0  0  0
   -2.1919   -4.6014   -0.8956 H   0  0  0  0  0  0  0  0  0  0  0  0
    2.2249    2.5293    1.0968 H   0  0  0  0  0  0  0  0  0  0  0  0
    2.1594    2.1826   -0.6382 H   0  0  0  0  0  0  0  0  0  0  0  0
    6.8356    1.9620    2.0530 H   0  0  0  0  0  0  0  0  0  0  0  0
    7.7235    0.5585    0.2318 H   0  0  0  0  0  0  0  0  0  0  0  0
    3.7917    0.2182   -1.4575 H   0  0  0  0  0  0  0  0  0  0  0  0
  2  1  1  0  0  0  0
  3  2  2  0  0  0  0
  3 39  1  0  0  0  0
  4  3  1  0  0  0  0
  5  4  2  0  0  0  0
  5 40  1  0  0  0  0
  6  5  1  0  0  0  0
  6 41  1  0  0  0  0
  7  6  2  0  0  0  0
  7  2  1  0  0  0  0
  8  7  1  0  0  0  0
  9  8  1  0  0  0  0
  9 42  1  0  0  0  0
  9 43  1  0  0  0  0
 10  9  1  6  0  0  0
 11 10  1  0  0  0  0
 11 44  1  0  0  0  0
 11 45  1  0  0  0  0
 12 11  1  0  0  0  0
 13 12  1  0  0  0  0
 13 46  1  0  0  0  0
 14 13  2  0  0  0  0
 14 47  1  0  0  0  0
 15 14  1  0  0  0  0
 16 15  2  0  0  0  0
 16 12  1  0  0  0  0
 16 48  1  0  0  0  0
 17 10  1  0  0  0  0
 17 49  1  0  0  0  0
 17 50  1  0  0  0  0
 18 17  1  0  0  0  0
 19 18  2  0  0  0  0
 20 19  1  0  0  0  0
 20 51  1  0  0  0  0
 21 20  2  0  0  0  0
 21 52  1  0  0  0  0
 22 21  1  0  0  0  0
 22 53  1  0  0  0  0
 23 22  2  0  0  0  0
 23 18  1  0  0  0  0
 23 54  1  0  0  0  0
 24 19  1  0  0  0  0
 24 10  1  0  0  0  0
 25 24  2  0  0  0  0
 26 25  1  0  0  0  0
 27 26  1  0  0  0  0
 27 55  1  0  0  0  0
 27 56  1  0  0  0  0
 28 27  1  0  0  0  0
 29 28  2  0  0  0  0
 30 29  1  0  0  0  0
 31 29  1  0  0  0  0
 31 57  1  0  0  0  0
 32 31  2  0  0  0  0
 32 58  1  0  0  0  0
 33 32  1  0  0  0  0
 34 33  1  0  0  0  0
 35 33  2  0  0  0  0
 35 28  1  0  0  0  0
 35 59  1  0  0  0  0
 36  4  1  0  0  0  0
 37 36  2  0  0  0  0
 38 36  2  0  0  0  0
M  END
>  <MOL Chiral Flag>
0

>  <energy>
123.39831896466437

$$$$
> 69_AKC_j.bmc.2019.115187
>68.sdf
 OpenBabel10052218183D

 53 57  0  0  0  0  0  0  0  0999 V2000
   -0.2175   -5.8131    0.3399 C   0  0  0  0  0  0  0  0  0  0  0  0
   -1.5517   -5.0954    0.4887 C   0  0  0  0  0  0  0  0  0  0  0  0
   -1.5816   -3.6092    0.4241 N   0  0  0  0  0  0  0  0  0  0  0  0
   -0.5676   -2.6743    0.2878 C   0  0  0  0  0  0  0  0  0  0  0  0
   -1.2563   -1.1782    0.2212 S   0  0  0  0  0  0  0  0  0  0  0  0
   -2.8292   -1.5719    0.3883 C   0  0  0  0  0  0  0  0  0  0  0  0
   -3.9196   -0.7694    0.3267 C   0  0  0  0  0  0  0  0  0  0  0  0
   -3.9831    0.7019    0.0018 C   0  0  0  0  0  0  0  0  0  0  0  0
   -3.0854    1.7118    0.1978 C   0  0  0  0  0  0  0  0  0  0  0  0
   -1.6664    1.6465    1.0719 S   0  0  0  0  0  0  0  0  0  0  0  0
   -1.1471    3.1725    0.7883 C   0  0  0  0  0  0  0  0  0  0  0  0
   -2.1153    3.7895    0.0033 C   0  0  0  0  0  0  0  0  0  0  0  0
   -1.9130    5.1143   -0.4171 C   0  0  0  0  0  0  0  0  0  0  0  0
   -0.7317    5.7793   -0.0349 C   0  0  0  0  0  0  0  0  0  0  0  0
   -0.5139    7.0528   -0.4453 F   0  0  0  0  0  0  0  0  0  0  0  0
    0.2306    5.1279    0.7654 C   0  0  0  0  0  0  0  0  0  0  0  0
    0.0223    3.8068    1.1870 C   0  0  0  0  0  0  0  0  0  0  0  0
   -3.2112    2.9940   -0.3147 N   0  0  0  0  0  0  0  0  0  0  0  0
   -4.3050    3.5068   -1.1578 C   0  0  0  0  0  0  0  0  0  0  0  0
   -2.8391   -2.9767    0.5067 C   0  0  0  0  0  0  0  0  0  0  0  0
   -3.8745   -3.6107    0.6253 O   0  0  0  0  0  0  0  0  0  0  0  0
    0.7730   -2.8610    0.1657 C   0  0  0  0  0  0  0  0  0  0  0  0
    1.7631   -1.7338    0.1439 C   0  0  0  0  0  0  0  0  0  0  0  0
    2.9826   -1.7431   -0.4902 N   0  3  0  0  0  0  0  0  0  0  0  0
    3.4771   -2.8249   -1.3474 C   0  0  0  0  0  0  0  0  0  0  0  0
    3.6998   -0.5759   -0.2545 C   0  0  0  0  0  0  0  0  0  0  0  0
    4.9673   -0.2728   -0.7727 C   0  0  0  0  0  0  0  0  0  0  0  0
    5.5676    0.9558   -0.4310 C   0  0  0  0  0  0  0  0  0  0  0  0
    6.7916    1.2664   -0.9236 F   0  0  0  0  0  0  0  0  0  0  0  0
    4.9064    1.8657    0.4222 C   0  0  0  0  0  0  0  0  0  0  0  0
    3.6372    1.5613    0.9338 C   0  0  0  0  0  0  0  0  0  0  0  0
    3.0654    0.3479    0.5757 C   0  0  0  0  0  0  0  0  0  0  0  0
    1.6156   -0.2962    0.9879 S   0  0  0  0  0  0  0  0  0  0  0  0
    0.4653   -5.5554    1.1757 H   0  0  0  0  0  0  0  0  0  0  0  0
   -0.3930   -6.9088    0.3907 H   0  0  0  0  0  0  0  0  0  0  0  0
    0.2258   -5.6065   -0.6573 H   0  0  0  0  0  0  0  0  0  0  0  0
   -2.2030   -5.4843   -0.3250 H   0  0  0  0  0  0  0  0  0  0  0  0
   -1.9927   -5.4132    1.4586 H   0  0  0  0  0  0  0  0  0  0  0  0
   -4.8844   -1.2678    0.3616 H   0  0  0  0  0  0  0  0  0  0  0  0
   -4.9036    0.9441   -0.4990 H   0  0  0  0  0  0  0  0  0  0  0  0
   -2.6377    5.6242   -1.0370 H   0  0  0  0  0  0  0  0  0  0  0  0
    1.1369    5.6464    1.0507 H   0  0  0  0  0  0  0  0  0  0  0  0
    0.7564    3.2934    1.7943 H   0  0  0  0  0  0  0  0  0  0  0  0
   -4.7736    4.3836   -0.6645 H   0  0  0  0  0  0  0  0  0  0  0  0
   -3.8949    3.8198   -2.1416 H   0  0  0  0  0  0  0  0  0  0  0  0
   -5.1070    2.7826   -1.3657 H   0  0  0  0  0  0  0  0  0  0  0  0
    1.1963   -3.8349    0.0983 H   0  0  0  0  0  0  0  0  0  0  0  0
    4.4238   -3.2300   -0.9350 H   0  0  0  0  0  0  0  0  0  0  0  0
    3.6613   -2.4272   -2.3683 H   0  0  0  0  0  0  0  0  0  0  0  0
    2.7507   -3.6535   -1.4462 H   0  0  0  0  0  0  0  0  0  0  0  0
    5.4845   -0.9627   -1.4252 H   0  0  0  0  0  0  0  0  0  0  0  0
    5.3785    2.8044    0.6826 H   0  0  0  0  0  0  0  0  0  0  0  0
    3.1200    2.2512    1.5883 H   0  0  0  0  0  0  0  0  0  0  0  0
  1 34  1  0  0  0  0
  1 35  1  0  0  0  0
  1 36  1  0  0  0  0
  2  1  1  0  0  0  0
  2 37  1  0  0  0  0
  2 38  1  0  0  0  0
  3  2  1  0  0  0  0
  4  3  1  0  0  0  0
  5  4  1  0  0  0  0
  6  5  1  0  0  0  0
  7  6  2  0  0  0  0
  7 39  1  0  0  0  0
  8  7  1  0  0  0  0
  8 40  1  0  0  0  0
  9  8  2  0  0  0  0
 10  9  1  0  0  0  0
 11 10  1  0  0  0  0
 12 11  2  0  0  0  0
 13 12  1  0  0  0  0
 13 41  1  0  0  0  0
 14 13  2  0  0  0  0
 15 14  1  0  0  0  0
 16 14  1  0  0  0  0
 16 42  1  0  0  0  0
 17 16  2  0  0  0  0
 17 11  1  0  0  0  0
 17 43  1  0  0  0  0
 18 12  1  0  0  0  0
 18  9  1  0  0  0  0
 19 18  1  0  0  0  0
 19 44  1  0  0  0  0
 19 45  1  0  0  0  0
 19 46  1  0  0  0  0
 20  6  1  0  0  0  0
 20  3  1  0  0  0  0
 21 20  2  0  0  0  0
 22  4  2  0  0  0  0
 22 47  1  0  0  0  0
 23 22  1  0  0  0  0
 24 23  2  0  0  0  0
 25 24  1  0  0  0  0
 25 48  1  0  0  0  0
 25 49  1  0  0  0  0
 25 50  1  0  0  0  0
 26 24  1  0  0  0  0
 27 26  2  0  0  0  0
 27 51  1  0  0  0  0
 28 27  1  0  0  0  0
 29 28  1  0  0  0  0
 30 28  2  0  0  0  0
 30 52  1  0  0  0  0
 31 30  1  0  0  0  0
 31 53  1  0  0  0  0
 32 31  2  0  0  0  0
 32 26  1  0  0  0  0
 33 32  1  0  0  0  0
 33 23  1  0  0  0  0
M  CHG  1  24   1
M  END
>  <MOL Chiral Flag>
0

>  <energy>
72.72266209786099

$$$$
> 70_AKC_j.bmc.2019.07.009
>69.sdf
 OpenBabel10052218193D

 49 52  0  0  0  0  0  0  0  0999 V2000
   -4.0608    1.8029   -1.4272 C   0  0  0  0  0  0  0  0  0  0  0  0
   -5.0084    0.9210   -0.7333 N   0  0  0  0  0  0  0  0  0  0  0  0
   -4.7832   -0.2317   -0.0365 C   0  0  0  0  0  0  0  0  0  0  0  0
   -5.9180   -0.7085    0.5235 N   0  0  0  0  0  0  0  0  0  0  0  0
   -6.8909    0.1450    0.1546 C   0  0  0  0  0  0  0  0  0  0  0  0
   -6.3373    1.1460   -0.6105 C   0  0  0  0  0  0  0  0  0  0  0  0
   -7.0565    2.2519   -1.1560 N   0  0  0  0  0  0  0  0  0  0  0  0
   -8.2312    2.3486   -0.9651 O   0  0  0  0  0  0  0  0  0  0  0  0
   -6.4977    3.0910   -1.7935 O   0  0  0  0  0  0  0  0  0  0  0  0
   -3.4899   -0.9228    0.1655 C   0  0  0  0  0  0  0  0  0  0  0  0
   -3.2640   -1.7923    1.1928 N   0  0  0  0  0  0  0  0  0  0  0  0
   -1.9910   -2.2372    1.2648 N   0  0  0  0  0  0  0  0  0  0  0  0
   -1.2008   -1.7759    0.2590 C   0  0  0  0  0  0  0  0  0  0  0  0
   -2.0915   -0.7736   -0.6954 S   0  0  0  0  0  0  0  0  0  0  0  0
    0.2137   -1.9310    0.1922 N   0  0  0  0  0  0  0  0  0  0  0  0
    0.9487   -1.5708   -1.0044 C   0  0  0  0  0  0  0  0  0  0  0  0
    1.7088   -0.2760   -0.7369 C   0  0  0  0  0  0  0  0  0  0  0  0
    2.5869   -0.3852    0.5318 C   0  0  0  0  0  0  0  0  0  0  0  0
    1.7404   -0.8993    1.7335 C   0  0  0  0  0  0  0  0  0  0  0  0
    0.9885   -2.1956    1.3893 C   0  0  0  0  0  0  0  0  0  0  0  0
    3.3326    0.8725    0.8553 N   0  0  0  0  0  0  0  0  0  0  0  0
    4.2847    1.3547   -0.1744 C   0  0  0  0  0  0  0  0  0  0  0  0
    3.6593    2.3977   -1.1307 C   0  0  0  0  0  0  0  0  0  0  0  0
    3.0463    3.5516   -0.3405 C   0  0  0  0  0  0  0  0  0  0  0  0
    2.0074    3.0069    0.6400 C   0  0  0  0  0  0  0  0  0  0  0  0
    2.6727    1.9913    1.5806 C   0  0  0  0  0  0  0  0  0  0  0  0
   -4.0978    2.8143   -0.9687 H   0  0  0  0  0  0  0  0  0  0  0  0
   -4.3210    1.8721   -2.5032 H   0  0  0  0  0  0  0  0  0  0  0  0
   -3.0164    1.4829   -1.3473 H   0  0  0  0  0  0  0  0  0  0  0  0
   -7.9296    0.0450    0.4391 H   0  0  0  0  0  0  0  0  0  0  0  0
    1.6506   -2.3956   -1.2597 H   0  0  0  0  0  0  0  0  0  0  0  0
    0.2822   -1.4245   -1.8807 H   0  0  0  0  0  0  0  0  0  0  0  0
    0.9546    0.5209   -0.6059 H   0  0  0  0  0  0  0  0  0  0  0  0
    2.3258   -0.0789   -1.6332 H   0  0  0  0  0  0  0  0  0  0  0  0
    3.3437   -1.1769    0.3312 H   0  0  0  0  0  0  0  0  0  0  0  0
    0.9490   -0.1624    1.9809 H   0  0  0  0  0  0  0  0  0  0  0  0
    2.3830   -1.0550    2.6264 H   0  0  0  0  0  0  0  0  0  0  0  0
    0.3435   -2.4678    2.2528 H   0  0  0  0  0  0  0  0  0  0  0  0
    1.6922   -3.0363    1.2055 H   0  0  0  0  0  0  0  0  0  0  0  0
    4.7097    0.5069   -0.7538 H   0  0  0  0  0  0  0  0  0  0  0  0
    5.1352    1.8441    0.3486 H   0  0  0  0  0  0  0  0  0  0  0  0
    4.4388    2.7862   -1.8201 H   0  0  0  0  0  0  0  0  0  0  0  0
    2.8652    1.9584   -1.7587 H   0  0  0  0  0  0  0  0  0  0  0  0
    3.8450    4.0824    0.2222 H   0  0  0  0  0  0  0  0  0  0  0  0
    2.5690    4.2765   -1.0354 H   0  0  0  0  0  0  0  0  0  0  0  0
    1.5877    3.8463    1.2349 H   0  0  0  0  0  0  0  0  0  0  0  0
    1.1670    2.5450    0.0894 H   0  0  0  0  0  0  0  0  0  0  0  0
    3.4560    2.5328    2.1552 H   0  0  0  0  0  0  0  0  0  0  0  0
    1.9541    1.6470    2.3433 H   0  0  0  0  0  0  0  0  0  0  0  0
  1 27  1  0  0  0  0
  1 28  1  0  0  0  0
  1 29  1  0  0  0  0
  2  1  1  0  0  0  0
  3  2  1  0  0  0  0
  4  3  2  0  0  0  0
  5  4  1  0  0  0  0
  5 30  1  0  0  0  0
  6  5  2  0  0  0  0
  6  2  1  0  0  0  0
  7  6  1  0  0  0  0
  8  7  2  0  0  0  0
  9  7  2  0  0  0  0
 10  3  1  0  0  0  0
 11 10  2  0  0  0  0
 12 11  1  0  0  0  0
 13 12  2  0  0  0  0
 14 13  1  0  0  0  0
 14 10  1  0  0  0  0
 15 13  1  0  0  0  0
 16 15  1  0  0  0  0
 16 31  1  0  0  0  0
 16 32  1  0  0  0  0
 17 16  1  0  0  0  0
 17 33  1  0  0  0  0
 17 34  1  0  0  0  0
 18 17  1  0  0  0  0
 18 35  1  0  0  0  0
 19 18  1  0  0  0  0
 19 36  1  0  0  0  0
 19 37  1  0  0  0  0
 20 19  1  0  0  0  0
 20 15  1  0  0  0  0
 20 38  1  0  0  0  0
 20 39  1  0  0  0  0
 21 18  1  0  0  0  0
 22 21  1  0  0  0  0
 22 40  1  0  0  0  0
 22 41  1  0  0  0  0
 23 22  1  0  0  0  0
 23 42  1  0  0  0  0
 23 43  1  0  0  0  0
 24 23  1  0  0  0  0
 24 44  1  0  0  0  0
 24 45  1  0  0  0  0
 25 24  1  0  0  0  0
 25 46  1  0  0  0  0
 25 47  1  0  0  0  0
 26 25  1  0  0  0  0
 26 21  1  0  0  0  0
 26 48  1  0  0  0  0
 26 49  1  0  0  0  0
M  END
>  <MOL Chiral Flag>
0

>  <energy>
32.778883362313977

$$$$
> 71_AKC_s11030-018-9830-7
>70.sdf
 OpenBabel10042212493D

 18 19  0  0  0  0  0  0  0  0999 V2000
   -1.1557   -1.0765    1.7386 H   0  0  0  0  0  0  0  0  0  0  0  0
   -0.9128   -0.5333    0.9197 N   0  0  0  0  0  0  0  0  0  0  0  0
    0.3498   -0.3275    0.4271 C   0  0  0  0  0  0  0  0  0  0  0  0
    0.1582    0.4754   -0.6897 C   0  0  0  0  0  0  0  0  0  0  0  0
    1.2657    0.8830   -1.4452 C   0  0  0  0  0  0  0  0  0  0  0  0
    2.5426    0.4594   -1.0481 C   0  0  0  0  0  0  0  0  0  0  0  0
    3.8830    0.9808   -2.0111 Cl  0  0  0  0  0  0  0  0  0  0  0  0
    2.7097   -0.3528    0.0838 C   0  0  0  0  0  0  0  0  0  0  0  0
    4.2686   -0.8969    0.6032 Cl  0  0  0  0  0  0  0  0  0  0  0  0
    1.6077   -0.7634    0.8505 C   0  0  0  0  0  0  0  0  0  0  0  0
   -1.1734    0.7466   -0.8717 N   0  0  0  0  0  0  0  0  0  0  0  0
   -1.8101    0.1257    0.1099 C   0  0  0  0  0  0  0  0  0  0  0  0
   -3.2744    0.0641    0.3960 C   0  0  0  0  0  0  0  0  0  0  0  0
   -3.8822    1.2725    0.3136 F   0  0  0  0  0  0  0  0  0  0  0  0
   -3.9249   -0.7787   -0.4450 F   0  0  0  0  0  0  0  0  0  0  0  0
   -3.5015   -0.4020    1.6564 F   0  0  0  0  0  0  0  0  0  0  0  0
    1.1212    1.5126   -2.3164 H   0  0  0  0  0  0  0  0  0  0  0  0
    1.7287   -1.3892    1.7283 H   0  0  0  0  0  0  0  0  0  0  0  0
  2  1  1  0  0  0  0
  3  2  1  0  0  0  0
  4  3  2  0  0  0  0
  5  4  1  0  0  0  0
  5 17  1  0  0  0  0
  6  5  2  0  0  0  0
  7  6  1  0  0  0  0
  8  6  1  0  0  0  0
  9  8  1  0  0  0  0
 10  8  2  0  0  0  0
 10  3  1  0  0  0  0
 10 18  1  0  0  0  0
 11  4  1  0  0  0  0
 12 11  2  0  0  0  0
 12  2  1  0  0  0  0
 13 12  1  0  0  0  0
 14 13  1  0  0  0  0
 15 13  1  0  0  0  0
 16 13  1  0  0  0  0
M  END
>  <energy>
47.414939445428772

$$$$
> 72_AKC_cbdd.13326
>71.sdf
 OpenBabel10052218193D

 58 61  0  0  0  0  0  0  0  0999 V2000
    5.3052    1.8808   -2.7985 C   0  0  0  0  0  0  0  0  0  0  0  0
    4.0754    2.3063   -2.3464 O   0  0  0  0  0  0  0  0  0  0  0  0
    3.8510    2.7213   -1.0723 C   0  0  0  0  0  0  0  0  0  0  0  0
    4.7899    2.9144   -0.3107 O   0  0  0  0  0  0  0  0  0  0  0  0
    2.4585    2.8115   -0.5755 C   0  0  0  0  0  0  0  0  0  0  0  0
    2.1934    3.0427    0.7811 C   0  0  0  0  0  0  0  0  0  0  0  0
    0.8836    3.0124    1.2840 C   0  0  0  0  0  0  0  0  0  0  0  0
    0.7665    3.1548    3.0344 Cl  0  0  0  0  0  0  0  0  0  0  0  0
   -0.2073    2.7603    0.3872 C   0  0  0  0  0  0  0  0  0  0  0  0
   -1.5834    2.5687    0.7583 N   0  0  0  0  0  0  0  0  0  0  0  0
   -2.2599    2.9782    1.8686 C   0  0  0  0  0  0  0  0  0  0  0  0
   -1.7809    3.7722    2.6561 O   0  0  0  0  0  0  0  0  0  0  0  0
   -3.6612    2.4764    2.0992 C   0  0  0  0  0  0  0  0  0  0  0  0
   -3.6633    0.6625    2.4208 S   0  0  0  0  0  0  0  0  0  0  0  0
   -3.5999    0.0729    0.7139 C   0  0  0  0  0  0  0  0  0  0  0  0
   -4.2616    0.6874   -0.3016 N   0  0  0  0  0  0  0  0  0  0  0  0
   -3.9499   -0.0400   -1.3876 C   0  0  0  0  0  0  0  0  0  0  0  0
   -3.1365   -1.0756   -1.0380 C   0  0  0  0  0  0  0  0  0  0  0  0
   -2.6808   -1.9980   -1.9815 C   0  0  0  0  0  0  0  0  0  0  0  0
   -3.0728   -1.8182   -3.3227 C   0  0  0  0  0  0  0  0  0  0  0  0
   -2.5257   -2.9450   -4.5502 Cl  0  0  0  0  0  0  0  0  0  0  0  0
   -3.9063   -0.7316   -3.6819 C   0  0  0  0  0  0  0  0  0  0  0  0
   -4.3568    0.1716   -2.7007 C   0  0  0  0  0  0  0  0  0  0  0  0
   -2.8997   -1.0160    0.2844 N   0  0  0  0  0  0  0  0  0  0  0  0
   -1.8895   -2.1447    1.2250 S   0  0  0  0  0  0  0  0  0  0  0  0
   -2.3924   -3.5402    0.8248 O   0  0  0  0  0  0  0  0  0  0  0  0
   -2.4068   -2.0736    2.6696 O   0  0  0  0  0  0  0  0  0  0  0  0
   -0.0887   -2.0644    1.1334 C   0  0  0  0  0  0  0  0  0  0  0  0
    0.6614   -1.7397    2.2719 C   0  0  0  0  0  0  0  0  0  0  0  0
    2.0652   -1.7075    2.2109 C   0  0  0  0  0  0  0  0  0  0  0  0
    2.8785   -1.3736    3.4262 C   0  0  0  0  0  0  0  0  0  0  0  0
    2.7153   -1.9991    1.0035 C   0  0  0  0  0  0  0  0  0  0  0  0
    1.9714   -2.3249   -0.1393 C   0  0  0  0  0  0  0  0  0  0  0  0
    2.6603   -2.6477   -1.4338 C   0  0  0  0  0  0  0  0  0  0  0  0
    0.5716   -2.3570   -0.0685 C   0  0  0  0  0  0  0  0  0  0  0  0
    0.0907    2.5633   -0.9748 C   0  0  0  0  0  0  0  0  0  0  0  0
    1.3944    2.5886   -1.4492 C   0  0  0  0  0  0  0  0  0  0  0  0
    6.0588    2.6894   -2.7013 H   0  0  0  0  0  0  0  0  0  0  0  0
    5.6284    0.9897   -2.2166 H   0  0  0  0  0  0  0  0  0  0  0  0
    5.2168    1.5876   -3.8646 H   0  0  0  0  0  0  0  0  0  0  0  0
    3.0161    3.1945    1.4694 H   0  0  0  0  0  0  0  0  0  0  0  0
   -2.1397    2.0455    0.0725 H   0  0  0  0  0  0  0  0  0  0  0  0
   -4.0961    2.9587    3.0010 H   0  0  0  0  0  0  0  0  0  0  0  0
   -4.3342    2.7442    1.2589 H   0  0  0  0  0  0  0  0  0  0  0  0
   -2.0527   -2.8288   -1.7034 H   0  0  0  0  0  0  0  0  0  0  0  0
   -4.2033   -0.5947   -4.7136 H   0  0  0  0  0  0  0  0  0  0  0  0
   -4.9971    1.0043   -2.9603 H   0  0  0  0  0  0  0  0  0  0  0  0
    0.1555   -1.5218    3.2037 H   0  0  0  0  0  0  0  0  0  0  0  0
    2.2346   -1.1719    4.3081 H   0  0  0  0  0  0  0  0  0  0  0  0
    3.4961   -0.4729    3.2260 H   0  0  0  0  0  0  0  0  0  0  0  0
    3.5488   -2.2254    3.6699 H   0  0  0  0  0  0  0  0  0  0  0  0
    3.7981   -1.9772    0.9577 H   0  0  0  0  0  0  0  0  0  0  0  0
    2.3951   -3.6785   -1.7512 H   0  0  0  0  0  0  0  0  0  0  0  0
    3.7655   -2.5863   -1.3379 H   0  0  0  0  0  0  0  0  0  0  0  0
    2.3365   -1.9321   -2.2185 H   0  0  0  0  0  0  0  0  0  0  0  0
    0.0063   -2.6171   -0.9482 H   0  0  0  0  0  0  0  0  0  0  0  0
   -0.7075    2.3559   -1.6780 H   0  0  0  0  0  0  0  0  0  0  0  0
    1.5707    2.4016   -2.5011 H   0  0  0  0  0  0  0  0  0  0  0  0
  1 38  1  0  0  0  0
  1 39  1  0  0  0  0
  1 40  1  0  0  0  0
  2  1  1  0  0  0  0
  3  2  1  0  0  0  0
  4  3  2  0  0  0  0
  5  3  1  0  0  0  0
  6  5  2  0  0  0  0
  6 41  1  0  0  0  0
  7  6  1  0  0  0  0
  8  7  1  0  0  0  0
  9  7  2  0  0  0  0
 10  9  1  0  0  0  0
 10 42  1  0  0  0  0
 11 10  1  0  0  0  0
 12 11  2  0  0  0  0
 13 11  1  0  0  0  0
 13 43  1  0  0  0  0
 13 44  1  0  0  0  0
 14 13  1  0  0  0  0
 15 14  1  0  0  0  0
 16 15  2  0  0  0  0
 17 16  1  0  0  0  0
 18 17  2  0  0  0  0
 19 18  1  0  0  0  0
 19 45  1  0  0  0  0
 20 19  2  0  0  0  0
 21 20  1  0  0  0  0
 22 20  1  0  0  0  0
 22 46  1  0  0  0  0
 23 22  2  0  0  0  0
 23 17  1  0  0  0  0
 23 47  1  0  0  0  0
 24 18  1  0  0  0  0
 24 15  1  0  0  0  0
 25 24  1  0  0  0  0
 26 25  2  0  0  0  0
 27 25  2  0  0  0  0
 28 25  1  0  0  0  0
 29 28  2  0  0  0  0
 29 48  1  0  0  0  0
 30 29  1  0  0  0  0
 31 30  1  0  0  0  0
 31 49  1  0  0  0  0
 31 50  1  0  0  0  0
 31 51  1  0  0  0  0
 32 30  2  0  0  0  0
 32 52  1  0  0  0  0
 33 32  1  0  0  0  0
 34 33  1  0  0  0  0
 34 53  1  0  0  0  0
 34 54  1  0  0  0  0
 34 55  1  0  0  0  0
 35 33  2  0  0  0  0
 35 28  1  0  0  0  0
 35 56  1  0  0  0  0
 36  9  1  0  0  0  0
 36 57  1  0  0  0  0
 37 36  2  0  0  0  0
 37  5  1  0  0  0  0
 37 58  1  0  0  0  0
M  END
>  <MOL Chiral Flag>
0

>  <energy>
135.83980957606337

$$$$
> 73_AKC_acsmedchemlett.8b00053
>72.sdf
 OpenBabel10052218193D

 57 61  0  0  0  0  0  0  0  0999 V2000
    3.8351    1.7334   -3.3773 F   0  0  0  0  0  0  0  0  0  0  0  0
    4.0678    1.8611   -2.0476 C   0  0  0  0  0  0  0  0  0  0  0  0
    3.4381    0.9878   -1.1436 C   0  0  0  0  0  0  0  0  0  0  0  0
    3.6790    1.1328    0.2346 C   0  0  0  0  0  0  0  0  0  0  0  0
    4.5176    2.1598    0.6674 C   0  0  0  0  0  0  0  0  0  0  0  0
    4.5481    2.1332    2.3171 S   0  0  0  0  0  0  0  0  0  0  0  0
    3.5125    0.8581    2.5826 C   0  0  0  0  0  0  0  0  0  0  0  0
    3.1157    0.3702    1.3203 C   0  0  0  0  0  0  0  0  0  0  0  0
    2.1859   -0.7813    1.1741 C   0  0  0  0  0  0  0  0  0  0  0  0
    1.1244   -0.9416    2.0818 C   0  0  0  0  0  0  0  0  0  0  0  0
    0.1909   -1.9650    1.9032 C   0  0  0  0  0  0  0  0  0  0  0  0
    0.3215   -2.8654    0.8337 C   0  0  0  0  0  0  0  0  0  0  0  0
   -0.7535   -3.9019    0.5729 C   0  0  0  0  0  0  0  0  0  0  0  0
   -1.3607   -3.7590   -0.7731 N   0  3  0  0  0  0  0  0  0  0  0  0
   -1.6739   -2.3575   -1.1087 C   0  0  0  0  0  0  0  0  0  0  0  0
   -2.4285   -2.2152   -2.4417 C   0  0  0  0  0  0  0  0  0  0  0  0
   -2.4716   -0.7352   -2.8636 C   0  0  0  0  0  0  0  0  0  0  0  0
   -3.0351    0.0651   -1.7868 N   0  0  0  0  0  0  0  0  0  0  0  0
   -2.2749    1.0121   -1.0072 C   0  0  0  0  0  0  0  0  0  0  0  0
   -1.0884    1.5899   -1.5158 C   0  0  0  0  0  0  0  0  0  0  0  0
   -0.3513    2.4865   -0.7463 C   0  0  0  0  0  0  0  0  0  0  0  0
   -0.7591    2.8149    0.5022 N   0  0  0  0  0  0  0  0  0  0  0  0
   -1.8859    2.2948    1.0470 C   0  0  0  0  0  0  0  0  0  0  0  0
   -2.6867    1.3782    0.3117 C   0  0  0  0  0  0  0  0  0  0  0  0
   -3.8418    0.8485    0.9353 C   0  0  0  0  0  0  0  0  0  0  0  0
   -4.1836    1.2268    2.2362 C   0  0  0  0  0  0  0  0  0  0  0  0
   -3.3899    2.1306    2.9411 C   0  0  0  0  0  0  0  0  0  0  0  0
   -3.8278    2.5909    4.5760 Cl  0  0  0  0  0  0  0  0  0  0  0  0
   -2.2453    2.6623    2.3491 C   0  0  0  0  0  0  0  0  0  0  0  0
    1.4197   -2.7533   -0.0296 C   0  0  0  0  0  0  0  0  0  0  0  0
    2.3368   -1.7143    0.1316 C   0  0  0  0  0  0  0  0  0  0  0  0
    5.1545    3.0321   -0.2081 C   0  0  0  0  0  0  0  0  0  0  0  0
    4.9270    2.8749   -1.5823 C   0  0  0  0  0  0  0  0  0  0  0  0
    2.7635    0.2425   -1.5314 H   0  0  0  0  0  0  0  0  0  0  0  0
    3.2246    0.4646    3.5484 H   0  0  0  0  0  0  0  0  0  0  0  0
    0.9856   -0.2420    2.8964 H   0  0  0  0  0  0  0  0  0  0  0  0
   -0.6497   -2.0366    2.5823 H   0  0  0  0  0  0  0  0  0  0  0  0
   -1.5545   -3.8049    1.3405 H   0  0  0  0  0  0  0  0  0  0  0  0
   -0.3241   -4.9222    0.6758 H   0  0  0  0  0  0  0  0  0  0  0  0
   -2.2326   -4.3375   -0.8033 H   0  0  0  0  0  0  0  0  0  0  0  0
   -0.6966   -4.1299   -1.4922 H   0  0  0  0  0  0  0  0  0  0  0  0
   -0.7264   -1.7872   -1.2160 H   0  0  0  0  0  0  0  0  0  0  0  0
   -2.2741   -1.8947   -0.2931 H   0  0  0  0  0  0  0  0  0  0  0  0
   -3.4535   -2.6283   -2.3265 H   0  0  0  0  0  0  0  0  0  0  0  0
   -1.9049   -2.7808   -3.2432 H   0  0  0  0  0  0  0  0  0  0  0  0
   -3.0730   -0.6090   -3.7885 H   0  0  0  0  0  0  0  0  0  0  0  0
   -1.4321   -0.4581   -3.1052 H   0  0  0  0  0  0  0  0  0  0  0  0
   -3.9913   -0.1794   -1.5102 H   0  0  0  0  0  0  0  0  0  0  0  0
   -0.7223    1.3791   -2.5065 H   0  0  0  0  0  0  0  0  0  0  0  0
    0.5526    2.9263   -1.1466 H   0  0  0  0  0  0  0  0  0  0  0  0
   -4.4899    0.1396    0.4512 H   0  0  0  0  0  0  0  0  0  0  0  0
   -5.0692    0.8097    2.6985 H   0  0  0  0  0  0  0  0  0  0  0  0
   -1.6279    3.3593    2.9033 H   0  0  0  0  0  0  0  0  0  0  0  0
    1.5409   -3.4449   -0.8534 H   0  0  0  0  0  0  0  0  0  0  0  0
    3.1658   -1.6478   -0.5575 H   0  0  0  0  0  0  0  0  0  0  0  0
    5.7977    3.8205    0.1602 H   0  0  0  0  0  0  0  0  0  0  0  0
    5.4017    3.5447   -2.2874 H   0  0  0  0  0  0  0  0  0  0  0  0
  2  1  1  0  0  0  0
  3  2  2  0  0  0  0
  3 34  1  0  0  0  0
  4  3  1  0  0  0  0
  5  4  2  0  0  0  0
  6  5  1  0  0  0  0
  7  6  1  0  0  0  0
  7 35  1  0  0  0  0
  8  7  2  0  0  0  0
  8  4  1  0  0  0  0
  9  8  1  0  0  0  0
 10  9  2  0  0  0  0
 10 36  1  0  0  0  0
 11 10  1  0  0  0  0
 11 37  1  0  0  0  0
 12 11  2  0  0  0  0
 13 12  1  0  0  0  0
 13 38  1  0  0  0  0
 13 39  1  0  0  0  0
 14 13  1  0  0  0  0
 14 40  1  0  0  0  0
 14 41  1  0  0  0  0
 15 14  1  0  0  0  0
 15 42  1  0  0  0  0
 15 43  1  0  0  0  0
 16 15  1  0  0  0  0
 16 44  1  0  0  0  0
 16 45  1  0  0  0  0
 17 16  1  0  0  0  0
 17 46  1  0  0  0  0
 17 47  1  0  0  0  0
 18 17  1  0  0  0  0
 18 48  1  0  0  0  0
 19 18  1  0  0  0  0
 20 19  2  0  0  0  0
 20 49  1  0  0  0  0
 21 20  1  0  0  0  0
 21 50  1  0  0  0  0
 22 21  2  0  0  0  0
 23 22  1  0  0  0  0
 24 23  2  0  0  0  0
 24 19  1  0  0  0  0
 25 24  1  0  0  0  0
 25 51  1  0  0  0  0
 26 25  2  0  0  0  0
 26 52  1  0  0  0  0
 27 26  1  0  0  0  0
 28 27  1  0  0  0  0
 29 27  2  0  0  0  0
 29 23  1  0  0  0  0
 29 53  1  0  0  0  0
 30 12  1  0  0  0  0
 30 54  1  0  0  0  0
 31 30  2  0  0  0  0
 31  9  1  0  0  0  0
 31 55  1  0  0  0  0
 32  5  1  0  0  0  0
 32 56  1  0  0  0  0
 33 32  2  0  0  0  0
 33  2  1  0  0  0  0
 33 57  1  0  0  0  0
M  CHG  1  14   1
M  END
>  <MOL Chiral Flag>
0

>  <energy>
69.111819784401987

$$$$
> 74_AKC_j.ejmech.2018.04.033
>73.sdf
 OpenBabel10052218203D

 40 43  0  0  0  0  0  0  0  0999 V2000
    0.1587   -5.1091    1.9498 C   0  0  0  0  0  0  0  0  0  0  0  0
   -0.4429   -5.2343    0.7139 O   0  0  0  0  0  0  0  0  0  0  0  0
   -1.0886   -4.2179    0.0905 C   0  0  0  0  0  0  0  0  0  0  0  0
   -0.6784   -2.8714    0.2174 C   0  0  0  0  0  0  0  0  0  0  0  0
   -1.4494   -1.8429   -0.3551 C   0  0  0  0  0  0  0  0  0  0  0  0
   -2.6176   -2.1749   -1.0636 C   0  0  0  0  0  0  0  0  0  0  0  0
   -2.9869   -3.5081   -1.2357 C   0  0  0  0  0  0  0  0  0  0  0  0
   -2.2241   -4.5243   -0.6646 C   0  0  0  0  0  0  0  0  0  0  0  0
   -1.0785   -0.4165   -0.2067 C   0  0  0  0  0  0  0  0  0  0  0  0
   -2.0744    0.5045   -0.1000 N   0  0  0  0  0  0  0  0  0  0  0  0
   -1.8223    1.8272    0.0318 C   0  0  0  0  0  0  0  0  0  0  0  0
   -2.8719    2.7224    0.2439 C   0  0  0  0  0  0  0  0  0  0  0  0
   -2.5988    4.0793    0.4035 C   0  0  0  0  0  0  0  0  0  0  0  0
   -1.2770    4.5285    0.3285 C   0  0  0  0  0  0  0  0  0  0  0  0
   -0.2630    3.6431    0.1158 N   0  0  0  0  0  0  0  0  0  0  0  0
   -0.4999    2.3086   -0.0225 C   0  0  0  0  0  0  0  0  0  0  0  0
    0.5588    1.3865   -0.1574 C   0  0  0  0  0  0  0  0  0  0  0  0
    0.2637    0.0113   -0.2026 C   0  0  0  0  0  0  0  0  0  0  0  0
    1.9671    1.8399   -0.2705 C   0  0  0  0  0  0  0  0  0  0  0  0
    2.9557    1.3192    0.5798 C   0  0  0  0  0  0  0  0  0  0  0  0
    4.2837    1.7428    0.4569 C   0  0  0  0  0  0  0  0  0  0  0  0
    4.6398    2.6596   -0.5365 C   0  0  0  0  0  0  0  0  0  0  0  0
    3.6660    3.1683   -1.3993 C   0  0  0  0  0  0  0  0  0  0  0  0
    2.3314    2.7735   -1.2597 C   0  0  0  0  0  0  0  0  0  0  0  0
   -0.6054   -4.7905    2.6944 H   0  0  0  0  0  0  0  0  0  0  0  0
    0.9937   -4.3814    1.9327 H   0  0  0  0  0  0  0  0  0  0  0  0
    0.5498   -6.0971    2.2652 H   0  0  0  0  0  0  0  0  0  0  0  0
    0.2049   -2.6209    0.7878 H   0  0  0  0  0  0  0  0  0  0  0  0
   -3.2291   -1.3993   -1.5081 H   0  0  0  0  0  0  0  0  0  0  0  0
   -3.8770   -3.7536   -1.7998 H   0  0  0  0  0  0  0  0  0  0  0  0
   -2.5364   -5.5548   -0.7770 H   0  0  0  0  0  0  0  0  0  0  0  0
   -3.8922    2.3629    0.3051 H   0  0  0  0  0  0  0  0  0  0  0  0
   -3.4053    4.7778    0.5869 H   0  0  0  0  0  0  0  0  0  0  0  0
   -1.0573    5.5798    0.4527 H   0  0  0  0  0  0  0  0  0  0  0  0
    1.0672   -0.7073   -0.3147 H   0  0  0  0  0  0  0  0  0  0  0  0
    2.6918    0.6075    1.3513 H   0  0  0  0  0  0  0  0  0  0  0  0
    5.0383    1.3563    1.1292 H   0  0  0  0  0  0  0  0  0  0  0  0
    5.6709    2.9731   -0.6398 H   0  0  0  0  0  0  0  0  0  0  0  0
    3.9463    3.8659   -2.1789 H   0  0  0  0  0  0  0  0  0  0  0  0
    1.5890    3.1660   -1.9445 H   0  0  0  0  0  0  0  0  0  0  0  0
  1 25  1  0  0  0  0
  1 26  1  0  0  0  0
  1 27  1  0  0  0  0
  2  1  1  0  0  0  0
  3  2  1  0  0  0  0
  4  3  2  0  0  0  0
  4 28  1  0  0  0  0
  5  4  1  0  0  0  0
  6  5  2  0  0  0  0
  6 29  1  0  0  0  0
  7  6  1  0  0  0  0
  7 30  1  0  0  0  0
  8  7  2  0  0  0  0
  8  3  1  0  0  0  0
  8 31  1  0  0  0  0
  9  5  1  0  0  0  0
 10  9  2  0  0  0  0
 11 10  1  0  0  0  0
 12 11  2  0  0  0  0
 12 32  1  0  0  0  0
 13 12  1  0  0  0  0
 13 33  1  0  0  0  0
 14 13  2  0  0  0  0
 14 34  1  0  0  0  0
 15 14  1  0  0  0  0
 16 15  2  0  0  0  0
 16 11  1  0  0  0  0
 17 16  1  0  0  0  0
 18 17  2  0  0  0  0
 18  9  1  0  0  0  0
 18 35  1  0  0  0  0
 19 17  1  0  0  0  0
 20 19  2  0  0  0  0
 20 36  1  0  0  0  0
 21 20  1  0  0  0  0
 21 37  1  0  0  0  0
 22 21  2  0  0  0  0
 22 38  1  0  0  0  0
 23 22  1  0  0  0  0
 23 39  1  0  0  0  0
 24 23  2  0  0  0  0
 24 19  1  0  0  0  0
 24 40  1  0  0  0  0
M  END
>  <MOL Chiral Flag>
0

>  <energy>
104.61044918861325

$$$$
> 75_AKC_1573406414666180226163222
>74.sdf
 OpenBabel10052218203D

 44 48  0  0  0  0  0  0  0  0999 V2000
    3.9922    4.0767   -0.5780 C   0  0  0  0  0  0  0  0  0  0  0  0
    2.8390    3.1459   -0.3379 C   0  0  0  0  0  0  0  0  0  0  0  0
    3.0390    1.7619   -0.3527 C   0  0  0  0  0  0  0  0  0  0  0  0
    1.9772    0.8916   -0.0991 C   0  0  0  0  0  0  0  0  0  0  0  0
    2.1964   -0.4425   -0.1423 N   0  0  0  0  0  0  0  0  0  0  0  0
    1.2257   -1.3556    0.1135 C   0  0  0  0  0  0  0  0  0  0  0  0
   -0.0749   -0.9232    0.4493 C   0  0  0  0  0  0  0  0  0  0  0  0
   -1.0997   -1.9497    0.8257 C   0  0  0  0  0  0  0  0  0  0  0  0
   -2.1994   -1.6229    1.2467 O   0  0  0  0  0  0  0  0  0  0  0  0
   -0.7484   -3.3788    0.7857 C   0  0  0  0  0  0  0  0  0  0  0  0
   -1.5574   -4.2172    1.1576 O   0  0  0  0  0  0  0  0  0  0  0  0
    0.5649   -3.7857    0.2503 C   0  0  0  0  0  0  0  0  0  0  0  0
    1.5265   -2.8025   -0.0683 C   0  0  0  0  0  0  0  0  0  0  0  0
    2.7538   -3.2002   -0.6329 C   0  0  0  0  0  0  0  0  0  0  0  0
    3.0136   -4.5482   -0.8827 C   0  0  0  0  0  0  0  0  0  0  0  0
    2.0664   -5.5173   -0.5539 C   0  0  0  0  0  0  0  0  0  0  0  0
    0.8507   -5.1425    0.0196 C   0  0  0  0  0  0  0  0  0  0  0  0
   -0.3658    0.4695    0.4063 C   0  0  0  0  0  0  0  0  0  0  0  0
   -1.7819    0.9062    0.3983 C   0  0  0  0  0  0  0  0  0  0  0  0
   -2.4765    0.7314   -0.8075 C   0  0  0  0  0  0  0  0  0  0  0  0
   -3.8220    1.0590   -0.9119 C   0  0  0  0  0  0  0  0  0  0  0  0
   -4.5164    1.5655    0.1970 C   0  0  0  0  0  0  0  0  0  0  0  0
   -3.8183    1.7494    1.4144 C   0  0  0  0  0  0  0  0  0  0  0  0
   -2.4530    1.4240    1.5141 C   0  0  0  0  0  0  0  0  0  0  0  0
   -5.9081    1.8779    0.0907 N   0  0  0  0  0  0  0  0  0  0  0  0
   -6.5039    2.3131    1.0273 O   0  0  0  0  0  0  0  0  0  0  0  0
   -6.4920    1.6857   -0.9358 O   0  0  0  0  0  0  0  0  0  0  0  0
    0.6814    1.3919    0.1546 C   0  0  0  0  0  0  0  0  0  0  0  0
    0.4773    2.7880    0.1332 C   0  0  0  0  0  0  0  0  0  0  0  0
    1.5546    3.6557   -0.0955 C   0  0  0  0  0  0  0  0  0  0  0  0
    4.9137    3.5200   -0.8560 H   0  0  0  0  0  0  0  0  0  0  0  0
    4.2016    4.6499    0.3494 H   0  0  0  0  0  0  0  0  0  0  0  0
    3.7521    4.7820   -1.4004 H   0  0  0  0  0  0  0  0  0  0  0  0
    4.0246    1.3561   -0.5504 H   0  0  0  0  0  0  0  0  0  0  0  0
    3.4986   -2.4657   -0.9121 H   0  0  0  0  0  0  0  0  0  0  0  0
    3.9480   -4.8401   -1.3436 H   0  0  0  0  0  0  0  0  0  0  0  0
    2.2685   -6.5605   -0.7567 H   0  0  0  0  0  0  0  0  0  0  0  0
    0.1211   -5.9070    0.2555 H   0  0  0  0  0  0  0  0  0  0  0  0
   -1.9636    0.3295   -1.6742 H   0  0  0  0  0  0  0  0  0  0  0  0
   -4.3230    0.9067   -1.8602 H   0  0  0  0  0  0  0  0  0  0  0  0
   -4.3343    2.1320    2.2849 H   0  0  0  0  0  0  0  0  0  0  0  0
   -1.9352    1.5518    2.4556 H   0  0  0  0  0  0  0  0  0  0  0  0
   -0.5018    3.2120    0.3136 H   0  0  0  0  0  0  0  0  0  0  0  0
    1.3888    4.7260   -0.0910 H   0  0  0  0  0  0  0  0  0  0  0  0
  1 31  1  0  0  0  0
  1 32  1  0  0  0  0
  1 33  1  0  0  0  0
  2  1  1  0  0  0  0
  3  2  2  0  0  0  0
  3 34  1  0  0  0  0
  4  3  1  0  0  0  0
  5  4  2  0  0  0  0
  6  5  1  0  0  0  0
  7  6  2  0  0  0  0
  8  7  1  0  0  0  0
  9  8  2  0  0  0  0
 10  8  1  0  0  0  0
 11 10  2  0  0  0  0
 12 10  1  0  0  0  0
 13 12  2  0  0  0  0
 13  6  1  0  0  0  0
 14 13  1  0  0  0  0
 14 35  1  0  0  0  0
 15 14  2  0  0  0  0
 15 36  1  0  0  0  0
 16 15  1  0  0  0  0
 16 37  1  0  0  0  0
 17 16  2  0  0  0  0
 17 12  1  0  0  0  0
 17 38  1  0  0  0  0
 18  7  1  0  0  0  0
 19 18  1  0  0  0  0
 20 19  2  0  0  0  0
 20 39  1  0  0  0  0
 21 20  1  0  0  0  0
 21 40  1  0  0  0  0
 22 21  2  0  0  0  0
 23 22  1  0  0  0  0
 23 41  1  0  0  0  0
 24 23  2  0  0  0  0
 24 19  1  0  0  0  0
 24 42  1  0  0  0  0
 25 22  1  0  0  0  0
 26 25  2  0  0  0  0
 27 25  2  0  0  0  0
 28 18  2  0  0  0  0
 28  4  1  0  0  0  0
 29 28  1  0  0  0  0
 29 43  1  0  0  0  0
 30 29  2  0  0  0  0
 30  2  1  0  0  0  0
 30 44  1  0  0  0  0
M  END
>  <MOL Chiral Flag>
0

>  <energy>
162.23080236608635

$$$$
> 76_AKC_s00044-017-1824-y
>75.sdf
 OpenBabel10052218203D

 40 43  0  0  0  0  0  0  0  0999 V2000
   -6.9908    2.8681   -0.1452 C   0  0  0  0  0  0  0  0  0  0  0  0
   -6.5722    1.8621    0.7038 O   0  0  0  0  0  0  0  0  0  0  0  0
   -5.4342    1.1363    0.5417 C   0  0  0  0  0  0  0  0  0  0  0  0
   -4.6232    1.2649   -0.6028 C   0  0  0  0  0  0  0  0  0  0  0  0
   -3.4340    0.5467   -0.7044 C   0  0  0  0  0  0  0  0  0  0  0  0
   -3.0320   -0.3152    0.3284 C   0  0  0  0  0  0  0  0  0  0  0  0
   -3.8526   -0.4726    1.4540 C   0  0  0  0  0  0  0  0  0  0  0  0
   -5.0464    0.2515    1.5581 C   0  0  0  0  0  0  0  0  0  0  0  0
   -1.7186   -0.9776    0.2488 C   0  0  0  0  0  0  0  0  0  0  0  0
   -0.8014   -0.6590   -0.6952 N   0  0  0  0  0  0  0  0  0  0  0  0
    0.2904   -1.3281   -0.3086 C   0  0  0  0  0  0  0  0  0  0  0  0
    0.0182   -2.0361    0.8168 C   0  0  0  0  0  0  0  0  0  0  0  0
   -1.2249   -1.8085    1.1595 O   0  0  0  0  0  0  0  0  0  0  0  0
    0.9923   -2.8077    1.4512 C   0  0  0  0  0  0  0  0  0  0  0  0
    2.2906   -2.8135    0.8922 C   0  0  0  0  0  0  0  0  0  0  0  0
    2.5720   -2.0339   -0.2618 C   0  0  0  0  0  0  0  0  0  0  0  0
    1.5464   -1.2887   -0.8779 C   0  0  0  0  0  0  0  0  0  0  0  0
    3.9459   -1.8992   -0.7724 C   0  0  0  0  0  0  0  0  0  0  0  0
    4.5522   -2.8858   -1.1625 O   0  0  0  0  0  0  0  0  0  0  0  0
    4.6210   -0.5691   -0.7047 C   0  0  0  0  0  0  0  0  0  0  0  0
    4.0852    0.4555    0.1087 C   0  0  0  0  0  0  0  0  0  0  0  0
    4.7351    1.6835    0.2259 C   0  0  0  0  0  0  0  0  0  0  0  0
    5.9182    1.9166   -0.4730 C   0  0  0  0  0  0  0  0  0  0  0  0
    6.4574    0.9170   -1.2883 C   0  0  0  0  0  0  0  0  0  0  0  0
    5.8191   -0.3255   -1.3992 C   0  0  0  0  0  0  0  0  0  0  0  0
   -7.9253    3.3141    0.2505 H   0  0  0  0  0  0  0  0  0  0  0  0
   -6.2188    3.6675   -0.1995 H   0  0  0  0  0  0  0  0  0  0  0  0
   -7.1906    2.4638   -1.1599 H   0  0  0  0  0  0  0  0  0  0  0  0
   -4.8927    1.9326   -1.4094 H   0  0  0  0  0  0  0  0  0  0  0  0
   -2.8152    0.6811   -1.5829 H   0  0  0  0  0  0  0  0  0  0  0  0
   -3.5538   -1.1254    2.2651 H   0  0  0  0  0  0  0  0  0  0  0  0
   -5.6592    0.1462    2.4444 H   0  0  0  0  0  0  0  0  0  0  0  0
    0.7720   -3.3531    2.3590 H   0  0  0  0  0  0  0  0  0  0  0  0
    3.0835   -3.3644    1.3827 H   0  0  0  0  0  0  0  0  0  0  0  0
    1.7370   -0.6809   -1.7544 H   0  0  0  0  0  0  0  0  0  0  0  0
    3.1785    0.3001    0.6789 H   0  0  0  0  0  0  0  0  0  0  0  0
    4.3218    2.4519    0.8676 H   0  0  0  0  0  0  0  0  0  0  0  0
    6.4190    2.8712   -0.3779 H   0  0  0  0  0  0  0  0  0  0  0  0
    7.3755    1.1039   -1.8287 H   0  0  0  0  0  0  0  0  0  0  0  0
    6.2551   -1.0905   -2.0285 H   0  0  0  0  0  0  0  0  0  0  0  0
  1 26  1  0  0  0  0
  1 27  1  0  0  0  0
  1 28  1  0  0  0  0
  2  1  1  0  0  0  0
  3  2  1  0  0  0  0
  4  3  2  0  0  0  0
  4 29  1  0  0  0  0
  5  4  1  0  0  0  0
  5 30  1  0  0  0  0
  6  5  2  0  0  0  0
  7  6  1  0  0  0  0
  7 31  1  0  0  0  0
  8  7  2  0  0  0  0
  8  3  1  0  0  0  0
  8 32  1  0  0  0  0
  9  6  1  0  0  0  0
 10  9  2  0  0  0  0
 11 10  1  0  0  0  0
 12 11  2  0  0  0  0
 13 12  1  0  0  0  0
 13  9  1  0  0  0  0
 14 12  1  0  0  0  0
 14 33  1  0  0  0  0
 15 14  2  0  0  0  0
 15 34  1  0  0  0  0
 16 15  1  0  0  0  0
 17 16  2  0  0  0  0
 17 11  1  0  0  0  0
 17 35  1  0  0  0  0
 18 16  1  0  0  0  0
 19 18  2  0  0  0  0
 20 18  1  0  0  0  0
 21 20  2  0  0  0  0
 21 36  1  0  0  0  0
 22 21  1  0  0  0  0
 22 37  1  0  0  0  0
 23 22  2  0  0  0  0
 23 38  1  0  0  0  0
 24 23  1  0  0  0  0
 24 39  1  0  0  0  0
 25 24  2  0  0  0  0
 25 20  1  0  0  0  0
 25 40  1  0  0  0  0
M  END
>  <MOL Chiral Flag>
0

>  <energy>
110.57486832141002

$$$$
> 77_AKC_acs.jmedchem.6b01447
>76.sdf
 OpenBabel10052218203D

 64 70  0  0  0  0  0  0  0  0999 V2000
   -3.2108    3.8127   -3.7269 C   0  0  0  0  0  0  0  0  0  0  0  0
   -2.7988    2.5366   -4.0611 O   0  0  0  0  0  0  0  0  0  0  0  0
   -2.3952    1.5549   -3.2038 C   0  0  0  0  0  0  0  0  0  0  0  0
   -2.4186    1.6979   -1.7925 C   0  0  0  0  0  0  0  0  0  0  0  0
   -2.8899    2.8397   -1.2171 O   0  0  0  0  0  0  0  0  0  0  0  0
   -3.0274    3.0620    0.1413 C   0  0  0  0  0  0  0  0  0  0  0  0
   -1.9441    0.6450   -1.0003 C   0  0  0  0  0  0  0  0  0  0  0  0
   -1.4554   -0.5516   -1.5621 C   0  0  0  0  0  0  0  0  0  0  0  0
   -1.4622   -0.6969   -2.9530 C   0  0  0  0  0  0  0  0  0  0  0  0
   -1.9244    0.3517   -3.7622 C   0  0  0  0  0  0  0  0  0  0  0  0
   -0.9128   -1.5907   -0.5944 C   0  0  1  0  0  0  0  0  0  0  0  0
   -1.0886   -3.0922   -0.5613 C   0  0  0  0  0  0  0  0  0  0  0  0
   -0.7391   -3.7723    0.5359 C   0  0  0  0  0  0  0  0  0  0  0  0
   -1.0590   -5.2383    0.4425 C   0  0  0  0  0  0  0  0  0  0  0  0
   -1.7198   -5.3917   -0.9599 C   0  0  0  0  0  0  0  0  0  0  0  0
   -1.7003   -3.9969   -1.5003 C   0  0  0  0  0  0  0  0  0  0  0  0
   -2.1622   -3.6764   -2.5825 O   0  0  0  0  0  0  0  0  0  0  0  0
   -0.1009   -3.1352    1.6627 N   0  0  0  0  0  0  0  0  0  0  0  0
    0.4607   -1.8358    1.4493 C   0  0  0  0  0  0  0  0  0  0  0  0
    0.2323   -1.1598    0.2877 C   0  0  0  0  0  0  0  0  0  0  0  0
    1.1263   -0.1002    0.2973 C   0  0  0  0  0  0  0  0  0  0  0  0
    1.7592   -0.0908    1.4923 N   0  0  0  0  0  0  0  0  0  0  0  0
    1.3402   -1.1303    2.2091 N   0  0  0  0  0  0  0  0  0  0  0  0
    1.7638   -1.3184    3.5819 C   0  0  0  0  0  0  0  0  0  0  0  0
    1.0245   -2.1010    4.4910 C   0  0  0  0  0  0  0  0  0  0  0  0
    1.4095   -2.1869    5.8311 C   0  0  0  0  0  0  0  0  0  0  0  0
    2.5283   -1.4907    6.2925 C   0  0  0  0  0  0  0  0  0  0  0  0
    2.9659   -1.6023    7.9921 Cl  0  0  0  0  0  0  0  0  0  0  0  0
    3.2685   -0.6973    5.4038 C   0  0  0  0  0  0  0  0  0  0  0  0
    4.6660    0.2172    5.9549 Cl  0  0  0  0  0  0  0  0  0  0  0  0
    2.8839   -0.6098    4.0612 C   0  0  0  0  0  0  0  0  0  0  0  0
    1.4521    0.8288   -0.8076 C   0  0  0  0  0  0  0  0  0  0  0  0
    1.3450    0.5353   -2.1653 C   0  0  0  0  0  0  0  0  0  0  0  0
    1.7854    1.5740   -2.9046 N   0  0  0  0  0  0  0  0  0  0  0  0
    2.1889    2.5147   -2.0379 C   0  0  0  0  0  0  0  0  0  0  0  0
    2.0127    2.0921   -0.7431 C   0  0  0  0  0  0  0  0  0  0  0  0
    2.3762    2.8970    0.3356 C   0  0  0  0  0  0  0  0  0  0  0  0
    2.9300    4.1631    0.0589 C   0  0  0  0  0  0  0  0  0  0  0  0
    3.1088    4.5908   -1.2777 C   0  0  0  0  0  0  0  0  0  0  0  0
    2.7353    3.7562   -2.3445 C   0  0  0  0  0  0  0  0  0  0  0  0
   -2.4007    4.3520   -3.1884 H   0  0  0  0  0  0  0  0  0  0  0  0
   -3.4372    4.3759   -4.6543 H   0  0  0  0  0  0  0  0  0  0  0  0
   -4.1364    3.7785   -3.1139 H   0  0  0  0  0  0  0  0  0  0  0  0
   -3.4512    4.0735    0.3052 H   0  0  0  0  0  0  0  0  0  0  0  0
   -2.0400    3.0100    0.6485 H   0  0  0  0  0  0  0  0  0  0  0  0
   -3.7239    2.3166    0.5841 H   0  0  0  0  0  0  0  0  0  0  0  0
   -1.9360    0.7501    0.0767 H   0  0  0  0  0  0  0  0  0  0  0  0
   -1.0805   -1.5959   -3.4147 H   0  0  0  0  0  0  0  0  0  0  0  0
   -1.9027    0.2374   -4.8384 H   0  0  0  0  0  0  0  0  0  0  0  0
   -1.7370   -1.4783    0.1517 H   0  0  0  0  0  0  0  0  0  0  0  0
   -0.1224   -5.8323    0.5102 H   0  0  0  0  0  0  0  0  0  0  0  0
   -1.7628   -5.5276    1.2514 H   0  0  0  0  0  0  0  0  0  0  0  0
   -1.1316   -6.0679   -1.6171 H   0  0  0  0  0  0  0  0  0  0  0  0
   -2.7686   -5.7466   -0.8695 H   0  0  0  0  0  0  0  0  0  0  0  0
    0.1768   -3.7182    2.4598 H   0  0  0  0  0  0  0  0  0  0  0  0
    0.1246   -2.6083    4.1999 H   0  0  0  0  0  0  0  0  0  0  0  0
    0.8208   -2.7813    6.5185 H   0  0  0  0  0  0  0  0  0  0  0  0
    3.4545    0.0222    3.3927 H   0  0  0  0  0  0  0  0  0  0  0  0
    1.0108   -0.3950   -2.5915 H   0  0  0  0  0  0  0  0  0  0  0  0
    1.8257    1.6197   -3.9474 H   0  0  0  0  0  0  0  0  0  0  0  0
    2.2362    2.5668    1.3556 H   0  0  0  0  0  0  0  0  0  0  0  0
    3.2206    4.8128    0.8731 H   0  0  0  0  0  0  0  0  0  0  0  0
    3.5364    5.5635   -1.4822 H   0  0  0  0  0  0  0  0  0  0  0  0
    2.8708    4.0680   -3.3727 H   0  0  0  0  0  0  0  0  0  0  0  0
  1 41  1  0  0  0  0
  1 42  1  0  0  0  0
  1 43  1  0  0  0  0
  2  1  1  0  0  0  0
  3  2  1  0  0  0  0
  4  3  2  0  0  0  0
  5  4  1  0  0  0  0
  6  5  1  0  0  0  0
  6 44  1  0  0  0  0
  6 45  1  0  0  0  0
  6 46  1  0  0  0  0
  7  4  1  0  0  0  0
  7 47  1  0  0  0  0
  8  7  2  0  0  0  0
  9  8  1  0  0  0  0
  9 48  1  0  0  0  0
 10  9  2  0  0  0  0
 10  3  1  0  0  0  0
 10 49  1  0  0  0  0
 11  8  1  0  0  0  0
 11 50  1  1  0  0  0
 12 11  1  0  0  0  0
 13 12  2  0  0  0  0
 14 13  1  0  0  0  0
 14 51  1  0  0  0  0
 14 52  1  0  0  0  0
 15 14  1  0  0  0  0
 15 53  1  0  0  0  0
 15 54  1  0  0  0  0
 16 15  1  0  0  0  0
 16 12  1  0  0  0  0
 17 16  2  0  0  0  0
 18 13  1  0  0  0  0
 18 55  1  0  0  0  0
 19 18  1  0  0  0  0
 20 19  2  0  0  0  0
 20 11  1  0  0  0  0
 21 20  1  0  0  0  0
 22 21  2  0  0  0  0
 23 22  1  0  0  0  0
 23 19  1  0  0  0  0
 24 23  1  0  0  0  0
 25 24  2  0  0  0  0
 25 56  1  0  0  0  0
 26 25  1  0  0  0  0
 26 57  1  0  0  0  0
 27 26  2  0  0  0  0
 28 27  1  0  0  0  0
 29 27  1  0  0  0  0
 30 29  1  0  0  0  0
 31 29  2  0  0  0  0
 31 24  1  0  0  0  0
 31 58  1  0  0  0  0
 32 21  1  0  0  0  0
 33 32  2  0  0  0  0
 33 59  1  0  0  0  0
 34 33  1  0  0  0  0
 34 60  1  0  0  0  0
 35 34  1  0  0  0  0
 36 35  2  0  0  0  0
 36 32  1  0  0  0  0
 37 36  1  0  0  0  0
 37 61  1  0  0  0  0
 38 37  2  0  0  0  0
 38 62  1  0  0  0  0
 39 38  1  0  0  0  0
 39 63  1  0  0  0  0
 40 39  2  0  0  0  0
 40 35  1  0  0  0  0
 40 64  1  0  0  0  0
M  END
>  <MOL Chiral Flag>
0

>  <energy>
179.63364298205212

$$$$
> 78_AKC_j.ejmech.2016.07.014
>77.sdf
 OpenBabel10052218213D

 27 28  0  0  0  0  0  0  0  0999 V2000
   -3.1161   -0.0998    0.2373 N   0  0  0  0  0  0  0  0  0  0  0  0
   -2.4983    1.1579   -0.0196 C   0  0  0  0  0  0  0  0  0  0  0  0
   -2.7956    1.8532   -1.2451 S   0  0  0  0  0  0  0  0  0  0  0  0
   -1.6614    1.7830    0.9599 N   0  0  0  0  0  0  0  0  0  0  0  0
   -1.3590    1.1645    2.1556 N   0  0  0  0  0  0  0  0  0  0  0  0
   -0.6922    0.0562    2.2477 C   0  0  0  0  0  0  0  0  0  0  0  0
   -0.0184   -0.6388    1.1054 C   0  0  0  0  0  0  0  0  0  0  0  0
   -0.1834   -2.0313    1.0324 C   0  0  0  0  0  0  0  0  0  0  0  0
    0.3855   -2.7713   -0.0016 C   0  0  0  0  0  0  0  0  0  0  0  0
    1.1513   -2.1453   -0.9802 C   0  0  0  0  0  0  0  0  0  0  0  0
    1.6978   -2.8958   -1.9718 F   0  0  0  0  0  0  0  0  0  0  0  0
    1.3771   -0.7610   -0.9207 C   0  0  0  0  0  0  0  0  0  0  0  0
    2.1915   -0.1406   -1.8853 C   0  0  0  0  0  0  0  0  0  0  0  0
    2.4594    1.2246   -1.8088 C   0  0  0  0  0  0  0  0  0  0  0  0
    1.9310    1.9830   -0.7677 C   0  0  0  0  0  0  0  0  0  0  0  0
    1.1158    1.3878    0.1973 C   0  0  0  0  0  0  0  0  0  0  0  0
    0.8017    0.0112    0.1301 C   0  0  0  0  0  0  0  0  0  0  0  0
   -3.7547   -0.5250   -0.4524 H   0  0  0  0  0  0  0  0  0  0  0  0
   -2.9865   -0.5825    1.1362 H   0  0  0  0  0  0  0  0  0  0  0  0
   -1.4411    2.7860    0.8568 H   0  0  0  0  0  0  0  0  0  0  0  0
   -0.7024   -0.4538    3.2055 H   0  0  0  0  0  0  0  0  0  0  0  0
   -0.7816   -2.5465    1.7744 H   0  0  0  0  0  0  0  0  0  0  0  0
    0.2297   -3.8417   -0.0443 H   0  0  0  0  0  0  0  0  0  0  0  0
    2.6327   -0.7151   -2.6909 H   0  0  0  0  0  0  0  0  0  0  0  0
    3.0945    1.6930   -2.5499 H   0  0  0  0  0  0  0  0  0  0  0  0
    2.1614    3.0387   -0.7015 H   0  0  0  0  0  0  0  0  0  0  0  0
    0.7610    2.0096    1.0014 H   0  0  0  0  0  0  0  0  0  0  0  0
  1 18  1  0  0  0  0
  1 19  1  0  0  0  0
  2  1  1  0  0  0  0
  3  2  2  0  0  0  0
  4  2  1  0  0  0  0
  4 20  1  0  0  0  0
  5  4  1  0  0  0  0
  6  5  2  0  0  0  0
  6 21  1  0  0  0  0
  7  6  1  0  0  0  0
  8  7  2  0  0  0  0
  8 22  1  0  0  0  0
  9  8  1  0  0  0  0
  9 23  1  0  0  0  0
 10  9  2  0  0  0  0
 11 10  1  0  0  0  0
 12 10  1  0  0  0  0
 13 12  2  0  0  0  0
 13 24  1  0  0  0  0
 14 13  1  0  0  0  0
 14 25  1  0  0  0  0
 15 14  2  0  0  0  0
 15 26  1  0  0  0  0
 16 15  1  0  0  0  0
 16 27  1  0  0  0  0
 17 16  2  0  0  0  0
 17  7  1  0  0  0  0
 17 12  1  0  0  0  0
M  END
>  <MOL Chiral Flag>
0

>  <energy>
43.264956711151129

$$$$
> 79_AKC_j.ejmech.2020.112956
>78.sdf
 OpenBabel10052218213D

 32 34  0  0  0  0  0  0  0  0999 V2000
   -3.7474    0.7367   -1.9526 C   0  0  0  0  0  0  0  0  0  0  0  0
   -3.5847   -0.2698   -0.9149 N   0  0  0  0  0  0  0  0  0  0  0  0
   -4.7422   -1.0589   -0.5235 C   0  0  0  0  0  0  0  0  0  0  0  0
   -2.3858   -0.3625   -0.1247 C   0  0  0  0  0  0  0  0  0  0  0  0
   -2.4401   -0.9793    1.0929 N   0  0  0  0  0  0  0  0  0  0  0  0
   -1.3453   -1.1043    1.8951 C   0  0  0  0  0  0  0  0  0  0  0  0
   -0.1079   -0.6211    1.4625 C   0  0  0  0  0  0  0  0  0  0  0  0
   -0.0357   -0.0323    0.2386 N   0  0  0  0  0  0  0  0  0  0  0  0
   -1.1243    0.1228   -0.5456 C   0  0  0  0  0  0  0  0  0  0  0  0
   -0.8305    0.7293   -1.7126 N   0  0  0  0  0  0  0  0  0  0  0  0
    0.4982    0.9689   -1.6541 C   0  0  0  0  0  0  0  0  0  0  0  0
    1.1904    1.5386   -2.6700 F   0  0  0  0  0  0  0  0  0  0  0  0
    1.0065    0.4963   -0.4490 C   0  0  0  0  0  0  0  0  0  0  0  0
    2.4357    0.5212   -0.0023 C   0  0  0  0  0  0  0  0  0  0  0  0
    2.8224   -0.2298    1.0637 N   0  0  0  0  0  0  0  0  0  0  0  0
    4.1132   -0.2640    1.4880 C   0  0  0  0  0  0  0  0  0  0  0  0
    4.4752   -1.0820    2.5807 N   0  0  0  0  0  0  0  0  0  0  0  0
    5.0565    0.4755    0.8498 N   0  0  0  0  0  0  0  0  0  0  0  0
    4.7264    1.2484   -0.2152 C   0  0  0  0  0  0  0  0  0  0  0  0
    3.4085    1.2839   -0.6719 C   0  0  0  0  0  0  0  0  0  0  0  0
   -3.6900    1.7410   -1.4779 H   0  0  0  0  0  0  0  0  0  0  0  0
   -4.7443    0.6658   -2.4379 H   0  0  0  0  0  0  0  0  0  0  0  0
   -2.9976    0.6425   -2.7575 H   0  0  0  0  0  0  0  0  0  0  0  0
   -5.4993   -1.1138   -1.3345 H   0  0  0  0  0  0  0  0  0  0  0  0
   -5.2069   -0.6013    0.3743 H   0  0  0  0  0  0  0  0  0  0  0  0
   -4.4411   -2.1033   -0.2899 H   0  0  0  0  0  0  0  0  0  0  0  0
   -1.4372   -1.5787    2.8620 H   0  0  0  0  0  0  0  0  0  0  0  0
    0.7500   -0.7260    2.1048 H   0  0  0  0  0  0  0  0  0  0  0  0
    5.4549   -1.1245    2.8968 H   0  0  0  0  0  0  0  0  0  0  0  0
    3.7650   -1.6581    3.0557 H   0  0  0  0  0  0  0  0  0  0  0  0
    5.4890    1.8340   -0.7112 H   0  0  0  0  0  0  0  0  0  0  0  0
    3.1682    1.9048   -1.5193 H   0  0  0  0  0  0  0  0  0  0  0  0
  1 21  1  0  0  0  0
  1 22  1  0  0  0  0
  1 23  1  0  0  0  0
  2  1  1  0  0  0  0
  3  2  1  0  0  0  0
  3 24  1  0  0  0  0
  3 25  1  0  0  0  0
  3 26  1  0  0  0  0
  4  2  1  0  0  0  0
  5  4  2  0  0  0  0
  6  5  1  0  0  0  0
  6 27  1  0  0  0  0
  7  6  2  0  0  0  0
  7 28  1  0  0  0  0
  8  7  1  0  0  0  0
  9  8  1  0  0  0  0
  9  4  1  0  0  0  0
 10  9  2  0  0  0  0
 11 10  1  0  0  0  0
 12 11  1  0  0  0  0
 13 11  2  0  0  0  0
 13  8  1  0  0  0  0
 14 13  1  0  0  0  0
 15 14  2  0  0  0  0
 16 15  1  0  0  0  0
 17 16  1  0  0  0  0
 17 29  1  0  0  0  0
 17 30  1  0  0  0  0
 18 16  2  0  0  0  0
 19 18  1  0  0  0  0
 19 31  1  0  0  0  0
 20 19  2  0  0  0  0
 20 14  1  0  0  0  0
 20 32  1  0  0  0  0
M  END
>  <MOL Chiral Flag>
0

>  <energy>
-111.84407897630882

$$$$
> 80_AKC_j.heliyon.2020.e03614
>79.sdf
 OpenBabel10052218223D

 53 56  0  0  0  0  0  0  0  0999 V2000
    5.2997    2.1128    0.8133 C   0  0  0  0  0  0  0  0  0  0  0  0
    4.3573    1.0112    0.2926 C   0  0  0  0  0  0  0  0  0  0  0  0
    5.1644   -0.2684    0.0316 C   0  0  0  0  0  0  0  0  0  0  0  0
    3.2517    0.7057    1.3428 C   0  0  0  0  0  0  0  0  0  0  0  0
    2.1688    1.7479    1.3352 C   0  0  0  0  0  0  0  0  0  0  0  0
    1.3510    1.7744    2.2435 O   0  0  0  0  0  0  0  0  0  0  0  0
    1.9614    2.5590    0.1139 C   0  0  0  0  0  0  0  0  0  0  0  0
    0.8771    3.4354   -0.0015 C   0  0  0  0  0  0  0  0  0  0  0  0
    0.6199    4.1002   -1.2190 C   0  0  0  0  0  0  0  0  0  0  0  0
   -0.6750    4.8649   -1.3910 C   0  0  0  0  0  0  0  0  0  0  0  0
   -1.7074    3.8701   -1.1763 N   0  0  0  0  0  0  0  0  0  0  0  0
   -2.6138    3.4437   -2.1042 C   0  0  0  0  0  0  0  0  0  0  0  0
   -2.8081    4.0652   -3.1358 O   0  0  0  0  0  0  0  0  0  0  0  0
   -3.3378    2.1694   -1.8337 C   0  0  0  0  0  0  0  0  0  0  0  0
   -2.6546    1.1952   -1.1989 C   0  0  0  0  0  0  0  0  0  0  0  0
   -3.2054   -0.0840   -0.7212 C   0  0  0  0  0  0  0  0  0  0  0  0
   -2.3319   -0.9866   -0.2287 C   0  0  0  0  0  0  0  0  0  0  0  0
   -2.6849   -2.2179    0.5122 C   0  0  0  0  0  0  0  0  0  0  0  0
   -3.9878   -2.4490    1.0176 C   0  0  0  0  0  0  0  0  0  0  0  0
   -4.1799   -3.5631    1.8304 C   0  0  0  0  0  0  0  0  0  0  0  0
   -3.1924   -4.4187    2.1208 C   0  0  0  0  0  0  0  0  0  0  0  0
   -3.6533   -5.3611    2.9413 O   0  0  0  0  0  0  0  0  0  0  0  0
   -4.9987   -5.0902    3.2102 C   0  0  0  0  0  0  0  0  0  0  0  0
   -5.2885   -3.9425    2.4641 O   0  0  0  0  0  0  0  0  0  0  0  0
   -1.9040   -4.2602    1.6274 C   0  0  0  0  0  0  0  0  0  0  0  0
   -1.6458   -3.1388    0.8212 C   0  0  0  0  0  0  0  0  0  0  0  0
    1.5057    3.9344   -2.2929 C   0  0  0  0  0  0  0  0  0  0  0  0
    2.5973    3.0661   -2.1733 C   0  0  0  0  0  0  0  0  0  0  0  0
    2.8121    2.3590   -0.9839 C   0  0  0  0  0  0  0  0  0  0  0  0
    3.8152    1.4470   -0.9095 O   0  0  0  0  0  0  0  0  0  0  0  0
    6.0868    2.3243    0.0572 H   0  0  0  0  0  0  0  0  0  0  0  0
    4.7436    3.0546    1.0048 H   0  0  0  0  0  0  0  0  0  0  0  0
    5.7949    1.7963    1.7559 H   0  0  0  0  0  0  0  0  0  0  0  0
    5.9555   -0.0866   -0.7258 H   0  0  0  0  0  0  0  0  0  0  0  0
    5.6341   -0.6402    0.9673 H   0  0  0  0  0  0  0  0  0  0  0  0
    4.4927   -1.0638   -0.3616 H   0  0  0  0  0  0  0  0  0  0  0  0
    3.7142    0.6209    2.3516 H   0  0  0  0  0  0  0  0  0  0  0  0
    2.7427   -0.2597    1.1298 H   0  0  0  0  0  0  0  0  0  0  0  0
    0.1956    3.5470    0.8331 H   0  0  0  0  0  0  0  0  0  0  0  0
   -0.7594    5.6753   -0.6353 H   0  0  0  0  0  0  0  0  0  0  0  0
   -0.7484    5.3120   -2.4056 H   0  0  0  0  0  0  0  0  0  0  0  0
   -1.6948    3.3868   -0.2685 H   0  0  0  0  0  0  0  0  0  0  0  0
   -4.3625    2.0205   -2.1608 H   0  0  0  0  0  0  0  0  0  0  0  0
   -1.6011    1.3608   -0.9834 H   0  0  0  0  0  0  0  0  0  0  0  0
   -4.2777   -0.2372   -0.6944 H   0  0  0  0  0  0  0  0  0  0  0  0
   -1.2674   -0.7746   -0.3176 H   0  0  0  0  0  0  0  0  0  0  0  0
   -4.8055   -1.7662    0.8396 H   0  0  0  0  0  0  0  0  0  0  0  0
   -5.1396   -4.8891    4.2946 H   0  0  0  0  0  0  0  0  0  0  0  0
   -5.6364   -5.9361    2.8828 H   0  0  0  0  0  0  0  0  0  0  0  0
   -1.1172   -4.9590    1.8805 H   0  0  0  0  0  0  0  0  0  0  0  0
   -0.6394   -2.9732    0.4548 H   0  0  0  0  0  0  0  0  0  0  0  0
    1.3236    4.4345   -3.2354 H   0  0  0  0  0  0  0  0  0  0  0  0
    3.2560    2.9144   -3.0180 H   0  0  0  0  0  0  0  0  0  0  0  0
  1 31  1  0  0  0  0
  1 32  1  0  0  0  0
  1 33  1  0  0  0  0
  2  1  1  0  0  0  0
  3  2  1  0  0  0  0
  3 34  1  0  0  0  0
  3 35  1  0  0  0  0
  3 36  1  0  0  0  0
  4  2  1  0  0  0  0
  4 37  1  0  0  0  0
  4 38  1  0  0  0  0
  5  4  1  0  0  0  0
  6  5  2  0  0  0  0
  7  5  1  0  0  0  0
  8  7  2  0  0  0  0
  8 39  1  0  0  0  0
  9  8  1  0  0  0  0
 10  9  1  0  0  0  0
 10 40  1  0  0  0  0
 10 41  1  0  0  0  0
 11 10  1  0  0  0  0
 11 42  1  0  0  0  0
 12 11  1  0  0  0  0
 13 12  2  0  0  0  0
 14 12  1  0  0  0  0
 14 43  1  0  0  0  0
 15 14  2  0  0  0  0
 15 44  1  0  0  0  0
 16 15  1  0  0  0  0
 16 45  1  0  0  0  0
 17 16  2  0  0  0  0
 17 46  1  0  0  0  0
 18 17  1  0  0  0  0
 19 18  2  0  0  0  0
 19 47  1  0  0  0  0
 20 19  1  0  0  0  0
 21 20  2  0  0  0  0
 22 21  1  0  0  0  0
 23 22  1  0  0  0  0
 23 48  1  0  0  0  0
 23 49  1  0  0  0  0
 24 23  1  0  0  0  0
 24 20  1  0  0  0  0
 25 21  1  0  0  0  0
 25 50  1  0  0  0  0
 26 25  2  0  0  0  0
 26 18  1  0  0  0  0
 26 51  1  0  0  0  0
 27  9  2  0  0  0  0
 27 52  1  0  0  0  0
 28 27  1  0  0  0  0
 28 53  1  0  0  0  0
 29 28  2  0  0  0  0
 29  7  1  0  0  0  0
 30 29  1  0  0  0  0
 30  2  1  0  0  0  0
M  END
>  <MOL Chiral Flag>
0

>  <energy>
44.520172796350195

$$$$
> 81_AKC_s11033-020-05887-5
>80.sdf
 OpenBabel10052218223D

 44 46  0  0  0  0  0  0  0  0999 V2000
   -6.4507    0.5918   -0.8333 C   0  0  0  0  0  0  0  0  0  0  0  0
   -5.6262    1.8739   -0.7784 C   0  0  0  0  0  0  0  0  0  0  0  0
   -4.3579    1.8722   -1.6515 C   0  0  0  0  0  0  0  0  0  0  0  0
   -3.2439    0.9432   -1.2040 C   0  0  0  0  0  0  0  0  0  0  0  0
   -3.3567   -0.4535   -1.3097 C   0  0  0  0  0  0  0  0  0  0  0  0
   -2.3032   -1.3034   -0.9266 C   0  0  0  0  0  0  0  0  0  0  0  0
   -2.5016   -2.6440   -1.0710 O   0  0  0  0  0  0  0  0  0  0  0  0
   -1.6048   -3.6549   -0.7994 C   0  0  0  0  0  0  0  0  0  0  0  0
   -1.0969   -0.7313   -0.4306 C   0  0  0  0  0  0  0  0  0  0  0  0
   -0.0636   -1.4887   -0.0557 O   0  0  0  0  0  0  0  0  0  0  0  0
    1.0939   -0.9865    0.3883 C   0  0  0  0  0  0  0  0  0  0  0  0
    1.9578   -1.7542    0.7691 O   0  0  0  0  0  0  0  0  0  0  0  0
    1.2807    0.4159    0.4726 C   0  0  0  0  0  0  0  0  0  0  0  0
    0.1941    1.2276    0.1238 C   0  0  0  0  0  0  0  0  0  0  0  0
   -0.9911    0.6682   -0.3371 C   0  0  0  0  0  0  0  0  0  0  0  0
   -2.0528    1.4927   -0.7179 C   0  0  0  0  0  0  0  0  0  0  0  0
    2.5297    1.1164    0.9402 C   0  0  0  0  0  0  0  0  0  0  0  0
    2.3730    2.2022    1.4840 O   0  0  0  0  0  0  0  0  0  0  0  0
    3.9527    0.6862    0.6858 C   0  0  0  0  0  0  0  0  0  0  0  0
    4.9909    1.4561    1.2558 C   0  0  0  0  0  0  0  0  0  0  0  0
    6.3311    1.1629    1.0068 C   0  0  0  0  0  0  0  0  0  0  0  0
    6.6829    0.0862    0.1822 C   0  0  0  0  0  0  0  0  0  0  0  0
    5.6600   -0.6891   -0.3939 C   0  0  0  0  0  0  0  0  0  0  0  0
    4.3117   -0.3868   -0.1572 C   0  0  0  0  0  0  0  0  0  0  0  0
    8.0579   -0.1996   -0.0804 N   0  3  0  0  0  0  0  0  0  0  0  0
    9.0043    0.5626    0.4264 O   0  5  0  0  0  0  0  0  0  0  0  0
    8.3623   -1.1185   -0.7802 O   0  0  0  0  0  0  0  0  0  0  0  0
   -5.9096   -0.2573   -0.3757 H   0  0  0  0  0  0  0  0  0  0  0  0
   -6.7218    0.3562   -1.8848 H   0  0  0  0  0  0  0  0  0  0  0  0
   -7.3867    0.7376   -0.2536 H   0  0  0  0  0  0  0  0  0  0  0  0
   -5.3614    2.1071    0.2759 H   0  0  0  0  0  0  0  0  0  0  0  0
   -6.2790    2.6923   -1.1547 H   0  0  0  0  0  0  0  0  0  0  0  0
   -4.6137    1.6658   -2.7127 H   0  0  0  0  0  0  0  0  0  0  0  0
   -3.9802    2.9182   -1.6141 H   0  0  0  0  0  0  0  0  0  0  0  0
   -4.2583   -0.8932   -1.7127 H   0  0  0  0  0  0  0  0  0  0  0  0
   -0.7020   -3.5509   -1.4377 H   0  0  0  0  0  0  0  0  0  0  0  0
   -2.0833   -4.6279   -1.0357 H   0  0  0  0  0  0  0  0  0  0  0  0
   -1.3345   -3.6558    0.2773 H   0  0  0  0  0  0  0  0  0  0  0  0
    0.2809    2.3066    0.1852 H   0  0  0  0  0  0  0  0  0  0  0  0
   -1.9464    2.5692   -0.6435 H   0  0  0  0  0  0  0  0  0  0  0  0
    4.7648    2.3056    1.8880 H   0  0  0  0  0  0  0  0  0  0  0  0
    7.0941    1.7873    1.4540 H   0  0  0  0  0  0  0  0  0  0  0  0
    5.9052   -1.5180   -1.0457 H   0  0  0  0  0  0  0  0  0  0  0  0
    3.5733   -0.9797   -0.6653 H   0  0  0  0  0  0  0  0  0  0  0  0
  1 28  1  0  0  0  0
  1 29  1  0  0  0  0
  1 30  1  0  0  0  0
  2  1  1  0  0  0  0
  2 31  1  0  0  0  0
  2 32  1  0  0  0  0
  3  2  1  0  0  0  0
  3 33  1  0  0  0  0
  3 34  1  0  0  0  0
  4  3  1  0  0  0  0
  5  4  2  0  0  0  0
  5 35  1  0  0  0  0
  6  5  1  0  0  0  0
  7  6  1  0  0  0  0
  8  7  1  0  0  0  0
  8 36  1  0  0  0  0
  8 37  1  0  0  0  0
  8 38  1  0  0  0  0
  9  6  2  0  0  0  0
 10  9  1  0  0  0  0
 11 10  1  0  0  0  0
 12 11  2  0  0  0  0
 13 11  1  0  0  0  0
 14 13  2  0  0  0  0
 14 39  1  0  0  0  0
 15 14  1  0  0  0  0
 15  9  1  0  0  0  0
 16 15  2  0  0  0  0
 16  4  1  0  0  0  0
 16 40  1  0  0  0  0
 17 13  1  0  0  0  0
 18 17  2  0  0  0  0
 19 17  1  0  0  0  0
 20 19  2  0  0  0  0
 20 41  1  0  0  0  0
 21 20  1  0  0  0  0
 21 42  1  0  0  0  0
 22 21  2  0  0  0  0
 23 22  1  0  0  0  0
 23 43  1  0  0  0  0
 24 23  2  0  0  0  0
 24 19  1  0  0  0  0
 24 44  1  0  0  0  0
 25 22  1  0  0  0  0
 26 25  1  0  0  0  0
 27 25  2  0  0  0  0
M  CHG  2  25   1  26  -1
M  END
>  <MOL Chiral Flag>
0

>  <energy>
129.5374365219821

$$$$
> 82_AKC_j.ejmech.2022.114675
>81.sdf
 OpenBabel10052218233D

 81 82  0  0  0  0  0  0  0  0999 V2000
   -5.3521    1.9344   -0.2924 C   0  0  0  0  0  0  0  0  0  0  0  0
   -5.8780    0.5800   -0.7780 C   0  0  0  0  0  0  0  0  0  0  0  0
   -4.8122   -0.2670   -1.5071 C   0  0  0  0  0  0  0  0  0  0  0  0
   -3.5727   -0.6082   -0.6610 C   0  0  0  0  0  0  0  0  0  0  0  0
   -3.8895   -1.5230    0.5426 C   0  0  0  0  0  0  0  0  0  0  0  0
   -2.6759   -1.7478    1.4665 C   0  0  0  0  0  0  0  0  0  0  0  0
   -2.3209   -0.4619    2.2298 C   0  0  0  0  0  0  0  0  0  0  0  0
   -1.1283   -0.6236    3.1833 C   0  0  0  0  0  0  0  0  0  0  0  0
   -0.8364    0.6704    3.9811 C   0  0  0  0  0  0  0  0  0  0  0  0
   -0.5024    1.8571    3.0640 C   0  0  0  0  0  0  0  0  0  0  0  0
   -0.1335    3.1375    3.8049 C   0  0  0  0  0  0  0  0  0  0  0  0
    0.0051    4.3641    2.8700 C   0  0  0  0  0  0  0  0  0  0  0  0
    1.0858    4.2844    1.7723 C   0  0  0  0  0  0  0  0  0  0  0  0
    0.7152    3.4351    0.7360 O   0  0  0  0  0  0  0  0  0  0  0  0
    1.4069    2.3396    0.3102 C   0  0  0  0  0  0  0  0  0  0  0  0
    2.8296    2.2663    0.2423 C   0  0  0  0  0  0  0  0  0  0  0  0
    3.6552    3.3283    0.4340 O   0  0  0  0  0  0  0  0  0  0  0  0
    3.4565    4.5959   -0.0825 C   0  0  0  0  0  0  0  0  0  0  0  0
    3.4324    1.0328   -0.0436 C   0  0  0  0  0  0  0  0  0  0  0  0
    2.6677   -0.1189   -0.3018 C   0  0  0  0  0  0  0  0  0  0  0  0
    3.3794   -1.4549   -0.5226 C   0  0  0  0  0  0  0  0  0  0  0  0
    3.3242   -2.0542   -1.9004 N   0  3  0  0  0  0  0  0  0  0  0  0
    3.8391   -1.0585   -2.8755 C   0  0  0  0  0  0  0  0  0  0  0  0
    4.2674   -3.2089   -1.9016 C   0  0  0  0  0  0  0  0  0  0  0  0
    1.9260   -2.4640   -2.2943 C   0  0  0  0  0  0  0  0  0  0  0  0
    1.2210   -3.4712   -1.3576 C   0  0  0  0  0  0  0  0  0  0  0  0
   -0.0737   -3.7189   -2.1171 C   0  0  0  0  0  0  0  0  0  0  0  0
    0.3337   -3.7541   -3.5980 C   0  0  0  0  0  0  0  0  0  0  0  0
    1.7721   -3.2161   -3.6297 C   0  0  0  0  0  0  0  0  0  0  0  0
    1.2694   -0.0139   -0.2913 C   0  0  0  0  0  0  0  0  0  0  0  0
    0.6545    1.2019   -0.0057 C   0  0  0  0  0  0  0  0  0  0  0  0
   -6.1815    2.5120    0.1669 H   0  0  0  0  0  0  0  0  0  0  0  0
   -4.9415    2.5188   -1.1431 H   0  0  0  0  0  0  0  0  0  0  0  0
   -4.5668    1.8093    0.4814 H   0  0  0  0  0  0  0  0  0  0  0  0
   -6.3027    0.0247    0.0829 H   0  0  0  0  0  0  0  0  0  0  0  0
   -6.7088    0.7708   -1.4909 H   0  0  0  0  0  0  0  0  0  0  0  0
   -4.4733    0.3045   -2.3990 H   0  0  0  0  0  0  0  0  0  0  0  0
   -5.2807   -1.2084   -1.8666 H   0  0  0  0  0  0  0  0  0  0  0  0
   -3.1098    0.3455   -0.3559 H   0  0  0  0  0  0  0  0  0  0  0  0
   -2.8312   -1.1315   -1.3035 H   0  0  0  0  0  0  0  0  0  0  0  0
   -4.7083   -1.1059    1.1635 H   0  0  0  0  0  0  0  0  0  0  0  0
   -4.2300   -2.5026    0.1419 H   0  0  0  0  0  0  0  0  0  0  0  0
   -2.9450   -2.5256    2.2138 H   0  0  0  0  0  0  0  0  0  0  0  0
   -1.8093   -2.1157    0.8738 H   0  0  0  0  0  0  0  0  0  0  0  0
   -2.0693    0.3140    1.4932 H   0  0  0  0  0  0  0  0  0  0  0  0
   -3.2074   -0.1352    2.8163 H   0  0  0  0  0  0  0  0  0  0  0  0
   -0.2273   -0.9134    2.5982 H   0  0  0  0  0  0  0  0  0  0  0  0
   -1.3488   -1.4368    3.9083 H   0  0  0  0  0  0  0  0  0  0  0  0
   -1.7170    0.9253    4.6097 H   0  0  0  0  0  0  0  0  0  0  0  0
    0.0279    0.4749    4.6526 H   0  0  0  0  0  0  0  0  0  0  0  0
   -1.3745    2.0950    2.4232 H   0  0  0  0  0  0  0  0  0  0  0  0
    0.3671    1.5540    2.4694 H   0  0  0  0  0  0  0  0  0  0  0  0
    0.8079    2.9759    4.3739 H   0  0  0  0  0  0  0  0  0  0  0  0
   -0.9424    3.3734    4.5306 H   0  0  0  0  0  0  0  0  0  0  0  0
    0.2642    5.2209    3.5294 H   0  0  0  0  0  0  0  0  0  0  0  0
   -0.9731    4.5946    2.3935 H   0  0  0  0  0  0  0  0  0  0  0  0
    1.1790    5.3035    1.3422 H   0  0  0  0  0  0  0  0  0  0  0  0
    2.0465    3.9945    2.2482 H   0  0  0  0  0  0  0  0  0  0  0  0
    2.5302    4.6636   -0.6931 H   0  0  0  0  0  0  0  0  0  0  0  0
    4.3117    4.8494   -0.7415 H   0  0  0  0  0  0  0  0  0  0  0  0
    3.4358    5.3398    0.7392 H   0  0  0  0  0  0  0  0  0  0  0  0
    4.5143    0.9770   -0.0625 H   0  0  0  0  0  0  0  0  0  0  0  0
    3.0201   -2.1748    0.2436 H   0  0  0  0  0  0  0  0  0  0  0  0
    4.4500   -1.2878   -0.2591 H   0  0  0  0  0  0  0  0  0  0  0  0
    4.8525   -0.6979   -2.5877 H   0  0  0  0  0  0  0  0  0  0  0  0
    3.1705   -0.1723   -2.9422 H   0  0  0  0  0  0  0  0  0  0  0  0
    3.9237   -1.4920   -3.8953 H   0  0  0  0  0  0  0  0  0  0  0  0
    3.9601   -3.9955   -1.1815 H   0  0  0  0  0  0  0  0  0  0  0  0
    4.3882   -3.6590   -2.9077 H   0  0  0  0  0  0  0  0  0  0  0  0
    5.2935   -2.8929   -1.6053 H   0  0  0  0  0  0  0  0  0  0  0  0
    1.2994   -1.5515   -2.3949 H   0  0  0  0  0  0  0  0  0  0  0  0
    1.0275   -3.1217   -0.3233 H   0  0  0  0  0  0  0  0  0  0  0  0
    1.7878   -4.4258   -1.3045 H   0  0  0  0  0  0  0  0  0  0  0  0
   -0.6826   -2.7967   -1.9674 H   0  0  0  0  0  0  0  0  0  0  0  0
   -0.6903   -4.5767   -1.7753 H   0  0  0  0  0  0  0  0  0  0  0  0
   -0.3733   -3.1070   -4.1619 H   0  0  0  0  0  0  0  0  0  0  0  0
    0.3218   -4.7762   -4.0362 H   0  0  0  0  0  0  0  0  0  0  0  0
    2.0175   -2.6594   -4.5577 H   0  0  0  0  0  0  0  0  0  0  0  0
    2.4191   -4.1175   -3.5974 H   0  0  0  0  0  0  0  0  0  0  0  0
    0.6392   -0.8708   -0.4547 H   0  0  0  0  0  0  0  0  0  0  0  0
   -0.4260    1.2468    0.0358 H   0  0  0  0  0  0  0  0  0  0  0  0
  1 32  1  0  0  0  0
  1 33  1  0  0  0  0
  1 34  1  0  0  0  0
  2  1  1  0  0  0  0
  2 35  1  0  0  0  0
  2 36  1  0  0  0  0
  3  2  1  0  0  0  0
  3 37  1  0  0  0  0
  3 38  1  0  0  0  0
  4  3  1  0  0  0  0
  4 39  1  0  0  0  0
  4 40  1  0  0  0  0
  5  4  1  0  0  0  0
  5 41  1  0  0  0  0
  5 42  1  0  0  0  0
  6  5  1  0  0  0  0
  6 43  1  0  0  0  0
  6 44  1  0  0  0  0
  7  6  1  0  0  0  0
  7 45  1  0  0  0  0
  7 46  1  0  0  0  0
  8  7  1  0  0  0  0
  8 47  1  0  0  0  0
  8 48  1  0  0  0  0
  9  8  1  0  0  0  0
  9 49  1  0  0  0  0
  9 50  1  0  0  0  0
 10  9  1  0  0  0  0
 10 51  1  0  0  0  0
 10 52  1  0  0  0  0
 11 10  1  0  0  0  0
 11 53  1  0  0  0  0
 11 54  1  0  0  0  0
 12 11  1  0  0  0  0
 12 55  1  0  0  0  0
 12 56  1  0  0  0  0
 13 12  1  0  0  0  0
 13 57  1  0  0  0  0
 13 58  1  0  0  0  0
 14 13  1  0  0  0  0
 15 14  1  0  0  0  0
 16 15  2  0  0  0  0
 17 16  1  0  0  0  0
 18 17  1  0  0  0  0
 18 59  1  0  0  0  0
 18 60  1  0  0  0  0
 18 61  1  0  0  0  0
 19 16  1  0  0  0  0
 19 62  1  0  0  0  0
 20 19  2  0  0  0  0
 21 20  1  0  0  0  0
 21 63  1  0  0  0  0
 21 64  1  0  0  0  0
 22 21  1  0  0  0  0
 23 22  1  0  0  0  0
 23 65  1  0  0  0  0
 23 66  1  0  0  0  0
 23 67  1  0  0  0  0
 24 22  1  0  0  0  0
 24 68  1  0  0  0  0
 24 69  1  0  0  0  0
 24 70  1  0  0  0  0
 25 22  1  0  0  0  0
 25 71  1  0  0  0  0
 26 25  1  0  0  0  0
 26 72  1  0  0  0  0
 26 73  1  0  0  0  0
 27 26  1  0  0  0  0
 27 74  1  0  0  0  0
 27 75  1  0  0  0  0
 28 27  1  0  0  0  0
 28 76  1  0  0  0  0
 28 77  1  0  0  0  0
 29 28  1  0  0  0  0
 29 25  1  0  0  0  0
 29 78  1  0  0  0  0
 29 79  1  0  0  0  0
 30 20  1  0  0  0  0
 30 80  1  0  0  0  0
 31 30  2  0  0  0  0
 31 15  1  0  0  0  0
 31 81  1  0  0  0  0
M  CHG  1  22   1
M  END
>  <MOL Chiral Flag>
0

>  <energy>
75.519399073739791

$$$$
> 83_AKC_molecules27175401
>82.sdf
 OpenBabel10052218243D

 54 59  0  0  0  0  0  0  0  0999 V2000
   -4.1629    0.6230    2.8107 N   0  0  0  0  0  0  0  0  0  0  0  0
   -4.5620   -0.6689    2.3590 C   0  0  0  0  0  0  0  0  0  0  0  0
   -5.7668   -1.2486    2.6607 C   0  0  0  0  0  0  0  0  0  0  0  0
   -5.7391   -2.4726    2.0203 C   0  0  0  0  0  0  0  0  0  0  0  0
   -4.5656   -2.6107    1.3648 N   0  0  0  0  0  0  0  0  0  0  0  0
   -3.8480   -1.5149    1.5700 N   0  0  0  0  0  0  0  0  0  0  0  0
   -2.5997   -1.3118    1.0339 C   0  0  0  0  0  0  0  0  0  0  0  0
   -2.0115   -0.2651    1.2657 O   0  0  0  0  0  0  0  0  0  0  0  0
   -1.8960   -2.3132    0.1203 C   0  0  1  0  0  0  0  0  0  0  0  0
   -1.7698   -1.5926   -1.2600 C   0  0  0  0  0  0  0  0  0  0  0  0
   -0.5897   -2.0635   -2.1144 C   0  0  0  0  0  0  0  0  0  0  0  0
    0.6843   -1.9712   -1.2542 C   0  0  1  0  0  0  0  0  0  0  0  0
    0.5880   -3.0667   -0.1768 C   0  0  0  0  0  0  0  0  0  0  0  0
   -0.5317   -2.6664    0.8046 C   0  0  0  0  0  0  0  0  0  0  0  0
    1.8416   -2.0885   -2.0314 O   0  0  0  0  0  0  0  0  0  0  0  0
    2.2341   -0.8378   -2.2802 O   0  0  0  0  0  0  0  0  0  0  0  0
    1.7410   -0.0406   -1.2261 C   0  0  1  0  0  0  0  0  0  0  0  0
    0.7377   -0.7449   -0.6055 O   0  0  0  0  0  0  0  0  0  0  0  0
    2.8425    0.2796   -0.1812 C   0  0  1  0  0  0  0  0  0  0  0  0
    3.9395    1.1551   -0.8265 C   0  0  0  0  0  0  0  0  0  0  0  0
    3.3191    2.4795   -1.3292 C   0  0  2  0  0  0  0  0  0  0  0  0
    2.6897    3.2410   -0.1390 C   0  0  0  0  0  0  0  0  0  0  0  0
    1.5887    2.3733    0.5024 C   0  0  2  0  0  0  0  0  0  0  0  0
    2.2136    1.0532    1.0094 C   0  0  0  0  0  0  0  0  0  0  0  0
    0.5016    2.0715   -0.5544 C   0  0  0  0  0  0  0  0  0  0  0  0
    1.1304    1.2942   -1.7447 C   0  0  1  0  0  0  0  0  0  0  0  0
    2.2300    2.1701   -2.3821 C   0  0  0  0  0  0  0  0  0  0  0  0
   -3.2597    1.0485    2.5762 H   0  0  0  0  0  0  0  0  0  0  0  0
   -4.8022    1.1740    3.4000 H   0  0  0  0  0  0  0  0  0  0  0  0
   -6.5605   -0.8307    3.2651 H   0  0  0  0  0  0  0  0  0  0  0  0
   -6.5263   -3.2125    2.0299 H   0  0  0  0  0  0  0  0  0  0  0  0
   -2.4322   -3.2704   -0.0639 H   0  0  0  0  0  0  0  0  0  0  0  0
   -2.7290   -1.6587   -1.8185 H   0  0  0  0  0  0  0  0  0  0  0  0
   -1.5852   -0.5067   -1.1158 H   0  0  0  0  0  0  0  0  0  0  0  0
   -0.5147   -1.3928   -2.9980 H   0  0  0  0  0  0  0  0  0  0  0  0
   -0.7321   -3.1025   -2.4881 H   0  0  0  0  0  0  0  0  0  0  0  0
    0.3981   -4.0588   -0.6425 H   0  0  0  0  0  0  0  0  0  0  0  0
    1.5408   -3.1331    0.3938 H   0  0  0  0  0  0  0  0  0  0  0  0
   -0.6780   -3.4306    1.5983 H   0  0  0  0  0  0  0  0  0  0  0  0
   -0.1295   -1.7754    1.3329 H   0  0  0  0  0  0  0  0  0  0  0  0
    3.2865   -0.6677    0.1956 H   0  0  0  0  0  0  0  0  0  0  0  0
    4.4106    0.6114   -1.6735 H   0  0  0  0  0  0  0  0  0  0  0  0
    4.7339    1.3714   -0.0792 H   0  0  0  0  0  0  0  0  0  0  0  0
    4.1100    3.1098   -1.7890 H   0  0  0  0  0  0  0  0  0  0  0  0
    3.4693    3.4793    0.6177 H   0  0  0  0  0  0  0  0  0  0  0  0
    2.2543    4.2034   -0.4875 H   0  0  0  0  0  0  0  0  0  0  0  0
    1.1342    2.9209    1.3574 H   0  0  0  0  0  0  0  0  0  0  0  0
    1.4328    0.4347    1.5052 H   0  0  0  0  0  0  0  0  0  0  0  0
    2.9905    1.2710    1.7744 H   0  0  0  0  0  0  0  0  0  0  0  0
   -0.3166    1.4791   -0.0905 H   0  0  0  0  0  0  0  0  0  0  0  0
    0.0484    3.0218   -0.9134 H   0  0  0  0  0  0  0  0  0  0  0  0
    0.3373    1.0815   -2.4951 H   0  0  0  0  0  0  0  0  0  0  0  0
    1.7851    3.1197   -2.7544 H   0  0  0  0  0  0  0  0  0  0  0  0
    2.6779    1.6439   -3.2519 H   0  0  0  0  0  0  0  0  0  0  0  0
  1 28  1  0  0  0  0
  1 29  1  0  0  0  0
  2  1  1  0  0  0  0
  3  2  2  0  0  0  0
  3 30  1  0  0  0  0
  4  3  1  0  0  0  0
  4 31  1  0  0  0  0
  5  4  2  0  0  0  0
  6  5  1  0  0  0  0
  6  2  1  0  0  0  0
  7  6  1  0  0  0  0
  8  7  2  0  0  0  0
  9  7  1  0  0  0  0
  9 32  1  6  0  0  0
 10  9  1  0  0  0  0
 10 33  1  0  0  0  0
 10 34  1  0  0  0  0
 11 10  1  0  0  0  0
 11 35  1  0  0  0  0
 11 36  1  0  0  0  0
 12 11  1  6  0  0  0
 13 12  1  0  0  0  0
 13 37  1  0  0  0  0
 13 38  1  0  0  0  0
 14 13  1  0  0  0  0
 14  9  1  0  0  0  0
 14 39  1  0  0  0  0
 14 40  1  0  0  0  0
 15 12  1  0  0  0  0
 16 15  1  0  0  0  0
 17 16  1  6  0  0  0
 18 17  1  0  0  0  0
 18 12  1  0  0  0  0
 19 17  1  0  0  0  0
 19 41  1  1  0  0  0
 20 19  1  0  0  0  0
 20 42  1  0  0  0  0
 20 43  1  0  0  0  0
 21 20  1  0  0  0  0
 21 44  1  6  0  0  0
 22 21  1  0  0  0  0
 22 45  1  0  0  0  0
 22 46  1  0  0  0  0
 23 22  1  0  0  0  0
 23 47  1  1  0  0  0
 24 23  1  0  0  0  0
 24 19  1  0  0  0  0
 24 48  1  0  0  0  0
 24 49  1  0  0  0  0
 25 23  1  0  0  0  0
 25 50  1  0  0  0  0
 25 51  1  0  0  0  0
 26 25  1  0  0  0  0
 26 17  1  0  0  0  0
 26 52  1  6  0  0  0
 27 26  1  0  0  0  0
 27 21  1  0  0  0  0
 27 53  1  0  0  0  0
 27 54  1  0  0  0  0
M  END
>  <MOL Chiral Flag>
0

>  <energy>
148.93839430538765

$$$$
> 84_acsinfecdis.2c00325
>83.sdf
 OpenBabel10052218243D

 40 42  0  0  0  0  0  0  0  0999 V2000
    0.2740    1.9455   -3.7854 O   0  0  0  0  0  0  0  0  0  0  0  0
    0.2644    2.0664   -2.5698 C   0  0  0  0  0  0  0  0  0  0  0  0
   -0.8040    2.6685   -1.9690 N   0  0  0  0  0  0  0  0  0  0  0  0
   -1.0804    2.5149   -0.5832 C   0  0  0  0  0  0  0  0  0  0  0  0
   -1.0445    3.6111    0.2865 C   0  0  0  0  0  0  0  0  0  0  0  0
   -1.3213    3.4315    1.6473 C   0  0  0  0  0  0  0  0  0  0  0  0
   -1.6666    2.1667    2.1380 C   0  0  0  0  0  0  0  0  0  0  0  0
   -1.7263    1.0654    1.2709 C   0  0  0  0  0  0  0  0  0  0  0  0
   -2.0629   -0.3109    1.7930 C   0  0  0  0  0  0  0  0  0  0  0  0
   -0.8967   -1.1441    1.5824 N   0  0  0  0  0  0  0  0  0  0  0  0
   -0.8952   -2.3469    0.8201 C   0  0  0  0  0  0  0  0  0  0  0  0
    0.2906   -2.7272    0.1750 C   0  0  0  0  0  0  0  0  0  0  0  0
    0.3436   -3.8981   -0.5812 C   0  0  0  0  0  0  0  0  0  0  0  0
   -0.7817   -4.7178   -0.6801 C   0  0  0  0  0  0  0  0  0  0  0  0
   -1.9670   -4.3602   -0.0304 C   0  0  0  0  0  0  0  0  0  0  0  0
   -2.0335   -3.1729    0.7108 C   0  0  0  0  0  0  0  0  0  0  0  0
   -1.4226    1.2451   -0.0879 C   0  0  0  0  0  0  0  0  0  0  0  0
    1.4435    1.5920   -1.8001 C   0  0  0  0  0  0  0  0  0  0  0  0
    1.9473    2.1400   -0.6059 C   0  0  0  0  0  0  0  0  0  0  0  0
    3.1391    1.5150   -0.1515 C   0  0  0  0  0  0  0  0  0  0  0  0
    3.5605    0.4771   -0.9853 C   0  0  0  0  0  0  0  0  0  0  0  0
    2.4929    0.3867   -2.2560 S   0  0  0  0  0  0  0  0  0  0  0  0
    4.6966   -0.3474   -0.7855 N   0  0  0  0  0  0  0  0  0  0  0  0
    4.9302   -1.2397   -1.5407 O   0  0  0  0  0  0  0  0  0  0  0  0
    5.4022   -0.1761    0.1638 O   0  0  0  0  0  0  0  0  0  0  0  0
   -1.5491    3.0698   -2.5583 H   0  0  0  0  0  0  0  0  0  0  0  0
   -0.7733    4.5909   -0.0839 H   0  0  0  0  0  0  0  0  0  0  0  0
   -1.2635    4.2723    2.3255 H   0  0  0  0  0  0  0  0  0  0  0  0
   -1.8753    2.0431    3.1934 H   0  0  0  0  0  0  0  0  0  0  0  0
   -2.2875   -0.2719    2.8801 H   0  0  0  0  0  0  0  0  0  0  0  0
   -2.9637   -0.6957    1.2679 H   0  0  0  0  0  0  0  0  0  0  0  0
    0.0106   -0.7669    1.8967 H   0  0  0  0  0  0  0  0  0  0  0  0
    1.1691   -2.0976    0.2450 H   0  0  0  0  0  0  0  0  0  0  0  0
    1.2604   -4.1694   -1.0877 H   0  0  0  0  0  0  0  0  0  0  0  0
   -0.7330   -5.6316   -1.2579 H   0  0  0  0  0  0  0  0  0  0  0  0
   -2.8331   -5.0062   -0.0993 H   0  0  0  0  0  0  0  0  0  0  0  0
   -2.9571   -2.9251    1.2162 H   0  0  0  0  0  0  0  0  0  0  0  0
   -1.4624    0.3994   -0.7654 H   0  0  0  0  0  0  0  0  0  0  0  0
    1.5112    2.9820   -0.0914 H   0  0  0  0  0  0  0  0  0  0  0  0
    3.6648    1.8221    0.7436 H   0  0  0  0  0  0  0  0  0  0  0  0
  2  1  2  0  0  0  0
  3  2  1  0  0  0  0
  3 26  1  0  0  0  0
  4  3  1  0  0  0  0
  5  4  2  0  0  0  0
  5 27  1  0  0  0  0
  6  5  1  0  0  0  0
  6 28  1  0  0  0  0
  7  6  2  0  0  0  0
  7 29  1  0  0  0  0
  8  7  1  0  0  0  0
  9  8  1  0  0  0  0
  9 30  1  0  0  0  0
  9 31  1  0  0  0  0
 10  9  1  0  0  0  0
 10 32  1  0  0  0  0
 11 10  1  0  0  0  0
 12 11  2  0  0  0  0
 12 33  1  0  0  0  0
 13 12  1  0  0  0  0
 13 34  1  0  0  0  0
 14 13  2  0  0  0  0
 14 35  1  0  0  0  0
 15 14  1  0  0  0  0
 15 36  1  0  0  0  0
 16 15  2  0  0  0  0
 16 11  1  0  0  0  0
 16 37  1  0  0  0  0
 17  8  2  0  0  0  0
 17  4  1  0  0  0  0
 17 38  1  0  0  0  0
 18  2  1  0  0  0  0
 19 18  2  0  0  0  0
 19 39  1  0  0  0  0
 20 19  1  0  0  0  0
 20 40  1  0  0  0  0
 21 20  2  0  0  0  0
 22 21  1  0  0  0  0
 22 18  1  0  0  0  0
 23 21  1  0  0  0  0
 24 23  2  0  0  0  0
 25 23  2  0  0  0  0
M  END
>  <MOL Chiral Flag>
0

>  <energy>
70.115522389745351

$$$$
> 85_AKC_ph15080998
>84.sdf
 OpenBabel10052218243D

 38 40  0  0  0  0  0  0  0  0999 V2000
   -4.9264    1.3704   -0.6221 F   0  0  0  0  0  0  0  0  0  0  0  0
   -4.6424    1.9288    0.6124 C   0  0  0  0  0  0  0  0  0  0  0  0
   -5.7285    1.7627    1.4517 F   0  0  0  0  0  0  0  0  0  0  0  0
   -4.4033    3.2802    0.4440 F   0  0  0  0  0  0  0  0  0  0  0  0
   -3.4004    1.2699    1.2074 C   0  0  0  0  0  0  0  0  0  0  0  0
   -3.6016   -0.2267    1.4484 C   0  0  0  0  0  0  0  0  0  0  0  0
   -2.0131   -0.9721    1.9002 S   0  0  0  0  0  0  0  0  0  0  0  0
   -2.2489   -2.3554    2.5271 O   0  0  0  0  0  0  0  0  0  0  0  0
   -1.4237   -0.2337    3.1120 O   0  0  0  0  0  0  0  0  0  0  0  0
   -0.7449   -1.1108    0.6442 C   0  0  0  0  0  0  0  0  0  0  0  0
   -0.7104   -2.0070   -0.4172 C   0  0  0  0  0  0  0  0  0  0  0  0
    0.4058   -1.7508   -1.1329 N   0  0  0  0  0  0  0  0  0  0  0  0
    0.9122   -2.3350   -2.2537 C   0  0  0  0  0  0  0  0  0  0  0  0
    2.1285   -1.8711   -2.7641 C   0  0  0  0  0  0  0  0  0  0  0  0
    2.8072   -2.5911   -4.2116 Cl  0  0  0  0  0  0  0  0  0  0  0  0
    2.8030   -0.8270   -2.1123 C   0  0  0  0  0  0  0  0  0  0  0  0
    2.2465   -0.2171   -0.9695 C   0  0  0  0  0  0  0  0  0  0  0  0
    1.0163   -0.7193   -0.5099 C   0  0  0  0  0  0  0  0  0  0  0  0
    0.3380   -0.3014    0.5829 N   0  0  0  0  0  0  0  0  0  0  0  0
    2.9698    0.8925   -0.2966 C   0  0  0  0  0  0  0  0  0  0  0  0
    2.2999    2.0444    0.1482 C   0  0  0  0  0  0  0  0  0  0  0  0
    3.0301    3.0773    0.7472 C   0  0  0  0  0  0  0  0  0  0  0  0
    4.3722    2.9523    0.9274 N   0  0  0  0  0  0  0  0  0  0  0  0
    5.0423    1.8419    0.5219 C   0  0  0  0  0  0  0  0  0  0  0  0
    4.3590    0.8037   -0.1110 C   0  0  0  0  0  0  0  0  0  0  0  0
   -1.6716   -3.0284   -0.7063 N   0  0  0  0  0  0  0  0  0  0  0  0
   -2.6726   -3.1127   -0.0623 O   0  0  0  0  0  0  0  0  0  0  0  0
   -1.4758   -3.8190   -1.5755 O   0  0  0  0  0  0  0  0  0  0  0  0
   -3.1357    1.7590    2.1702 H   0  0  0  0  0  0  0  0  0  0  0  0
   -2.5600    1.4188    0.4937 H   0  0  0  0  0  0  0  0  0  0  0  0
   -4.3626   -0.4116    2.2359 H   0  0  0  0  0  0  0  0  0  0  0  0
   -3.9343   -0.7240    0.5130 H   0  0  0  0  0  0  0  0  0  0  0  0
    0.4058   -3.1440   -2.7541 H   0  0  0  0  0  0  0  0  0  0  0  0
    3.7434   -0.4732   -2.5155 H   0  0  0  0  0  0  0  0  0  0  0  0
    1.2341    2.1619   -0.0009 H   0  0  0  0  0  0  0  0  0  0  0  0
    2.5302    3.9829    1.0641 H   0  0  0  0  0  0  0  0  0  0  0  0
    6.1082    1.7625    0.6901 H   0  0  0  0  0  0  0  0  0  0  0  0
    4.9035   -0.0778   -0.4262 H   0  0  0  0  0  0  0  0  0  0  0  0
  2  1  1  0  0  0  0
  3  2  1  0  0  0  0
  4  2  1  0  0  0  0
  5  2  1  0  0  0  0
  5 29  1  0  0  0  0
  5 30  1  0  0  0  0
  6  5  1  0  0  0  0
  6 31  1  0  0  0  0
  6 32  1  0  0  0  0
  7  6  1  0  0  0  0
  8  7  2  0  0  0  0
  9  7  2  0  0  0  0
 10  7  1  0  0  0  0
 11 10  2  0  0  0  0
 12 11  1  0  0  0  0
 13 12  1  0  0  0  0
 13 33  1  0  0  0  0
 14 13  2  0  0  0  0
 15 14  1  0  0  0  0
 16 14  1  0  0  0  0
 16 34  1  0  0  0  0
 17 16  2  0  0  0  0
 18 17  1  0  0  0  0
 18 12  1  0  0  0  0
 19 18  2  0  0  0  0
 19 10  1  0  0  0  0
 20 17  1  0  0  0  0
 21 20  2  0  0  0  0
 21 35  1  0  0  0  0
 22 21  1  0  0  0  0
 22 36  1  0  0  0  0
 23 22  2  0  0  0  0
 24 23  1  0  0  0  0
 24 37  1  0  0  0  0
 25 24  2  0  0  0  0
 25 20  1  0  0  0  0
 25 38  1  0  0  0  0
 26 11  1  0  0  0  0
 27 26  2  0  0  0  0
 28 26  2  0  0  0  0
M  END
>  <MOL Chiral Flag>
0

>  <energy>
12.70352737500869

$$$$
> 86_AKC_ph15081005
>85.sdf
 OpenBabel10062217263D

 84 90  0  0  0  0  0  0  0  0999 V2000
   -3.4487    1.7571    1.2195 C   0  0  1  0  0  0  0  0  0  0  0  0
   -2.9186    3.0379    0.4825 C   0  0  0  0  0  0  0  0  0  0  0  0
   -1.4060    3.2358    0.3911 C   0  0  0  0  0  0  0  0  0  0  0  0
   -0.9140    4.5084    0.0460 C   0  0  0  0  0  0  0  0  0  0  0  0
    0.4645    4.7525    0.0065 C   0  0  0  0  0  0  0  0  0  0  0  0
    1.3705    3.7182    0.2679 C   0  0  0  0  0  0  0  0  0  0  0  0
    0.8906    2.4299    0.5647 C   0  0  0  0  0  0  0  0  0  0  0  0
    1.7123    1.3645    0.7455 O   0  0  0  0  0  0  0  0  0  0  0  0
    2.4676    0.7149   -0.2010 C   0  0  0  0  0  0  0  0  0  0  0  0
    3.1095   -0.5015    0.1745 C   0  0  0  0  0  0  0  0  0  0  0  0
    3.9689   -1.1362   -0.7456 C   0  0  0  0  0  0  0  0  0  0  0  0
    4.7653   -2.3423   -0.3521 C   0  0  0  0  0  0  0  0  0  0  0  0
    4.9760   -2.3600    1.1623 C   0  0  0  0  0  0  0  0  0  0  0  0
    3.6695   -2.3835    1.8230 N   0  3  1  0  0  0  0  0  0  0  0  0
    3.8164   -2.6564    3.2664 C   0  0  0  0  0  0  0  0  0  0  0  0
    2.8497   -1.1581    1.5584 C   0  0  2  0  0  0  0  0  0  0  0  0
    1.3178   -1.5060    1.7194 C   0  0  0  0  0  0  0  0  0  0  0  0
    0.6614   -2.3284    0.5896 C   0  0  0  0  0  0  0  0  0  0  0  0
    0.9568   -3.6805    0.3136 C   0  0  0  0  0  0  0  0  0  0  0  0
    0.3388   -4.3416   -0.7486 C   0  0  0  0  0  0  0  0  0  0  0  0
   -0.6314   -3.6972   -1.5271 C   0  0  0  0  0  0  0  0  0  0  0  0
   -1.2392   -4.3585   -2.5329 O   0  0  0  0  0  0  0  0  0  0  0  0
   -1.0026   -2.3794   -1.2257 C   0  0  0  0  0  0  0  0  0  0  0  0
   -2.0393   -1.7979   -1.9078 O   0  0  0  0  0  0  0  0  0  0  0  0
   -3.0521   -1.1804   -1.2371 C   0  0  0  0  0  0  0  0  0  0  0  0
   -4.2880   -1.8380   -1.0954 C   0  0  0  0  0  0  0  0  0  0  0  0
   -4.5250   -3.0232   -1.6985 O   0  0  0  0  0  0  0  0  0  0  0  0
   -5.2797   -1.2823   -0.2866 C   0  0  0  0  0  0  0  0  0  0  0  0
   -5.0433   -0.0928    0.4184 C   0  0  0  0  0  0  0  0  0  0  0  0
   -6.0719    0.4120    1.3775 C   0  0  0  0  0  0  0  0  0  0  0  0
   -5.3575    0.9665    2.5998 C   0  0  0  0  0  0  0  0  0  0  0  0
   -4.5296    2.1222    2.1937 N   0  3  1  0  0  0  0  0  0  0  0  0
   -3.9435    2.7191    3.4199 C   0  0  0  0  0  0  0  0  0  0  0  0
   -3.8090    0.5791    0.2861 C   0  0  0  0  0  0  0  0  0  0  0  0
   -2.8507    0.0538   -0.5958 C   0  0  0  0  0  0  0  0  0  0  0  0
   -0.3278   -1.7104   -0.1807 C   0  0  0  0  0  0  0  0  0  0  0  0
    4.1058   -0.6468   -2.0416 C   0  0  0  0  0  0  0  0  0  0  0  0
    3.4221    0.4989   -2.4639 C   0  0  0  0  0  0  0  0  0  0  0  0
    3.5572    0.9580   -3.7383 O   0  0  0  0  0  0  0  0  0  0  0  0
    4.2921    0.3619   -4.7434 C   0  0  0  0  0  0  0  0  0  0  0  0
    2.5998    1.2007   -1.5441 C   0  0  0  0  0  0  0  0  0  0  0  0
    1.9118    2.3171   -1.9093 O   0  0  0  0  0  0  0  0  0  0  0  0
    1.6542    2.8164   -3.1699 C   0  0  0  0  0  0  0  0  0  0  0  0
   -0.4781    2.2164    0.6695 C   0  0  0  0  0  0  0  0  0  0  0  0
   -2.6392    1.3441    1.8507 H   0  0  0  0  0  0  0  0  0  0  0  0
   -3.2408    3.9145    1.0749 H   0  0  0  0  0  0  0  0  0  0  0  0
   -3.4221    3.1743   -0.4992 H   0  0  0  0  0  0  0  0  0  0  0  0
   -1.6022    5.3184   -0.1644 H   0  0  0  0  0  0  0  0  0  0  0  0
    0.8280    5.7429   -0.2386 H   0  0  0  0  0  0  0  0  0  0  0  0
    2.4352    3.9094    0.2115 H   0  0  0  0  0  0  0  0  0  0  0  0
    5.7730   -2.3060   -0.8188 H   0  0  0  0  0  0  0  0  0  0  0  0
    4.2439   -3.2552   -0.7168 H   0  0  0  0  0  0  0  0  0  0  0  0
    5.5635   -1.4734    1.4904 H   0  0  0  0  0  0  0  0  0  0  0  0
    5.5543   -3.2800    1.4088 H   0  0  0  0  0  0  0  0  0  0  0  0
    3.2156   -3.2149    1.4307 H   0  0  0  0  0  0  0  0  0  0  0  0
    4.3945   -1.8551    3.7723 H   0  0  0  0  0  0  0  0  0  0  0  0
    4.3284   -3.6315    3.4248 H   0  0  0  0  0  0  0  0  0  0  0  0
    2.8296   -2.7510    3.7644 H   0  0  0  0  0  0  0  0  0  0  0  0
    3.1297   -0.3906    2.3174 H   0  0  0  0  0  0  0  0  0  0  0  0
    0.7853   -0.5387    1.7978 H   0  0  0  0  0  0  0  0  0  0  0  0
    1.1067   -1.9922    2.6897 H   0  0  0  0  0  0  0  0  0  0  0  0
    1.6379   -4.2600    0.9012 H   0  0  0  0  0  0  0  0  0  0  0  0
    0.6002   -5.3730   -0.9494 H   0  0  0  0  0  0  0  0  0  0  0  0
   -1.0020   -5.2716   -2.7529 H   0  0  0  0  0  0  0  0  0  0  0  0
   -3.8710   -3.4621   -2.2594 H   0  0  0  0  0  0  0  0  0  0  0  0
   -6.2206   -1.8067   -0.1663 H   0  0  0  0  0  0  0  0  0  0  0  0
   -6.7802   -0.3938    1.6690 H   0  0  0  0  0  0  0  0  0  0  0  0
   -6.6523    1.2312    0.9015 H   0  0  0  0  0  0  0  0  0  0  0  0
   -4.7365    0.1719    3.0781 H   0  0  0  0  0  0  0  0  0  0  0  0
   -6.1313    1.2906    3.3311 H   0  0  0  0  0  0  0  0  0  0  0  0
   -5.1672    2.8303    1.7573 H   0  0  0  0  0  0  0  0  0  0  0  0
   -3.2928    1.9861    3.9506 H   0  0  0  0  0  0  0  0  0  0  0  0
   -4.7404    3.0457    4.1210 H   0  0  0  0  0  0  0  0  0  0  0  0
   -3.3226    3.6105    3.1989 H   0  0  0  0  0  0  0  0  0  0  0  0
   -1.9242    0.5650   -0.7379 H   0  0  0  0  0  0  0  0  0  0  0  0
   -0.5611   -0.7112    0.0593 H   0  0  0  0  0  0  0  0  0  0  0  0
    4.7577   -1.1753   -2.7242 H   0  0  0  0  0  0  0  0  0  0  0  0
    4.2168    0.9814   -5.6603 H   0  0  0  0  0  0  0  0  0  0  0  0
    3.8854   -0.6478   -4.9644 H   0  0  0  0  0  0  0  0  0  0  0  0
    5.3629    0.2944   -4.4557 H   0  0  0  0  0  0  0  0  0  0  0  0
    1.0428    3.7367   -3.0649 H   0  0  0  0  0  0  0  0  0  0  0  0
    1.0656    2.0753   -3.7509 H   0  0  0  0  0  0  0  0  0  0  0  0
    2.5844    3.1061   -3.6978 H   0  0  0  0  0  0  0  0  0  0  0  0
   -0.7872    1.2337    0.9450 H   0  0  0  0  0  0  0  0  0  0  0  0
  1 45  1  1  0  0  0
  2  1  1  0  0  0  0
  2 46  1  0  0  0  0
  2 47  1  0  0  0  0
  3  2  1  0  0  0  0
  4  3  2  0  0  0  0
  4 48  1  0  0  0  0
  5  4  1  0  0  0  0
  5 49  1  0  0  0  0
  6  5  2  0  0  0  0
  6 50  1  0  0  0  0
  7  6  1  0  0  0  0
  8  7  1  0  0  0  0
  9  8  1  0  0  0  0
 10  9  2  0  0  0  0
 11 10  1  0  0  0  0
 12 11  1  0  0  0  0
 12 51  1  0  0  0  0
 12 52  1  0  0  0  0
 13 12  1  0  0  0  0
 13 53  1  0  0  0  0
 13 54  1  0  0  0  0
 14 13  1  0  0  0  0
 14 55  1  6  0  0  0
 15 14  1  0  0  0  0
 15 56  1  0  0  0  0
 15 57  1  0  0  0  0
 15 58  1  0  0  0  0
 16 14  1  0  0  0  0
 16 10  1  0  0  0  0
 16 59  1  1  0  0  0
 17 16  1  0  0  0  0
 17 60  1  0  0  0  0
 17 61  1  0  0  0  0
 18 17  1  0  0  0  0
 19 18  2  0  0  0  0
 19 62  1  0  0  0  0
 20 19  1  0  0  0  0
 20 63  1  0  0  0  0
 21 20  2  0  0  0  0
 22 21  1  0  0  0  0
 22 64  1  0  0  0  0
 23 21  1  0  0  0  0
 24 23  1  0  0  0  0
 25 24  1  0  0  0  0
 26 25  2  0  0  0  0
 27 26  1  0  0  0  0
 27 65  1  0  0  0  0
 28 26  1  0  0  0  0
 28 66  1  0  0  0  0
 29 28  2  0  0  0  0
 30 29  1  0  0  0  0
 30 67  1  0  0  0  0
 30 68  1  0  0  0  0
 31 30  1  0  0  0  0
 31 69  1  0  0  0  0
 31 70  1  0  0  0  0
 32 31  1  0  0  0  0
 32  1  1  0  0  0  0
 32 71  1  6  0  0  0
 33 32  1  0  0  0  0
 33 72  1  0  0  0  0
 33 73  1  0  0  0  0
 33 74  1  0  0  0  0
 34 29  1  0  0  0  0
 34  1  1  0  0  0  0
 35 34  2  0  0  0  0
 35 25  1  0  0  0  0
 35 75  1  0  0  0  0
 36 23  2  0  0  0  0
 36 18  1  0  0  0  0
 36 76  1  0  0  0  0
 37 11  2  0  0  0  0
 37 77  1  0  0  0  0
 38 37  1  0  0  0  0
 39 38  1  0  0  0  0
 40 39  1  0  0  0  0
 40 78  1  0  0  0  0
 40 79  1  0  0  0  0
 40 80  1  0  0  0  0
 41 38  2  0  0  0  0
 41  9  1  0  0  0  0
 42 41  1  0  0  0  0
 43 42  1  0  0  0  0
 43 81  1  0  0  0  0
 43 82  1  0  0  0  0
 43 83  1  0  0  0  0
 44  7  2  0  0  0  0
 44  3  1  0  0  0  0
 44 84  1  0  0  0  0
M  CHG  2  14   1  32   1
M  END
>  <MOL Chiral Flag>
0

>  <energy>
239.01397057635859

$$$$
> 87_AKC_j.phymed.2022.154221
>86.sdf
 OpenBabel10052218253D

 28 29  0  0  0  0  0  0  0  0999 V2000
   -2.3532    1.2035    1.4341 C   0  0  0  0  0  0  0  0  0  0  0  0
   -1.8804    0.8958    0.0033 C   0  0  0  0  0  0  0  0  0  0  0  0
   -2.8547   -0.1069   -0.6457 C   0  0  0  0  0  0  0  0  0  0  0  0
   -0.3927    0.4220   -0.0363 C   0  0  2  0  0  0  0  0  0  0  0  0
   -0.1383   -0.9363    0.6854 C   0  0  0  0  0  0  0  0  0  0  0  0
    1.3717   -1.2756    0.5858 C   0  0  0  0  0  0  0  0  0  0  0  0
    2.0745   -0.1254   -0.1712 C   0  0  2  0  0  0  0  0  0  0  0  0
    3.5820   -0.3614   -0.2829 C   0  0  0  0  0  0  0  0  0  0  0  0
    1.7901    1.0788    0.5474 O   0  0  0  0  0  0  0  0  0  0  0  0
    0.4595    1.3898    0.5945 O   0  0  0  0  0  0  0  0  0  0  0  0
    1.4213    0.0098   -1.5272 C   0  0  0  0  0  0  0  0  0  0  0  0
    0.1229    0.2947   -1.4587 C   0  0  0  0  0  0  0  0  0  0  0  0
   -2.3602    0.2910    2.0652 H   0  0  0  0  0  0  0  0  0  0  0  0
   -3.3866    1.6114    1.4131 H   0  0  0  0  0  0  0  0  0  0  0  0
   -1.6986    1.9651    1.9068 H   0  0  0  0  0  0  0  0  0  0  0  0
   -1.9391    1.8476   -0.5707 H   0  0  0  0  0  0  0  0  0  0  0  0
   -2.5736   -0.3240   -1.6958 H   0  0  0  0  0  0  0  0  0  0  0  0
   -2.8870   -1.0613   -0.0800 H   0  0  0  0  0  0  0  0  0  0  0  0
   -3.8823    0.3152   -0.6548 H   0  0  0  0  0  0  0  0  0  0  0  0
   -0.4202   -0.8622    1.7563 H   0  0  0  0  0  0  0  0  0  0  0  0
   -0.7271   -1.7578    0.2254 H   0  0  0  0  0  0  0  0  0  0  0  0
    1.8013   -1.3805    1.6065 H   0  0  0  0  0  0  0  0  0  0  0  0
    1.5150   -2.2382    0.0463 H   0  0  0  0  0  0  0  0  0  0  0  0
    4.0672    0.4838   -0.8156 H   0  0  0  0  0  0  0  0  0  0  0  0
    3.7856   -1.3004   -0.8420 H   0  0  0  0  0  0  0  0  0  0  0  0
    4.0320   -0.4468    0.7291 H   0  0  0  0  0  0  0  0  0  0  0  0
    1.9504   -0.0852   -2.4708 H   0  0  0  0  0  0  0  0  0  0  0  0
   -0.4794    0.4537   -2.3472 H   0  0  0  0  0  0  0  0  0  0  0  0
  1 13  1  0  0  0  0
  1 14  1  0  0  0  0
  1 15  1  0  0  0  0
  2  1  1  0  0  0  0
  2 16  1  0  0  0  0
  3  2  1  0  0  0  0
  3 17  1  0  0  0  0
  3 18  1  0  0  0  0
  3 19  1  0  0  0  0
  4  2  1  1  0  0  0
  5  4  1  0  0  0  0
  5 20  1  0  0  0  0
  5 21  1  0  0  0  0
  6  5  1  0  0  0  0
  6 22  1  0  0  0  0
  6 23  1  0  0  0  0
  7  6  1  0  0  0  0
  7  8  1  6  0  0  0
  8 24  1  0  0  0  0
  8 25  1  0  0  0  0
  8 26  1  0  0  0  0
  9  7  1  0  0  0  0
 10  9  1  0  0  0  0
 10  4  1  0  0  0  0
 11  7  1  0  0  0  0
 11 27  1  0  0  0  0
 12 11  2  0  0  0  0
 12  4  1  0  0  0  0
 12 28  1  0  0  0  0
M  END
>  <MOL Chiral Flag>
0

>  <energy>
73.448011825367189

$$$$
> 88_AKC_slct.202201664
>87.sdf
 OpenBabel10052218253D

 37 39  0  0  0  0  0  0  0  0999 V2000
   -2.4619    0.9282   -1.7883 C   0  0  0  0  0  0  0  0  0  0  0  0
   -1.7459    0.8911   -0.6090 O   0  0  0  0  0  0  0  0  0  0  0  0
   -0.3925    0.9783   -0.5528 C   0  0  0  0  0  0  0  0  0  0  0  0
    0.2492    1.2512   -1.5587 O   0  0  0  0  0  0  0  0  0  0  0  0
    0.3173    0.7159    0.7204 C   0  0  0  0  0  0  0  0  0  0  0  0
    1.6800    0.8141    0.9626 C   0  0  0  0  0  0  0  0  0  0  0  0
    1.9162    0.4223    2.1908 O   0  0  0  0  0  0  0  0  0  0  0  0
    0.8140    0.0805    2.7929 N   0  0  0  0  0  0  0  0  0  0  0  0
   -0.1995    0.2388    1.9205 C   0  0  0  0  0  0  0  0  0  0  0  0
   -1.6113   -0.1470    2.2745 C   0  0  0  0  0  0  0  0  0  0  0  0
   -2.1523   -1.2519    1.3969 C   0  0  0  0  0  0  0  0  0  0  0  0
   -3.4658   -1.1749    0.9030 C   0  0  0  0  0  0  0  0  0  0  0  0
   -3.9788   -2.1973    0.0997 C   0  0  0  0  0  0  0  0  0  0  0  0
   -3.1818   -3.2974   -0.2304 C   0  0  0  0  0  0  0  0  0  0  0  0
   -3.8240   -4.5716   -1.2504 Cl  0  0  0  0  0  0  0  0  0  0  0  0
   -1.8733   -3.3824    0.2551 C   0  0  0  0  0  0  0  0  0  0  0  0
   -1.3625   -2.3722    1.0754 C   0  0  0  0  0  0  0  0  0  0  0  0
    2.7515    1.2201    0.0449 C   0  0  0  0  0  0  0  0  0  0  0  0
    3.6015    0.2451   -0.4929 C   0  0  0  0  0  0  0  0  0  0  0  0
    4.6511    0.6174   -1.3368 C   0  0  0  0  0  0  0  0  0  0  0  0
    4.8688    1.9667   -1.6291 C   0  0  0  0  0  0  0  0  0  0  0  0
    4.0283    2.9450   -1.0871 C   0  0  0  0  0  0  0  0  0  0  0  0
    2.9637    2.5739   -0.2565 C   0  0  0  0  0  0  0  0  0  0  0  0
   -3.5467    0.9186   -1.5565 H   0  0  0  0  0  0  0  0  0  0  0  0
   -2.2242    0.0333   -2.4033 H   0  0  0  0  0  0  0  0  0  0  0  0
   -2.2275    1.8509   -2.3611 H   0  0  0  0  0  0  0  0  0  0  0  0
   -2.2775    0.7422    2.2592 H   0  0  0  0  0  0  0  0  0  0  0  0
   -1.5918   -0.5317    3.3170 H   0  0  0  0  0  0  0  0  0  0  0  0
   -4.0959   -0.3301    1.1520 H   0  0  0  0  0  0  0  0  0  0  0  0
   -4.9955   -2.1334   -0.2663 H   0  0  0  0  0  0  0  0  0  0  0  0
   -1.2524   -4.2311   -0.0020 H   0  0  0  0  0  0  0  0  0  0  0  0
   -0.3473   -2.4529    1.4435 H   0  0  0  0  0  0  0  0  0  0  0  0
    3.4436   -0.8017   -0.2636 H   0  0  0  0  0  0  0  0  0  0  0  0
    5.2997   -0.1401   -1.7571 H   0  0  0  0  0  0  0  0  0  0  0  0
    5.6913    2.2537   -2.2715 H   0  0  0  0  0  0  0  0  0  0  0  0
    4.2067    3.9901   -1.3055 H   0  0  0  0  0  0  0  0  0  0  0  0
    2.3257    3.3381    0.1703 H   0  0  0  0  0  0  0  0  0  0  0  0
  1 24  1  0  0  0  0
  1 25  1  0  0  0  0
  1 26  1  0  0  0  0
  2  1  1  0  0  0  0
  3  2  1  0  0  0  0
  4  3  2  0  0  0  0
  5  3  1  0  0  0  0
  6  5  2  0  0  0  0
  7  6  1  0  0  0  0
  8  7  1  0  0  0  0
  9  8  2  0  0  0  0
  9  5  1  0  0  0  0
 10  9  1  0  0  0  0
 10 27  1  0  0  0  0
 10 28  1  0  0  0  0
 11 10  1  0  0  0  0
 12 11  2  0  0  0  0
 12 29  1  0  0  0  0
 13 12  1  0  0  0  0
 13 30  1  0  0  0  0
 14 13  2  0  0  0  0
 15 14  1  0  0  0  0
 16 14  1  0  0  0  0
 16 31  1  0  0  0  0
 17 16  2  0  0  0  0
 17 11  1  0  0  0  0
 17 32  1  0  0  0  0
 18  6  1  0  0  0  0
 19 18  2  0  0  0  0
 19 33  1  0  0  0  0
 20 19  1  0  0  0  0
 20 34  1  0  0  0  0
 21 20  2  0  0  0  0
 21 35  1  0  0  0  0
 22 21  1  0  0  0  0
 22 36  1  0  0  0  0
 23 22  2  0  0  0  0
 23 18  1  0  0  0  0
 23 37  1  0  0  0  0
M  END
>  <MOL Chiral Flag>
0

>  <energy>
43.677238250173275

$$$$
> 89_AKC_j.ejmech.2022.114367
>88.sdf
 OpenBabel10052218253D

 43 46  0  0  0  0  0  0  0  0999 V2000
    0.9404   -4.3200    2.0321 C   0  0  0  0  0  0  0  0  0  0  0  0
    1.7258   -3.1218    1.5968 C   0  0  0  0  0  0  0  0  0  0  0  0
    1.2422   -2.1062    0.7285 C   0  0  0  0  0  0  0  0  0  0  0  0
    2.1337   -1.1357    0.3226 C   0  0  0  0  0  0  0  0  0  0  0  0
    3.4189   -1.0901    0.7458 N   0  0  0  0  0  0  0  0  0  0  0  0
    3.8641   -2.0502    1.5964 C   0  0  0  0  0  0  0  0  0  0  0  0
    3.0323   -3.0549    1.9937 N   0  0  0  0  0  0  0  0  0  0  0  0
    1.5882   -0.2952   -0.5728 N   0  0  0  0  0  0  0  0  0  0  0  0
    0.3167   -0.7143   -0.7627 C   0  0  0  0  0  0  0  0  0  0  0  0
    0.0383   -1.8159    0.0471 C   0  0  0  0  0  0  0  0  0  0  0  0
   -1.3160   -2.4315    0.0454 C   0  0  0  0  0  0  0  0  0  0  0  0
   -2.0737   -2.3313   -1.0860 N   0  0  0  0  0  0  0  0  0  0  0  0
   -3.3347   -2.8351   -1.1633 C   0  0  0  0  0  0  0  0  0  0  0  0
   -3.9048   -3.4610   -0.0562 C   0  0  0  0  0  0  0  0  0  0  0  0
   -3.1724   -3.5498    1.1250 C   0  0  0  0  0  0  0  0  0  0  0  0
   -1.8785   -3.0290    1.1810 C   0  0  0  0  0  0  0  0  0  0  0  0
    2.3074    0.8221   -1.2175 C   0  0  2  0  0  0  0  0  0  0  0  0
    2.6419    1.7888   -0.2284 O   0  0  0  0  0  0  0  0  0  0  0  0
    1.8719    2.9485   -0.5097 C   0  0  2  0  0  0  0  0  0  0  0  0
    1.3261    3.5942    0.7682 C   0  0  0  0  0  0  0  0  0  0  0  0
    2.3799    3.9963    1.6009 O   0  0  0  0  0  0  0  0  0  0  0  0
    0.7474    2.5142   -1.4473 C   0  0  1  0  0  0  0  0  0  0  0  0
    0.1906    3.5691   -2.1863 O   0  0  0  0  0  0  0  0  0  0  0  0
    1.5076    1.5506   -2.3111 C   0  0  1  0  0  0  0  0  0  0  0  0
    2.3874    2.2718   -3.1420 O   0  0  0  0  0  0  0  0  0  0  0  0
    0.4692   -4.8203    1.1598 H   0  0  0  0  0  0  0  0  0  0  0  0
    1.6222   -5.0559    2.5101 H   0  0  0  0  0  0  0  0  0  0  0  0
    0.2284   -4.0700    2.8325 H   0  0  0  0  0  0  0  0  0  0  0  0
    4.8896   -2.0335    1.9387 H   0  0  0  0  0  0  0  0  0  0  0  0
   -0.3926   -0.2477   -1.4319 H   0  0  0  0  0  0  0  0  0  0  0  0
   -3.8961   -2.7433   -2.0833 H   0  0  0  0  0  0  0  0  0  0  0  0
   -4.9105   -3.8574   -0.1079 H   0  0  0  0  0  0  0  0  0  0  0  0
   -3.6117   -4.0068    2.0025 H   0  0  0  0  0  0  0  0  0  0  0  0
   -1.3603   -3.0495    2.1104 H   0  0  0  0  0  0  0  0  0  0  0  0
    3.2213    0.3971   -1.6879 H   0  0  0  0  0  0  0  0  0  0  0  0
    2.5393    3.6744   -1.0295 H   0  0  0  0  0  0  0  0  0  0  0  0
    0.6431    2.8950    1.3049 H   0  0  0  0  0  0  0  0  0  0  0  0
    0.7285    4.4941    0.5098 H   0  0  0  0  0  0  0  0  0  0  0  0
    2.5762    3.2345    2.2060 H   0  0  0  0  0  0  0  0  0  0  0  0
   -0.0396    1.9585   -0.8878 H   0  0  0  0  0  0  0  0  0  0  0  0
   -0.4402    4.0372   -1.5808 H   0  0  0  0  0  0  0  0  0  0  0  0
    0.8691    0.9072   -2.9567 H   0  0  0  0  0  0  0  0  0  0  0  0
    2.8485    1.6058   -3.7164 H   0  0  0  0  0  0  0  0  0  0  0  0
  1 26  1  0  0  0  0
  1 27  1  0  0  0  0
  1 28  1  0  0  0  0
  2  1  1  0  0  0  0
  3  2  2  0  0  0  0
  4  3  1  0  0  0  0
  5  4  2  0  0  0  0
  6  5  1  0  0  0  0
  6 29  1  0  0  0  0
  7  6  2  0  0  0  0
  7  2  1  0  0  0  0
  8  4  1  0  0  0  0
  9  8  1  0  0  0  0
  9 30  1  0  0  0  0
 10  9  2  0  0  0  0
 10  3  1  0  0  0  0
 11 10  1  0  0  0  0
 12 11  2  0  0  0  0
 13 12  1  0  0  0  0
 13 31  1  0  0  0  0
 14 13  2  0  0  0  0
 14 32  1  0  0  0  0
 15 14  1  0  0  0  0
 15 33  1  0  0  0  0
 16 15  2  0  0  0  0
 16 11  1  0  0  0  0
 16 34  1  0  0  0  0
 17  8  1  0  0  0  0
 17 35  1  6  0  0  0
 18 17  1  0  0  0  0
 19 18  1  0  0  0  0
 19 36  1  6  0  0  0
 20 19  1  0  0  0  0
 20 37  1  0  0  0  0
 20 38  1  0  0  0  0
 21 20  1  0  0  0  0
 21 39  1  0  0  0  0
 22 19  1  0  0  0  0
 22 40  1  1  0  0  0
 23 22  1  0  0  0  0
 23 41  1  0  0  0  0
 24 22  1  0  0  0  0
 24 17  1  0  0  0  0
 24 42  1  6  0  0  0
 25 24  1  0  0  0  0
 25 43  1  0  0  0  0
M  END
>  <MOL Chiral Flag>
0

>  <energy>
128.80165265161469

$$$$
> 90_AKC_1568026622666220707095718
>89.sdf
 OpenBabel10062217323D

 35 37  0  0  0  0  0  0  0  0999 V2000
   -0.3513   -1.0218   -1.2603 H   0  0  0  0  0  0  0  0  0  0  0  0
   -1.2018   -0.6988   -0.6330 C   0  0  1  0  0  0  0  0  0  0  0  0
   -2.2344   -0.1103   -1.6416 C   0  0  0  0  0  0  0  0  0  0  0  0
   -2.0922    1.3476   -1.4120 C   0  0  0  0  0  0  0  0  0  0  0  0
   -2.7022    2.2014   -2.0331 O   0  0  0  0  0  0  0  0  0  0  0  0
   -1.2434    1.6181   -0.2813 C   0  0  0  0  0  0  0  0  0  0  0  0
   -0.9161    3.3748    0.4199 Br  0  0  0  0  0  0  0  0  0  0  0  0
   -0.7482    0.4847    0.1996 C   0  0  0  0  0  0  0  0  0  0  0  0
    0.1540    0.4921    1.4191 C   0  0  1  0  0  0  0  0  0  0  0  0
    0.8352   -0.7336    2.0861 C   0  0  1  0  0  0  0  0  0  0  0  0
    0.1129   -2.1005    2.0317 C   0  0  0  0  0  0  0  0  0  0  0  0
   -0.5650   -2.6969    0.7863 C   0  0  0  0  0  0  0  0  0  0  0  0
   -1.7292   -1.9114    0.1505 C   0  0  1  0  0  0  0  0  0  0  0  0
   -2.8273   -1.5572    1.1733 C   0  0  0  0  0  0  0  0  0  0  0  0
    1.6298    0.1380    1.1353 C   0  0  0  0  0  0  0  0  0  0  0  0
    2.5517    1.2145    1.7239 C   0  0  0  0  0  0  0  0  0  0  0  0
    2.0963   -0.4661   -0.1921 C   0  0  0  0  0  0  0  0  0  0  0  0
   -3.2869   -0.3701   -1.4078 H   0  0  0  0  0  0  0  0  0  0  0  0
   -1.9961   -0.4154   -2.6841 H   0  0  0  0  0  0  0  0  0  0  0  0
   -0.2508    1.0415    2.2974 H   0  0  0  0  0  0  0  0  0  0  0  0
    1.1904   -0.5206    3.1193 H   0  0  0  0  0  0  0  0  0  0  0  0
   -0.6477   -2.0749    2.8403 H   0  0  0  0  0  0  0  0  0  0  0  0
    0.8714   -2.8474    2.3513 H   0  0  0  0  0  0  0  0  0  0  0  0
    0.1837   -2.9512    0.0109 H   0  0  0  0  0  0  0  0  0  0  0  0
   -0.9810   -3.6755    1.1157 H   0  0  0  0  0  0  0  0  0  0  0  0
   -2.1681   -2.6020   -0.6046 H   0  0  0  0  0  0  0  0  0  0  0  0
   -3.6947   -1.0717    0.6845 H   0  0  0  0  0  0  0  0  0  0  0  0
   -2.4442   -0.8612    1.9487 H   0  0  0  0  0  0  0  0  0  0  0  0
   -3.1913   -2.4780    1.6755 H   0  0  0  0  0  0  0  0  0  0  0  0
    2.5749    2.0947    1.0483 H   0  0  0  0  0  0  0  0  0  0  0  0
    3.5809    0.8105    1.8257 H   0  0  0  0  0  0  0  0  0  0  0  0
    2.2175    1.5531    2.7292 H   0  0  0  0  0  0  0  0  0  0  0  0
    2.0039    0.2919   -0.9983 H   0  0  0  0  0  0  0  0  0  0  0  0
    1.5688   -1.3827   -0.4715 H   0  0  0  0  0  0  0  0  0  0  0  0
    3.1631   -0.7572   -0.1039 H   0  0  0  0  0  0  0  0  0  0  0  0
  2  1  1  6  0  0  0
  3  2  1  0  0  0  0
  3 18  1  0  0  0  0
  3 19  1  0  0  0  0
  4  3  1  0  0  0  0
  5  4  2  0  0  0  0
  6  4  1  0  0  0  0
  7  6  1  0  0  0  0
  8  6  2  0  0  0  0
  8  2  1  0  0  0  0
  9  8  1  0  0  0  0
  9 20  1  1  0  0  0
 10  9  1  0  0  0  0
 10 21  1  1  0  0  0
 11 10  1  0  0  0  0
 11 22  1  0  0  0  0
 11 23  1  0  0  0  0
 12 11  1  0  0  0  0
 12 24  1  0  0  0  0
 12 25  1  0  0  0  0
 13 12  1  0  0  0  0
 13  2  1  0  0  0  0
 13 26  1  6  0  0  0
 14 13  1  0  0  0  0
 14 27  1  0  0  0  0
 14 28  1  0  0  0  0
 14 29  1  0  0  0  0
 15 10  1  0  0  0  0
 15  9  1  0  0  0  0
 16 15  1  0  0  0  0
 16 30  1  0  0  0  0
 16 31  1  0  0  0  0
 16 32  1  0  0  0  0
 17 15  1  0  0  0  0
 17 33  1  0  0  0  0
 17 34  1  0  0  0  0
 17 35  1  0  0  0  0
M  END
>  <MOL Chiral Flag>
0

>  <energy>
63.48877007525013

$$$$
> 91_AKC_pharmaceutics14071373
>90.sdf
 OpenBabel10052218263D

 41 42  0  0  0  0  0  0  0  0999 V2000
    2.1316   -3.5658   -2.5706 C   0  0  0  0  0  0  0  0  0  0  0  0
    1.8745   -2.5792   -1.4705 C   0  0  0  0  0  0  0  0  0  0  0  0
    2.3613   -1.2648   -1.5572 C   0  0  0  0  0  0  0  0  0  0  0  0
    2.1131   -0.3544   -0.5256 C   0  0  0  0  0  0  0  0  0  0  0  0
    1.3742   -0.7472    0.5965 C   0  0  0  0  0  0  0  0  0  0  0  0
    0.8953   -2.0593    0.6888 C   0  0  0  0  0  0  0  0  0  0  0  0
    1.1417   -2.9713   -0.3409 C   0  0  0  0  0  0  0  0  0  0  0  0
    1.0567    0.4211    1.9212 S   0  0  0  0  0  0  0  0  0  0  0  0
    2.3044    0.5297    2.8112 O   0  0  0  0  0  0  0  0  0  0  0  0
    0.0269   -0.0652    2.9504 O   0  0  0  0  0  0  0  0  0  0  0  0
    0.6395    2.1155    1.5769 N   0  0  0  0  0  0  0  0  0  0  0  0
   -0.1408    2.3093    0.3383 C   0  0  1  0  0  0  0  0  0  0  0  0
   -1.6553    2.0547    0.5439 C   0  0  0  0  0  0  0  0  0  0  0  0
   -2.0463    0.6091    0.7198 C   0  0  0  0  0  0  0  0  0  0  0  0
   -1.8049   -0.3181   -0.3093 C   0  0  0  0  0  0  0  0  0  0  0  0
   -2.1946   -1.6523   -0.1609 C   0  0  0  0  0  0  0  0  0  0  0  0
   -2.8258   -2.0715    1.0125 C   0  0  0  0  0  0  0  0  0  0  0  0
   -3.0758   -1.1553    2.0374 C   0  0  0  0  0  0  0  0  0  0  0  0
   -2.6934    0.1822    1.8922 C   0  0  0  0  0  0  0  0  0  0  0  0
    0.0266    3.7468   -0.1133 C   0  0  0  0  0  0  0  0  0  0  0  0
   -0.3265    4.6595    0.6209 O   0  0  0  0  0  0  0  0  0  0  0  0
    0.6317    4.0444   -1.4597 C   0  0  0  0  0  0  0  0  0  0  0  0
    0.7387    5.7966   -1.7903 Cl  0  0  0  0  0  0  0  0  0  0  0  0
    1.1651   -3.9211   -2.9855 H   0  0  0  0  0  0  0  0  0  0  0  0
    2.7228   -3.1144   -3.3952 H   0  0  0  0  0  0  0  0  0  0  0  0
    2.6953   -4.4336   -2.1689 H   0  0  0  0  0  0  0  0  0  0  0  0
    2.9315   -0.9462   -2.4207 H   0  0  0  0  0  0  0  0  0  0  0  0
    2.4941    0.6562   -0.6002 H   0  0  0  0  0  0  0  0  0  0  0  0
    0.3282   -2.3734    1.5555 H   0  0  0  0  0  0  0  0  0  0  0  0
    0.7621   -3.9824   -0.2604 H   0  0  0  0  0  0  0  0  0  0  0  0
    1.5643    2.5951    1.4718 H   0  0  0  0  0  0  0  0  0  0  0  0
    0.2455    1.6617   -0.4753 H   0  0  0  0  0  0  0  0  0  0  0  0
   -2.2024    2.4052   -0.3596 H   0  0  0  0  0  0  0  0  0  0  0  0
   -2.0061    2.6695    1.4024 H   0  0  0  0  0  0  0  0  0  0  0  0
   -1.3208   -0.0061   -1.2259 H   0  0  0  0  0  0  0  0  0  0  0  0
   -2.0051   -2.3618   -0.9560 H   0  0  0  0  0  0  0  0  0  0  0  0
   -3.1244   -3.1054    1.1259 H   0  0  0  0  0  0  0  0  0  0  0  0
   -3.5691   -1.4808    2.9439 H   0  0  0  0  0  0  0  0  0  0  0  0
   -2.8985    0.8827    2.6919 H   0  0  0  0  0  0  0  0  0  0  0  0
    1.6544    3.6151   -1.5042 H   0  0  0  0  0  0  0  0  0  0  0  0
    0.0106    3.5752   -2.2511 H   0  0  0  0  0  0  0  0  0  0  0  0
  1 24  1  0  0  0  0
  1 25  1  0  0  0  0
  1 26  1  0  0  0  0
  2  1  1  0  0  0  0
  3  2  2  0  0  0  0
  3 27  1  0  0  0  0
  4  3  1  0  0  0  0
  4 28  1  0  0  0  0
  5  4  2  0  0  0  0
  6  5  1  0  0  0  0
  6 29  1  0  0  0  0
  7  6  2  0  0  0  0
  7  2  1  0  0  0  0
  7 30  1  0  0  0  0
  8  5  1  0  0  0  0
  9  8  2  0  0  0  0
 10  8  2  0  0  0  0
 11  8  1  0  0  0  0
 11 31  1  0  0  0  0
 12 11  1  0  0  0  0
 12 32  1  6  0  0  0
 13 12  1  0  0  0  0
 13 33  1  0  0  0  0
 13 34  1  0  0  0  0
 14 13  1  0  0  0  0
 15 14  2  0  0  0  0
 15 35  1  0  0  0  0
 16 15  1  0  0  0  0
 16 36  1  0  0  0  0
 17 16  2  0  0  0  0
 17 37  1  0  0  0  0
 18 17  1  0  0  0  0
 18 38  1  0  0  0  0
 19 18  2  0  0  0  0
 19 14  1  0  0  0  0
 19 39  1  0  0  0  0
 20 12  1  0  0  0  0
 21 20  2  0  0  0  0
 22 20  1  0  0  0  0
 22 40  1  0  0  0  0
 22 41  1  0  0  0  0
 23 22  1  0  0  0  0
M  END
>  <MOL Chiral Flag>
0

>  <energy>
20.500402138161576

$$$$
> 92_AKC_j.exppara.2022.108269
>91.sdf
 OpenBabel10052218273D

 55 57  0  0  0  0  0  0  0  0999 V2000
    0.0364    1.1344    2.1654 C   0  0  0  0  0  0  0  0  0  0  0  0
    1.3466    0.8907    1.7948 O   0  0  0  0  0  0  0  0  0  0  0  0
    1.8209    0.9778    0.5264 C   0  0  0  0  0  0  0  0  0  0  0  0
    2.9888    0.2578    0.1439 C   0  0  0  0  0  0  0  0  0  0  0  0
    3.7066   -0.5603    0.9740 O   0  0  0  0  0  0  0  0  0  0  0  0
    3.4479   -1.0370    2.2537 C   0  0  0  0  0  0  0  0  0  0  0  0
    2.1991   -1.9354    2.3173 C   0  0  0  0  0  0  0  0  0  0  0  0
    2.1755   -3.0406    1.2560 C   0  0  0  0  0  0  0  0  0  0  0  0
    0.7537   -3.4665    1.0604 C   0  0  0  0  0  0  0  0  0  0  0  0
   -0.1313   -2.8639    0.1987 C   0  0  0  0  0  0  0  0  0  0  0  0
   -1.3209   -3.4400    0.4114 N   0  0  0  0  0  0  0  0  0  0  0  0
   -2.5700   -3.1118   -0.2712 C   0  0  0  0  0  0  0  0  0  0  0  0
   -2.9803   -1.6863    0.0169 C   0  0  0  0  0  0  0  0  0  0  0  0
   -3.0673   -0.7406   -1.0192 C   0  0  0  0  0  0  0  0  0  0  0  0
   -3.4694    0.5719   -0.7457 C   0  0  0  0  0  0  0  0  0  0  0  0
   -3.7946    0.9533    0.5655 C   0  0  0  0  0  0  0  0  0  0  0  0
   -4.2461    2.3530    0.8680 C   0  0  0  0  0  0  0  0  0  0  0  0
   -3.7020    0.0123    1.6008 C   0  0  0  0  0  0  0  0  0  0  0  0
   -3.2948   -1.2980    1.3293 C   0  0  0  0  0  0  0  0  0  0  0  0
   -1.1811   -4.3533    1.3605 N   0  0  0  0  0  0  0  0  0  0  0  0
    0.0781   -4.3773    1.7887 N   0  0  0  0  0  0  0  0  0  0  0  0
    3.4405    0.3580   -1.1802 C   0  0  0  0  0  0  0  0  0  0  0  0
    2.7639    1.1340   -2.1213 C   0  0  0  0  0  0  0  0  0  0  0  0
    1.6191    1.8489   -1.7558 C   0  0  0  0  0  0  0  0  0  0  0  0
    0.8755    2.6795   -2.7745 C   0  0  0  0  0  0  0  0  0  0  0  0
    1.7719    3.7054   -3.4180 C   0  0  0  0  0  0  0  0  0  0  0  0
    1.9596    3.7265   -4.7428 C   0  0  0  0  0  0  0  0  0  0  0  0
    1.1537    1.7697   -0.4367 C   0  0  0  0  0  0  0  0  0  0  0  0
   -0.0864    0.8950    3.2409 H   0  0  0  0  0  0  0  0  0  0  0  0
   -0.2431    2.1944    2.0047 H   0  0  0  0  0  0  0  0  0  0  0  0
   -0.6429    0.4660    1.5888 H   0  0  0  0  0  0  0  0  0  0  0  0
    3.3650   -0.1957    2.9740 H   0  0  0  0  0  0  0  0  0  0  0  0
    4.3224   -1.6510    2.5571 H   0  0  0  0  0  0  0  0  0  0  0  0
    1.3143   -1.3122    2.1495 H   0  0  0  0  0  0  0  0  0  0  0  0
    2.0743   -2.3699    3.3333 H   0  0  0  0  0  0  0  0  0  0  0  0
    2.8643   -3.8811    1.4864 H   0  0  0  0  0  0  0  0  0  0  0  0
    2.4912   -2.6109    0.2821 H   0  0  0  0  0  0  0  0  0  0  0  0
    0.0655   -2.0608   -0.5002 H   0  0  0  0  0  0  0  0  0  0  0  0
   -3.3812   -3.7893    0.0707 H   0  0  0  0  0  0  0  0  0  0  0  0
   -2.4257   -3.2727   -1.3616 H   0  0  0  0  0  0  0  0  0  0  0  0
   -2.8264   -1.0188   -2.0374 H   0  0  0  0  0  0  0  0  0  0  0  0
   -3.5341    1.2879   -1.5560 H   0  0  0  0  0  0  0  0  0  0  0  0
   -5.2691    2.3279    1.3008 H   0  0  0  0  0  0  0  0  0  0  0  0
   -3.5553    2.8221    1.5995 H   0  0  0  0  0  0  0  0  0  0  0  0
   -4.2717    2.9833   -0.0465 H   0  0  0  0  0  0  0  0  0  0  0  0
   -3.9507    0.2948    2.6165 H   0  0  0  0  0  0  0  0  0  0  0  0
   -3.2343   -2.0147    2.1386 H   0  0  0  0  0  0  0  0  0  0  0  0
    4.3236   -0.1891   -1.4866 H   0  0  0  0  0  0  0  0  0  0  0  0
    3.1340    1.1794   -3.1382 H   0  0  0  0  0  0  0  0  0  0  0  0
    0.4514    1.9956   -3.5410 H   0  0  0  0  0  0  0  0  0  0  0  0
    0.0261    3.2142   -2.2970 H   0  0  0  0  0  0  0  0  0  0  0  0
    2.2715    4.4441   -2.7981 H   0  0  0  0  0  0  0  0  0  0  0  0
    1.4667    3.0048   -5.3884 H   0  0  0  0  0  0  0  0  0  0  0  0
    2.6064    4.4733   -5.1907 H   0  0  0  0  0  0  0  0  0  0  0  0
    0.2642    2.3211   -0.1677 H   0  0  0  0  0  0  0  0  0  0  0  0
  1 29  1  0  0  0  0
  1 30  1  0  0  0  0
  1 31  1  0  0  0  0
  2  1  1  0  0  0  0
  3  2  1  0  0  0  0
  4  3  2  0  0  0  0
  5  4  1  0  0  0  0
  6  5  1  0  0  0  0
  6 32  1  0  0  0  0
  6 33  1  0  0  0  0
  7  6  1  0  0  0  0
  7 34  1  0  0  0  0
  7 35  1  0  0  0  0
  8  7  1  0  0  0  0
  8 36  1  0  0  0  0
  8 37  1  0  0  0  0
  9  8  1  0  0  0  0
 10  9  2  0  0  0  0
 10 38  1  0  0  0  0
 11 10  1  0  0  0  0
 12 11  1  0  0  0  0
 12 39  1  0  0  0  0
 12 40  1  0  0  0  0
 13 12  1  0  0  0  0
 14 13  2  0  0  0  0
 14 41  1  0  0  0  0
 15 14  1  0  0  0  0
 15 42  1  0  0  0  0
 16 15  2  0  0  0  0
 17 16  1  0  0  0  0
 17 43  1  0  0  0  0
 17 44  1  0  0  0  0
 17 45  1  0  0  0  0
 18 16  1  0  0  0  0
 18 46  1  0  0  0  0
 19 18  2  0  0  0  0
 19 13  1  0  0  0  0
 19 47  1  0  0  0  0
 20 11  1  0  0  0  0
 21 20  2  0  0  0  0
 21  9  1  0  0  0  0
 22  4  1  0  0  0  0
 22 48  1  0  0  0  0
 23 22  2  0  0  0  0
 23 49  1  0  0  0  0
 24 23  1  0  0  0  0
 25 24  1  0  0  0  0
 25 50  1  0  0  0  0
 25 51  1  0  0  0  0
 26 25  1  0  0  0  0
 26 52  1  0  0  0  0
 27 26  2  0  0  0  0
 27 53  1  0  0  0  0
 27 54  1  0  0  0  0
 28 24  2  0  0  0  0
 28  3  1  0  0  0  0
 28 55  1  0  0  0  0
M  END
>  <MOL Chiral Flag>
0

>  <energy>
93.438153116320592

$$$$
> 93_AKC_tropicalmed7060112
>92.sdf
 OpenBabel10052218273D

 27 30  0  0  0  0  0  0  0  0999 V2000
    1.1194    0.0056    0.0637 O   0  0  0  0  0  0  0  0  0  0  0  0
    2.3392   -0.0370    0.0642 C   0  0  0  0  0  0  0  0  0  0  0  0
    3.2656    1.0912    0.0644 C   0  0  0  0  0  0  0  0  0  0  0  0
    2.9669    2.4141    0.0640 N   0  0  0  0  0  0  0  0  0  0  0  0
    3.9811    3.3291    0.0639 C   0  0  0  0  0  0  0  0  0  0  0  0
    5.3371    2.8973    0.0645 C   0  0  0  0  0  0  0  0  0  0  0  0
    6.3697    3.8509    0.0643 C   0  0  0  0  0  0  0  0  0  0  0  0
    6.0628    5.2134    0.0635 C   0  0  0  0  0  0  0  0  0  0  0  0
    4.7300    5.6364    0.0629 C   0  0  0  0  0  0  0  0  0  0  0  0
    3.6909    4.6989    0.0632 C   0  0  0  0  0  0  0  0  0  0  0  0
    5.6034    1.5155    0.0649 C   0  0  0  0  0  0  0  0  0  0  0  0
    6.7484    1.0964    0.0653 O   0  0  0  0  0  0  0  0  0  0  0  0
    4.5416    0.6486    0.0647 N   0  0  0  0  0  0  0  0  0  0  0  0
    4.4966   -0.7846    0.0644 C   0  0  0  0  0  0  0  0  0  0  0  0
    5.5633   -1.6862    0.0641 C   0  0  0  0  0  0  0  0  0  0  0  0
    5.2724   -3.0611    0.0636 C   0  0  0  0  0  0  0  0  0  0  0  0
    3.9329   -3.5094    0.0634 C   0  0  0  0  0  0  0  0  0  0  0  0
    2.8723   -2.5845    0.0637 C   0  0  0  0  0  0  0  0  0  0  0  0
    3.1854   -1.2272    0.0642 C   0  0  0  0  0  0  0  0  0  0  0  0
    7.4081    3.5426    0.0647 H   0  0  0  0  0  0  0  0  0  0  0  0
    6.8618    5.9436    0.0632 H   0  0  0  0  0  0  0  0  0  0  0  0
    4.5028    6.6945    0.0622 H   0  0  0  0  0  0  0  0  0  0  0  0
    2.6628    5.0392    0.0627 H   0  0  0  0  0  0  0  0  0  0  0  0
    6.5895   -1.3501    0.0642 H   0  0  0  0  0  0  0  0  0  0  0  0
    6.0819   -3.7794    0.0633 H   0  0  0  0  0  0  0  0  0  0  0  0
    3.7230   -4.5709    0.0630 H   0  0  0  0  0  0  0  0  0  0  0  0
    1.8437   -2.9202    0.0635 H   0  0  0  0  0  0  0  0  0  0  0  0
  2  1  2  0  0  0  0
  3  2  1  0  0  0  0
  4  3  2  0  0  0  0
  5  4  1  0  0  0  0
  6  5  2  0  0  0  0
  7  6  1  0  0  0  0
  7 20  1  0  0  0  0
  8  7  2  0  0  0  0
  8 21  1  0  0  0  0
  9  8  1  0  0  0  0
  9 22  1  0  0  0  0
 10  9  2  0  0  0  0
 10  5  1  0  0  0  0
 10 23  1  0  0  0  0
 11  6  1  0  0  0  0
 12 11  2  0  0  0  0
 13 11  1  0  0  0  0
 13  3  1  0  0  0  0
 14 13  1  0  0  0  0
 15 14  2  0  0  0  0
 15 24  1  0  0  0  0
 16 15  1  0  0  0  0
 16 25  1  0  0  0  0
 17 16  2  0  0  0  0
 17 26  1  0  0  0  0
 18 17  1  0  0  0  0
 18 27  1  0  0  0  0
 19 18  2  0  0  0  0
 19  2  1  0  0  0  0
 19 14  1  0  0  0  0
M  END
>  <MOL Chiral Flag>
0

>  <energy>
69.627925078690424

$$$$
> 94_AKC_j.bioorg.2022.105766
>93.sdf
 OpenBabel10052218273D

 40 44  0  0  0  0  0  0  0  0999 V2000
    3.4682    1.5400    2.7884 C   0  0  0  0  0  0  0  0  0  0  0  0
    2.1666    2.2494    2.4141 C   0  0  0  0  0  0  0  0  0  0  0  0
    1.4511    1.5158    1.3543 N   0  0  0  0  0  0  0  0  0  0  0  0
    0.2615    0.8694    1.4489 C   0  0  0  0  0  0  0  0  0  0  0  0
   -0.5587    0.8255    2.5720 C   0  0  0  0  0  0  0  0  0  0  0  0
   -1.7908    0.1985    2.4743 C   0  0  0  0  0  0  0  0  0  0  0  0
   -2.1736   -0.4802    1.3030 C   0  0  0  0  0  0  0  0  0  0  0  0
   -3.3991   -1.0735    1.2741 N   0  0  0  0  0  0  0  0  0  0  0  0
   -3.8396   -1.7874    0.1984 C   0  0  0  0  0  0  0  0  0  0  0  0
   -4.9566   -2.2801    0.2250 O   0  0  0  0  0  0  0  0  0  0  0  0
   -2.9875   -2.0123   -0.8889 C   0  0  0  0  0  0  0  0  0  0  0  0
   -3.4020   -2.8451   -1.9506 C   0  0  0  0  0  0  0  0  0  0  0  0
   -2.5236   -3.1660   -2.9788 C   0  0  0  0  0  0  0  0  0  0  0  0
   -1.2184   -2.6959   -2.9420 C   0  0  0  0  0  0  0  0  0  0  0  0
   -0.8013   -1.8558   -1.9086 C   0  0  0  0  0  0  0  0  0  0  0  0
   -1.6839   -1.4360   -0.8941 C   0  0  0  0  0  0  0  0  0  0  0  0
   -1.2922   -0.5538    0.1727 C   0  0  0  0  0  0  0  0  0  0  0  0
   -0.0898    0.2561    0.2392 C   0  0  0  0  0  0  0  0  0  0  0  0
    0.9054    0.6962   -0.6759 C   0  0  0  0  0  0  0  0  0  0  0  0
    1.8315    1.4190    0.0638 C   0  0  0  0  0  0  0  0  0  0  0  0
    2.9564    2.0147   -0.5217 C   0  0  0  0  0  0  0  0  0  0  0  0
    3.1373    1.8929   -1.9018 C   0  0  0  0  0  0  0  0  0  0  0  0
    2.1841    1.2201   -2.6790 C   0  0  0  0  0  0  0  0  0  0  0  0
    1.0573    0.6348   -2.0801 C   0  0  0  0  0  0  0  0  0  0  0  0
    3.2428    0.5184    3.1612 H   0  0  0  0  0  0  0  0  0  0  0  0
    4.1600    1.4537    1.9291 H   0  0  0  0  0  0  0  0  0  0  0  0
    3.9817    2.1065    3.5935 H   0  0  0  0  0  0  0  0  0  0  0  0
    1.5696    2.3142    3.3415 H   0  0  0  0  0  0  0  0  0  0  0  0
    2.3630    3.2908    2.0811 H   0  0  0  0  0  0  0  0  0  0  0  0
   -0.2978    1.3150    3.4966 H   0  0  0  0  0  0  0  0  0  0  0  0
   -2.4538    0.2184    3.3310 H   0  0  0  0  0  0  0  0  0  0  0  0
   -4.0365   -0.9793    2.0993 H   0  0  0  0  0  0  0  0  0  0  0  0
   -4.3972   -3.2728   -1.9680 H   0  0  0  0  0  0  0  0  0  0  0  0
   -2.8416   -3.8209   -3.7798 H   0  0  0  0  0  0  0  0  0  0  0  0
   -0.5159   -2.9990   -3.7079 H   0  0  0  0  0  0  0  0  0  0  0  0
    0.2338   -1.6113   -1.8763 H   0  0  0  0  0  0  0  0  0  0  0  0
    3.6651    2.5859    0.0597 H   0  0  0  0  0  0  0  0  0  0  0  0
    3.9939    2.3533   -2.3770 H   0  0  0  0  0  0  0  0  0  0  0  0
    2.3066    1.1729   -3.7535 H   0  0  0  0  0  0  0  0  0  0  0  0
    0.3238    0.2072   -2.7374 H   0  0  0  0  0  0  0  0  0  0  0  0
  1 25  1  0  0  0  0
  1 26  1  0  0  0  0
  1 27  1  0  0  0  0
  2  1  1  0  0  0  0
  2 28  1  0  0  0  0
  2 29  1  0  0  0  0
  3  2  1  0  0  0  0
  4  3  1  0  0  0  0
  5  4  2  0  0  0  0
  5 30  1  0  0  0  0
  6  5  1  0  0  0  0
  6 31  1  0  0  0  0
  7  6  2  0  0  0  0
  8  7  1  0  0  0  0
  8 32  1  0  0  0  0
  9  8  1  0  0  0  0
 10  9  2  0  0  0  0
 11  9  1  0  0  0  0
 12 11  2  0  0  0  0
 12 33  1  0  0  0  0
 13 12  1  0  0  0  0
 13 34  1  0  0  0  0
 14 13  2  0  0  0  0
 14 35  1  0  0  0  0
 15 14  1  0  0  0  0
 15 36  1  0  0  0  0
 16 15  2  0  0  0  0
 16 11  1  0  0  0  0
 17 16  1  0  0  0  0
 17  7  1  0  0  0  0
 18 17  2  0  0  0  0
 18  4  1  0  0  0  0
 19 18  1  0  0  0  0
 20 19  2  0  0  0  0
 20  3  1  0  0  0  0
 21 20  1  0  0  0  0
 21 37  1  0  0  0  0
 22 21  2  0  0  0  0
 22 38  1  0  0  0  0
 23 22  1  0  0  0  0
 23 39  1  0  0  0  0
 24 23  2  0  0  0  0
 24 19  1  0  0  0  0
 24 40  1  0  0  0  0
M  END
>  <MOL Chiral Flag>
0

>  <energy>
63.01305307099458

$$$$
> 95_AKC_cmdc.202200023
>94.sdf
 OpenBabel10052218273D

 28 29  0  0  0  0  0  0  0  0999 V2000
    3.8074   -1.4483    1.8244 O   0  0  0  0  0  0  0  0  0  0  0  0
    2.8148   -1.2044    1.1535 C   0  0  0  0  0  0  0  0  0  0  0  0
    1.4350   -1.8644    1.3220 C   0  0  0  0  0  0  0  0  0  0  0  0
    0.7072   -1.1106    0.3003 N   0  0  0  0  0  0  0  0  0  0  0  0
   -0.6558   -1.0068    0.0345 N   0  0  0  0  0  0  0  0  0  0  0  0
   -1.7851   -1.5627    0.3325 C   0  0  0  0  0  0  0  0  0  0  0  0
   -2.9358   -0.6450    0.0737 C   0  0  0  0  0  0  0  0  0  0  0  0
   -3.1129    0.4759   -0.8074 C   0  0  0  0  0  0  0  0  0  0  0  0
   -4.2743    1.1068   -0.3720 C   0  0  0  0  0  0  0  0  0  0  0  0
   -4.6898    0.3576    0.7183 C   0  0  0  0  0  0  0  0  0  0  0  0
   -3.9014   -0.6528    0.9228 O   0  0  0  0  0  0  0  0  0  0  0  0
   -5.7511    0.5943    1.5999 N   0  0  0  0  0  0  0  0  0  0  0  0
   -5.8908   -0.1414    2.5295 O   0  0  0  0  0  0  0  0  0  0  0  0
   -6.4770    1.5286    1.4647 O   0  0  0  0  0  0  0  0  0  0  0  0
    1.5378   -0.2086   -0.2743 C   0  0  0  0  0  0  0  0  0  0  0  0
    1.1546    0.6076   -1.1008 O   0  0  0  0  0  0  0  0  0  0  0  0
    2.7938   -0.2614    0.1969 N   0  0  0  0  0  0  0  0  0  0  0  0
    3.9088    0.6429   -0.1399 C   0  0  0  0  0  0  0  0  0  0  0  0
    4.8037    0.1320   -1.1948 C   0  0  0  0  0  0  0  0  0  0  0  0
    5.6086   -0.2694   -2.0028 C   0  0  0  0  0  0  0  0  0  0  0  0
    1.4823   -2.9452    1.0890 H   0  0  0  0  0  0  0  0  0  0  0  0
    1.0473   -1.6440    2.3391 H   0  0  0  0  0  0  0  0  0  0  0  0
   -1.9659   -2.4522    1.0021 H   0  0  0  0  0  0  0  0  0  0  0  0
   -2.5185    0.8871   -1.6328 H   0  0  0  0  0  0  0  0  0  0  0  0
   -4.7356    2.0212   -0.7662 H   0  0  0  0  0  0  0  0  0  0  0  0
    3.5446    1.6307   -0.4973 H   0  0  0  0  0  0  0  0  0  0  0  0
    4.5262    0.8616    0.7616 H   0  0  0  0  0  0  0  0  0  0  0  0
    6.2649   -0.6304   -2.7550 H   0  0  0  0  0  0  0  0  0  0  0  0
  2  1  2  0  0  0  0
  3  2  1  0  0  0  0
  3 21  1  0  0  0  0
  3 22  1  0  0  0  0
  4  3  1  0  0  0  0
  5  4  1  0  0  0  0
  6  5  2  0  0  0  0
  6 23  1  0  0  0  0
  7  6  1  0  0  0  0
  8  7  2  0  0  0  0
  8 24  1  0  0  0  0
  9  8  1  0  0  0  0
  9 25  1  0  0  0  0
 10  9  2  0  0  0  0
 11 10  1  0  0  0  0
 11  7  1  0  0  0  0
 12 10  1  0  0  0  0
 13 12  2  0  0  0  0
 14 12  2  0  0  0  0
 15  4  1  0  0  0  0
 16 15  2  0  0  0  0
 17 15  1  0  0  0  0
 17  2  1  0  0  0  0
 18 17  1  0  0  0  0
 18 26  1  0  0  0  0
 18 27  1  0  0  0  0
 19 18  1  0  0  0  0
 20 19  3  0  0  0  0
 20 28  1  0  0  0  0
M  END
>  <MOL Chiral Flag>
0

>  <energy>
52.426771290543101

$$$$
> 96_AKC_j.molstruc.2022.132528
>95.sdf
 OpenBabel10052218283D

 34 36  0  0  0  0  0  0  0  0999 V2000
    5.0901   -2.1088    1.1601 C   0  0  0  0  0  0  0  0  0  0  0  0
    3.8787   -1.3052    0.7776 C   0  0  0  0  0  0  0  0  0  0  0  0
    2.7826   -1.2435    1.6602 C   0  0  0  0  0  0  0  0  0  0  0  0
    1.6418   -0.5649    1.2604 C   0  0  0  0  0  0  0  0  0  0  0  0
    1.5581    0.0551    0.0350 C   0  0  0  0  0  0  0  0  0  0  0  0
    0.1932    0.5351   -0.0710 C   0  0  0  0  0  0  0  0  0  0  0  0
   -0.3281    0.9789   -1.0762 O   0  0  0  0  0  0  0  0  0  0  0  0
   -0.4580    0.0860    1.1763 C   0  0  0  0  0  0  0  0  0  0  0  0
    0.4872   -0.4890    1.9606 O   0  0  0  0  0  0  0  0  0  0  0  0
   -1.7599    0.0364    1.5380 C   0  0  0  0  0  0  0  0  0  0  0  0
   -2.9476    0.4218    0.7271 C   0  0  0  0  0  0  0  0  0  0  0  0
   -4.1072   -0.3538    0.8991 C   0  0  0  0  0  0  0  0  0  0  0  0
   -5.2416   -0.1246    0.1217 C   0  0  0  0  0  0  0  0  0  0  0  0
   -5.2431    0.8954   -0.8280 C   0  0  0  0  0  0  0  0  0  0  0  0
   -4.1112    1.7067   -0.9876 C   0  0  0  0  0  0  0  0  0  0  0  0
   -4.1082    2.7045   -1.8947 O   0  0  0  0  0  0  0  0  0  0  0  0
   -2.9696    1.4760   -0.2071 C   0  0  0  0  0  0  0  0  0  0  0  0
    2.6443    0.0650   -0.8591 C   0  0  0  0  0  0  0  0  0  0  0  0
    2.5775    0.7660   -2.1921 C   0  0  0  0  0  0  0  0  0  0  0  0
    3.8186   -0.6356   -0.4773 C   0  0  0  0  0  0  0  0  0  0  0  0
    5.1992   -0.7089   -1.5799 Cl  0  0  0  0  0  0  0  0  0  0  0  0
    5.9908   -1.4629    1.1803 H   0  0  0  0  0  0  0  0  0  0  0  0
    5.2360   -2.9218    0.4158 H   0  0  0  0  0  0  0  0  0  0  0  0
    4.9701   -2.5835    2.1573 H   0  0  0  0  0  0  0  0  0  0  0  0
    2.8029   -1.7496    2.6172 H   0  0  0  0  0  0  0  0  0  0  0  0
   -1.9662   -0.4774    2.4740 H   0  0  0  0  0  0  0  0  0  0  0  0
   -4.1176   -1.1675    1.6151 H   0  0  0  0  0  0  0  0  0  0  0  0
   -6.1156   -0.7503    0.2475 H   0  0  0  0  0  0  0  0  0  0  0  0
   -6.1245    1.0582   -1.4349 H   0  0  0  0  0  0  0  0  0  0  0  0
   -4.8717    2.8740   -2.4653 H   0  0  0  0  0  0  0  0  0  0  0  0
   -2.1252    2.1316   -0.3287 H   0  0  0  0  0  0  0  0  0  0  0  0
    3.3876    1.5239   -2.2478 H   0  0  0  0  0  0  0  0  0  0  0  0
    2.7095    0.0306   -3.0122 H   0  0  0  0  0  0  0  0  0  0  0  0
    1.6273    1.3021   -2.3616 H   0  0  0  0  0  0  0  0  0  0  0  0
  1 22  1  0  0  0  0
  1 23  1  0  0  0  0
  1 24  1  0  0  0  0
  2  1  1  0  0  0  0
  3  2  2  0  0  0  0
  3 25  1  0  0  0  0
  4  3  1  0  0  0  0
  5  4  2  0  0  0  0
  6  5  1  0  0  0  0
  7  6  2  0  0  0  0
  8  6  1  0  0  0  0
  9  8  1  0  0  0  0
  9  4  1  0  0  0  0
 10  8  2  0  0  0  0
 10 26  1  0  0  0  0
 11 10  1  0  0  0  0
 12 11  2  0  0  0  0
 12 27  1  0  0  0  0
 13 12  1  0  0  0  0
 13 28  1  0  0  0  0
 14 13  2  0  0  0  0
 14 29  1  0  0  0  0
 15 14  1  0  0  0  0
 16 15  1  0  0  0  0
 16 30  1  0  0  0  0
 17 15  2  0  0  0  0
 17 11  1  0  0  0  0
 17 31  1  0  0  0  0
 18  5  1  0  0  0  0
 19 18  1  0  0  0  0
 19 32  1  0  0  0  0
 19 33  1  0  0  0  0
 19 34  1  0  0  0  0
 20 18  2  0  0  0  0
 20  2  1  0  0  0  0
 21 20  1  0  0  0  0
M  END
>  <MOL Chiral Flag>
0

>  <energy>
76.277141778660194

$$$$
> 97_AKC_D2MD00078D
>96.sdf
 OpenBabel10052218283D

 65 68  0  0  0  0  0  0  0  0999 V2000
    7.2716    0.8234   -1.7822 C   0  0  0  0  0  0  0  0  0  0  0  0
    6.8507    0.0369   -0.7288 O   0  0  0  0  0  0  0  0  0  0  0  0
    5.5573   -0.2873   -0.4627 C   0  0  0  0  0  0  0  0  0  0  0  0
    5.2852   -1.1077    0.6371 C   0  0  0  0  0  0  0  0  0  0  0  0
    3.9715   -1.4728    0.9454 C   0  0  0  0  0  0  0  0  0  0  0  0
    2.8984   -1.0204    0.1552 C   0  0  0  0  0  0  0  0  0  0  0  0
    3.1745   -0.1908   -0.9462 C   0  0  0  0  0  0  0  0  0  0  0  0
    4.4874    0.1721   -1.2557 C   0  0  0  0  0  0  0  0  0  0  0  0
    1.4869   -1.4091    0.4701 C   0  0  0  0  0  0  0  0  0  0  0  0
    0.4651   -0.4328    0.5074 C   0  0  0  0  0  0  0  0  0  0  0  0
   -0.8317   -0.7766    0.7741 C   0  0  0  0  0  0  0  0  0  0  0  0
   -1.7456    0.4117    0.7354 C   0  0  0  0  0  0  0  0  0  0  0  0
   -0.8061    1.4955    0.4349 N   0  0  0  0  0  0  0  0  0  0  0  0
    0.4594    1.0078    0.3378 C   0  0  0  0  0  0  0  0  0  0  0  0
    1.4451    1.7041    0.1580 O   0  0  0  0  0  0  0  0  0  0  0  0
   -1.1832    2.9202    0.3077 C   0  0  0  0  0  0  0  0  0  0  0  0
   -0.5556    3.7106    1.4812 C   0  0  0  0  0  0  0  0  0  0  0  0
   -0.6598    3.5164   -1.0226 C   0  0  0  0  0  0  0  0  0  0  0  0
   -2.7140    3.0898    0.3165 C   0  0  0  0  0  0  0  0  0  0  0  0
   -3.2466    3.7414    1.2045 O   0  0  0  0  0  0  0  0  0  0  0  0
   -3.4726    2.5215   -0.6742 N   0  0  0  0  0  0  0  0  0  0  0  0
   -4.9344    2.6107   -0.7646 C   0  0  0  0  0  0  0  0  0  0  0  0
   -5.5995    1.9943    0.4847 C   0  0  0  0  0  0  0  0  0  0  0  0
   -5.4036    1.8085   -1.9987 C   0  0  0  0  0  0  0  0  0  0  0  0
   -5.3780    4.0766   -0.9458 C   0  0  0  0  0  0  0  0  0  0  0  0
   -1.2019   -2.0498    1.0289 N   0  0  0  0  0  0  0  0  0  0  0  0
   -0.2789   -3.0491    1.0084 C   0  0  0  0  0  0  0  0  0  0  0  0
    1.0926   -2.7679    0.7205 C   0  0  0  0  0  0  0  0  0  0  0  0
    1.9935   -3.8562    0.6464 C   0  0  0  0  0  0  0  0  0  0  0  0
    1.5636   -5.1697    0.8741 C   0  0  0  0  0  0  0  0  0  0  0  0
    2.4755   -6.1739    0.7747 O   0  0  0  0  0  0  0  0  0  0  0  0
    2.1985   -7.5183    0.9192 C   0  0  0  0  0  0  0  0  0  0  0  0
    0.2127   -5.4138    1.1839 C   0  0  0  0  0  0  0  0  0  0  0  0
   -0.6960   -4.3605    1.2456 C   0  0  0  0  0  0  0  0  0  0  0  0
    6.9848    0.3573   -2.7493 H   0  0  0  0  0  0  0  0  0  0  0  0
    6.8336    1.8413   -1.7025 H   0  0  0  0  0  0  0  0  0  0  0  0
    8.3767    0.9119   -1.7490 H   0  0  0  0  0  0  0  0  0  0  0  0
    6.0977   -1.4646    1.2576 H   0  0  0  0  0  0  0  0  0  0  0  0
    3.7914   -2.0980    1.8109 H   0  0  0  0  0  0  0  0  0  0  0  0
    2.3720    0.1603   -1.5823 H   0  0  0  0  0  0  0  0  0  0  0  0
    4.6612    0.8053   -2.1149 H   0  0  0  0  0  0  0  0  0  0  0  0
   -2.2328    0.5726    1.7210 H   0  0  0  0  0  0  0  0  0  0  0  0
   -2.4981    0.2659   -0.0620 H   0  0  0  0  0  0  0  0  0  0  0  0
    0.5515    3.6438    1.4762 H   0  0  0  0  0  0  0  0  0  0  0  0
   -0.9189    3.3098    2.4521 H   0  0  0  0  0  0  0  0  0  0  0  0
   -0.8250    4.7877    1.4200 H   0  0  0  0  0  0  0  0  0  0  0  0
   -1.0311    2.9497   -1.9004 H   0  0  0  0  0  0  0  0  0  0  0  0
   -0.9856    4.5744   -1.1250 H   0  0  0  0  0  0  0  0  0  0  0  0
    0.4466    3.5152   -1.0746 H   0  0  0  0  0  0  0  0  0  0  0  0
   -2.9825    1.9876   -1.4073 H   0  0  0  0  0  0  0  0  0  0  0  0
   -5.2784    0.9378    0.6107 H   0  0  0  0  0  0  0  0  0  0  0  0
   -6.7065    2.0154    0.3862 H   0  0  0  0  0  0  0  0  0  0  0  0
   -5.3433    2.5462    1.4103 H   0  0  0  0  0  0  0  0  0  0  0  0
   -4.9477    2.2161   -2.9270 H   0  0  0  0  0  0  0  0  0  0  0  0
   -6.5092    1.8493   -2.1058 H   0  0  0  0  0  0  0  0  0  0  0  0
   -5.1023    0.7420   -1.9062 H   0  0  0  0  0  0  0  0  0  0  0  0
   -5.1014    4.7048   -0.0762 H   0  0  0  0  0  0  0  0  0  0  0  0
   -4.9043    4.5109   -1.8527 H   0  0  0  0  0  0  0  0  0  0  0  0
   -6.4815    4.1376   -1.0642 H   0  0  0  0  0  0  0  0  0  0  0  0
    3.0294   -3.7141    0.3889 H   0  0  0  0  0  0  0  0  0  0  0  0
    1.8074   -7.7253    1.9379 H   0  0  0  0  0  0  0  0  0  0  0  0
    3.1336   -8.0974    0.7758 H   0  0  0  0  0  0  0  0  0  0  0  0
    1.4631   -7.8430    0.1520 H   0  0  0  0  0  0  0  0  0  0  0  0
   -0.1461   -6.4180    1.3634 H   0  0  0  0  0  0  0  0  0  0  0  0
   -1.7364   -4.5668    1.4661 H   0  0  0  0  0  0  0  0  0  0  0  0
  1 35  1  0  0  0  0
  1 36  1  0  0  0  0
  1 37  1  0  0  0  0
  2  1  1  0  0  0  0
  3  2  1  0  0  0  0
  4  3  2  0  0  0  0
  4 38  1  0  0  0  0
  5  4  1  0  0  0  0
  5 39  1  0  0  0  0
  6  5  2  0  0  0  0
  7  6  1  0  0  0  0
  7 40  1  0  0  0  0
  8  7  2  0  0  0  0
  8  3  1  0  0  0  0
  8 41  1  0  0  0  0
  9  6  1  0  0  0  0
 10  9  2  0  0  0  0
 11 10  1  0  0  0  0
 12 11  1  0  0  0  0
 12 42  1  0  0  0  0
 12 43  1  0  0  0  0
 13 12  1  0  0  0  0
 14 13  1  0  0  0  0
 14 10  1  0  0  0  0
 15 14  2  0  0  0  0
 16 13  1  0  0  0  0
 17 16  1  0  0  0  0
 17 44  1  0  0  0  0
 17 45  1  0  0  0  0
 17 46  1  0  0  0  0
 18 16  1  0  0  0  0
 18 47  1  0  0  0  0
 18 48  1  0  0  0  0
 18 49  1  0  0  0  0
 19 16  1  0  0  0  0
 20 19  2  0  0  0  0
 21 19  1  0  0  0  0
 21 50  1  0  0  0  0
 22 21  1  0  0  0  0
 23 22  1  0  0  0  0
 23 51  1  0  0  0  0
 23 52  1  0  0  0  0
 23 53  1  0  0  0  0
 24 22  1  0  0  0  0
 24 54  1  0  0  0  0
 24 55  1  0  0  0  0
 24 56  1  0  0  0  0
 25 22  1  0  0  0  0
 25 57  1  0  0  0  0
 25 58  1  0  0  0  0
 25 59  1  0  0  0  0
 26 11  2  0  0  0  0
 27 26  1  0  0  0  0
 28 27  2  0  0  0  0
 28  9  1  0  0  0  0
 29 28  1  0  0  0  0
 29 60  1  0  0  0  0
 30 29  2  0  0  0  0
 31 30  1  0  0  0  0
 32 31  1  0  0  0  0
 32 61  1  0  0  0  0
 32 62  1  0  0  0  0
 32 63  1  0  0  0  0
 33 30  1  0  0  0  0
 33 64  1  0  0  0  0
 34 33  2  0  0  0  0
 34 27  1  0  0  0  0
 34 65  1  0  0  0  0
M  END
>  <MOL Chiral Flag>
0

>  <energy>
127.14019025600777

$$$$
> 98_AKC_j.exppara.2022.108253
>97.sdf
 OpenBabel10052218293D

 40 43  0  0  0  0  0  0  0  0999 V2000
    4.9124   -2.1848   -1.4964 F   0  0  0  0  0  0  0  0  0  0  0  0
    4.6487   -1.0589   -0.7861 C   0  0  0  0  0  0  0  0  0  0  0  0
    3.6937   -1.0695    0.2523 C   0  0  0  0  0  0  0  0  0  0  0  0
    2.9181   -2.3426    0.5624 C   0  0  0  0  0  0  0  0  0  0  0  0
    1.5242   -2.1458    0.1777 N   0  0  0  0  0  0  0  0  0  0  0  0
    1.1466   -1.8927   -1.1023 C   0  0  0  0  0  0  0  0  0  0  0  0
    1.9472   -1.8706   -2.0246 O   0  0  0  0  0  0  0  0  0  0  0  0
   -0.6034   -1.5672   -1.3748 S   0  0  0  0  0  0  0  0  0  0  0  0
   -0.7581   -1.7096    0.4175 C   0  0  0  0  0  0  0  0  0  0  0  0
   -1.8523   -1.3367    1.0983 C   0  0  0  0  0  0  0  0  0  0  0  0
   -2.9662   -0.7018    0.3875 C   0  0  0  0  0  0  0  0  0  0  0  0
   -4.0064   -1.3949   -0.2104 C   0  0  0  0  0  0  0  0  0  0  0  0
   -4.8214   -0.5347   -0.8498 N   0  0  0  0  0  0  0  0  0  0  0  0
   -4.3070    0.6953   -0.6772 C   0  0  0  0  0  0  0  0  0  0  0  0
   -3.1562    0.6555    0.0882 C   0  0  0  0  0  0  0  0  0  0  0  0
   -2.4431    1.8657    0.3735 C   0  0  0  0  0  0  0  0  0  0  0  0
   -2.9715    3.0665   -0.1705 C   0  0  0  0  0  0  0  0  0  0  0  0
   -4.1439    3.0670   -0.9451 C   0  0  0  0  0  0  0  0  0  0  0  0
   -4.8230    1.8738   -1.2014 C   0  0  0  0  0  0  0  0  0  0  0  0
   -1.2461    1.9371    1.1659 N   0  0  0  0  0  0  0  0  0  0  0  0
   -0.8234    0.9824    1.7335 O   0  0  0  0  0  0  0  0  0  0  0  0
   -0.6897    2.9844    1.3121 O   0  0  0  0  0  0  0  0  0  0  0  0
    0.4914   -2.1244    1.0416 C   0  0  0  0  0  0  0  0  0  0  0  0
    0.6218   -2.3162    2.2426 O   0  0  0  0  0  0  0  0  0  0  0  0
    3.4444    0.1332    0.9633 C   0  0  0  0  0  0  0  0  0  0  0  0
    2.3018    0.2173    2.2965 Cl  0  0  0  0  0  0  0  0  0  0  0  0
    4.1257    1.3048    0.6193 C   0  0  0  0  0  0  0  0  0  0  0  0
    5.0522    1.3025   -0.4209 C   0  0  0  0  0  0  0  0  0  0  0  0
    5.3162    0.1243   -1.1189 C   0  0  0  0  0  0  0  0  0  0  0  0
    3.0307   -2.5776    1.6430 H   0  0  0  0  0  0  0  0  0  0  0  0
    3.3121   -3.2157   -0.0004 H   0  0  0  0  0  0  0  0  0  0  0  0
   -1.8615   -1.3666    2.1841 H   0  0  0  0  0  0  0  0  0  0  0  0
   -4.1505   -2.4674   -0.1930 H   0  0  0  0  0  0  0  0  0  0  0  0
   -5.6781   -0.7827   -1.3930 H   0  0  0  0  0  0  0  0  0  0  0  0
   -2.4750    4.0121    0.0074 H   0  0  0  0  0  0  0  0  0  0  0  0
   -4.5210    3.9985   -1.3466 H   0  0  0  0  0  0  0  0  0  0  0  0
   -5.7228    1.8693   -1.8024 H   0  0  0  0  0  0  0  0  0  0  0  0
    3.9307    2.2229    1.1599 H   0  0  0  0  0  0  0  0  0  0  0  0
    5.5671    2.2170   -0.6854 H   0  0  0  0  0  0  0  0  0  0  0  0
    6.0352    0.1304   -1.9275 H   0  0  0  0  0  0  0  0  0  0  0  0
  2  1  1  0  0  0  0
  3  2  2  0  0  0  0
  4  3  1  0  0  0  0
  4 30  1  0  0  0  0
  4 31  1  0  0  0  0
  5  4  1  0  0  0  0
  6  5  1  0  0  0  0
  7  6  2  0  0  0  0
  8  6  1  0  0  0  0
  9  8  1  0  0  0  0
 10  9  2  0  0  0  0
 10 32  1  0  0  0  0
 11 10  1  0  0  0  0
 12 11  2  0  0  0  0
 12 33  1  0  0  0  0
 13 12  1  0  0  0  0
 13 34  1  0  0  0  0
 14 13  1  0  0  0  0
 15 14  2  0  0  0  0
 15 11  1  0  0  0  0
 16 15  1  0  0  0  0
 17 16  2  0  0  0  0
 17 35  1  0  0  0  0
 18 17  1  0  0  0  0
 18 36  1  0  0  0  0
 19 18  2  0  0  0  0
 19 14  1  0  0  0  0
 19 37  1  0  0  0  0
 20 16  1  0  0  0  0
 21 20  2  0  0  0  0
 22 20  2  0  0  0  0
 23  9  1  0  0  0  0
 23  5  1  0  0  0  0
 24 23  2  0  0  0  0
 25  3  1  0  0  0  0
 26 25  1  0  0  0  0
 27 25  2  0  0  0  0
 27 38  1  0  0  0  0
 28 27  1  0  0  0  0
 28 39  1  0  0  0  0
 29 28  2  0  0  0  0
 29  2  1  0  0  0  0
 29 40  1  0  0  0  0
M  END
>  <MOL Chiral Flag>
0

>  <energy>
4.1544507836200708

$$$$
> 99_AKC_s00436-022-07431-9
>98.sdf
 OpenBabel10062217353D

 51 51  0  0  0  0  0  0  0  0999 V2000
   -5.5938   -9.0376    3.0580 C   0  0  0  0  0  0  0  0  0  0  0  0
   -4.3009   -8.2300    3.0148 C   0  0  0  0  0  0  0  0  0  0  0  0
   -4.5790   -6.7358    2.7908 C   0  0  0  0  0  0  0  0  0  0  0  0
   -3.2743   -5.9320    2.8544 C   0  0  0  0  0  0  0  0  0  0  0  0
   -3.5207   -4.4114    2.8647 C   0  0  0  0  0  0  0  0  0  0  0  0
   -2.2075   -3.6775    3.1880 C   0  0  0  0  0  0  0  0  0  0  0  0
   -2.3754   -2.1689    3.4525 C   0  0  0  0  0  0  0  0  0  0  0  0
   -1.0135   -1.5764    3.9206 C   0  0  0  0  0  0  0  0  0  0  0  0
   -0.8996   -0.0280    3.9021 C   0  0  0  0  0  0  0  0  0  0  0  0
   -1.0661    0.5490    2.4703 C   0  0  0  0  0  0  0  0  0  0  0  0
    0.0932    1.2316    1.8683 N   0  0  0  0  0  0  0  0  0  0  0  0
    0.6885    2.4172    2.1728 C   0  0  0  0  0  0  0  0  0  0  0  0
    1.6453    2.6504    1.1777 C   0  0  0  0  0  0  0  0  0  0  0  0
    2.5842    3.8245    0.9832 C   0  0  0  0  0  0  0  0  0  0  0  0
    2.4015    4.3739   -0.2803 O   0  0  0  0  0  0  0  0  0  0  0  0
    3.2373    5.2936   -0.8431 C   0  0  0  0  0  0  0  0  0  0  0  0
    2.9874    5.7729   -2.2464 C   0  0  0  0  0  0  0  0  0  0  0  0
    4.2125    5.7069   -0.2314 O   0  0  0  0  0  0  0  0  0  0  0  0
    1.5885    1.5966    0.3385 N   0  3  0  0  0  0  0  0  0  0  0  0
    2.3595    1.3809   -0.8792 C   0  0  0  0  0  0  0  0  0  0  0  0
    0.6601    0.7644    0.7643 N   0  0  0  0  0  0  0  0  0  0  0  0
   -5.3580  -10.1064    3.2475 H   0  0  0  0  0  0  0  0  0  0  0  0
   -6.2471   -8.6721    3.8799 H   0  0  0  0  0  0  0  0  0  0  0  0
   -6.1354   -8.9530    2.0933 H   0  0  0  0  0  0  0  0  0  0  0  0
   -3.7818   -8.3656    3.9902 H   0  0  0  0  0  0  0  0  0  0  0  0
   -3.6449   -8.6222    2.2080 H   0  0  0  0  0  0  0  0  0  0  0  0
   -5.2506   -6.3867    3.6055 H   0  0  0  0  0  0  0  0  0  0  0  0
   -5.0856   -6.5735    1.8141 H   0  0  0  0  0  0  0  0  0  0  0  0
   -2.5993   -6.2182    2.0163 H   0  0  0  0  0  0  0  0  0  0  0  0
   -2.7752   -6.1970    3.8118 H   0  0  0  0  0  0  0  0  0  0  0  0
   -3.9513   -4.0717    1.8949 H   0  0  0  0  0  0  0  0  0  0  0  0
   -4.2471   -4.1861    3.6734 H   0  0  0  0  0  0  0  0  0  0  0  0
   -1.4932   -3.8281    2.3461 H   0  0  0  0  0  0  0  0  0  0  0  0
   -1.7749   -4.1304    4.1043 H   0  0  0  0  0  0  0  0  0  0  0  0
   -3.1402   -1.9907    4.2426 H   0  0  0  0  0  0  0  0  0  0  0  0
   -2.7482   -1.7088    2.5166 H   0  0  0  0  0  0  0  0  0  0  0  0
   -0.8242   -1.9545    4.9525 H   0  0  0  0  0  0  0  0  0  0  0  0
   -0.2030   -1.9589    3.2680 H   0  0  0  0  0  0  0  0  0  0  0  0
   -1.6800    0.3996    4.5719 H   0  0  0  0  0  0  0  0  0  0  0  0
    0.0878    0.2612    4.3226 H   0  0  0  0  0  0  0  0  0  0  0  0
   -1.9569    1.2067    2.4303 H   0  0  0  0  0  0  0  0  0  0  0  0
   -1.2938   -0.2961    1.7909 H   0  0  0  0  0  0  0  0  0  0  0  0
    0.4289    3.0619    3.0059 H   0  0  0  0  0  0  0  0  0  0  0  0
    2.4509    4.6035    1.7646 H   0  0  0  0  0  0  0  0  0  0  0  0
    3.6212    3.4276    1.0509 H   0  0  0  0  0  0  0  0  0  0  0  0
    2.9983    4.9129   -2.9494 H   0  0  0  0  0  0  0  0  0  0  0  0
    2.0021    6.2788   -2.3082 H   0  0  0  0  0  0  0  0  0  0  0  0
    3.7729    6.4923   -2.5699 H   0  0  0  0  0  0  0  0  0  0  0  0
    3.4425    1.3530   -0.6445 H   0  0  0  0  0  0  0  0  0  0  0  0
    2.0590    0.4192   -1.3454 H   0  0  0  0  0  0  0  0  0  0  0  0
    2.1500    2.1956   -1.6033 H   0  0  0  0  0  0  0  0  0  0  0  0
  1 22  1  0  0  0  0
  1 23  1  0  0  0  0
  1 24  1  0  0  0  0
  2  1  1  0  0  0  0
  2 25  1  0  0  0  0
  2 26  1  0  0  0  0
  3  2  1  0  0  0  0
  3 27  1  0  0  0  0
  3 28  1  0  0  0  0
  4  3  1  0  0  0  0
  4 29  1  0  0  0  0
  4 30  1  0  0  0  0
  5  4  1  0  0  0  0
  5 31  1  0  0  0  0
  5 32  1  0  0  0  0
  6  5  1  0  0  0  0
  6 33  1  0  0  0  0
  6 34  1  0  0  0  0
  7  6  1  0  0  0  0
  7 35  1  0  0  0  0
  7 36  1  0  0  0  0
  8  7  1  0  0  0  0
  8 37  1  0  0  0  0
  8 38  1  0  0  0  0
  9  8  1  0  0  0  0
  9 39  1  0  0  0  0
  9 40  1  0  0  0  0
 10  9  1  0  0  0  0
 10 41  1  0  0  0  0
 10 42  1  0  0  0  0
 11 10  1  0  0  0  0
 12 11  1  0  0  0  0
 12 43  1  0  0  0  0
 13 12  2  0  0  0  0
 14 13  1  0  0  0  0
 14 44  1  0  0  0  0
 14 45  1  0  0  0  0
 15 14  1  0  0  0  0
 16 15  1  0  0  0  0
 17 16  1  0  0  0  0
 17 46  1  0  0  0  0
 17 47  1  0  0  0  0
 17 48  1  0  0  0  0
 18 16  2  0  0  0  0
 19 13  1  0  0  0  0
 20 19  1  0  0  0  0
 20 49  1  0  0  0  0
 20 50  1  0  0  0  0
 20 51  1  0  0  0  0
 21 19  2  0  0  0  0
 21 11  1  0  0  0  0
M  CHG  1  19   1
M  END
>  <MOL Chiral Flag>
0

>  <energy>
33.715254997396869

$$$$
> 100_AKC_ph15040446
>99.sdf
 OpenBabel10052218303D

 62 68  0  0  0  0  0  0  0  0999 V2000
   -2.9237   -1.6839    1.0387 C   0  0  0  0  0  0  0  0  0  0  0  0
   -3.4117   -1.8879    2.3159 O   0  0  0  0  0  0  0  0  0  0  0  0
   -3.2891   -1.0177    3.3501 C   0  0  0  0  0  0  0  0  0  0  0  0
   -2.5350   -1.3077    4.4238 N   0  0  0  0  0  0  0  0  0  0  0  0
   -2.6595   -0.2783    5.2439 N   0  0  0  0  0  0  0  0  0  0  0  0
   -3.4732    0.6186    4.7097 N   0  0  0  0  0  0  0  0  0  0  0  0
   -3.8925    0.1936    3.5260 N   0  0  0  0  0  0  0  0  0  0  0  0
   -4.8333    0.9827    2.7428 C   0  0  0  0  0  0  0  0  0  0  0  0
   -5.2800    0.6020    1.4639 C   0  0  0  0  0  0  0  0  0  0  0  0
   -6.1711    1.4066    0.7455 C   0  0  0  0  0  0  0  0  0  0  0  0
   -6.6507    2.5923    1.2979 C   0  0  0  0  0  0  0  0  0  0  0  0
   -6.2398    2.9789    2.5712 C   0  0  0  0  0  0  0  0  0  0  0  0
   -5.3364    2.1879    3.2869 C   0  0  0  0  0  0  0  0  0  0  0  0
   -1.8178   -2.7128    0.7009 C   0  0  1  0  0  0  0  0  0  0  0  0
   -1.4151   -2.6319   -0.7900 C   0  0  0  0  0  0  0  0  0  0  0  0
   -0.7059   -1.3056   -1.1112 C   0  0  0  0  0  0  0  0  0  0  0  0
    0.5436   -1.1294   -0.2231 C   0  0  1  0  0  0  0  0  0  0  0  0
    0.1831   -1.2373    1.2733 C   0  0  0  0  0  0  0  0  0  0  0  0
   -0.5507   -2.5567    1.5742 C   0  0  0  0  0  0  0  0  0  0  0  0
    1.5008   -2.0996   -0.5474 O   0  0  0  0  0  0  0  0  0  0  0  0
    2.2817   -1.5285   -1.4493 O   0  0  0  0  0  0  0  0  0  0  0  0
    2.2989   -0.1657   -1.1170 C   0  0  1  0  0  0  0  0  0  0  0  0
    1.1070    0.1225   -0.4517 O   0  0  0  0  0  0  0  0  0  0  0  0
    3.5167    0.1569   -0.2079 C   0  0  2  0  0  0  0  0  0  0  0  0
    3.4956    1.6570    0.1718 C   0  0  0  0  0  0  0  0  0  0  0  0
    3.5692    2.5176   -1.1103 C   0  0  1  0  0  0  0  0  0  0  0  0
    4.8794    2.2013   -1.8635 C   0  0  0  0  0  0  0  0  0  0  0  0
    4.9058    0.7051   -2.2478 C   0  0  1  0  0  0  0  0  0  0  0  0
    4.8294   -0.1554   -0.9658 C   0  0  0  0  0  0  0  0  0  0  0  0
    3.6986    0.3867   -3.1592 C   0  0  0  0  0  0  0  0  0  0  0  0
    2.3835    0.6966   -2.4056 C   0  0  2  0  0  0  0  0  0  0  0  0
    2.3639    2.1982   -2.0247 C   0  0  0  0  0  0  0  0  0  0  0  0
   -2.5748   -0.6388    0.9151 H   0  0  0  0  0  0  0  0  0  0  0  0
   -3.7493   -1.8708    0.3215 H   0  0  0  0  0  0  0  0  0  0  0  0
   -4.9616   -0.2967    1.0075 H   0  0  0  0  0  0  0  0  0  0  0  0
   -6.4930    1.1052   -0.2433 H   0  0  0  0  0  0  0  0  0  0  0  0
   -7.3449    3.2086    0.7411 H   0  0  0  0  0  0  0  0  0  0  0  0
   -6.6197    3.8946    3.0060 H   0  0  0  0  0  0  0  0  0  0  0  0
   -5.0354    2.5161    4.2730 H   0  0  0  0  0  0  0  0  0  0  0  0
   -2.2501   -3.7225    0.8817 H   0  0  0  0  0  0  0  0  0  0  0  0
   -0.7254   -3.4729   -1.0243 H   0  0  0  0  0  0  0  0  0  0  0  0
   -2.3114   -2.7494   -1.4367 H   0  0  0  0  0  0  0  0  0  0  0  0
   -0.4155   -1.2870   -2.1840 H   0  0  0  0  0  0  0  0  0  0  0  0
   -1.4018   -0.4570   -0.9503 H   0  0  0  0  0  0  0  0  0  0  0  0
    1.1066   -1.1716    1.8889 H   0  0  0  0  0  0  0  0  0  0  0  0
   -0.4622   -0.3821    1.5618 H   0  0  0  0  0  0  0  0  0  0  0  0
    0.1395   -3.4014    1.3549 H   0  0  0  0  0  0  0  0  0  0  0  0
   -0.8088   -2.6147    2.6522 H   0  0  0  0  0  0  0  0  0  0  0  0
    3.4684   -0.4576    0.7177 H   0  0  0  0  0  0  0  0  0  0  0  0
    2.5674    1.8960    0.7358 H   0  0  0  0  0  0  0  0  0  0  0  0
    4.3565    1.8910    0.8355 H   0  0  0  0  0  0  0  0  0  0  0  0
    3.5510    3.5944   -0.8349 H   0  0  0  0  0  0  0  0  0  0  0  0
    4.9507    2.8296   -2.7785 H   0  0  0  0  0  0  0  0  0  0  0  0
    5.7537    2.4431   -1.2199 H   0  0  0  0  0  0  0  0  0  0  0  0
    5.8494    0.4800   -2.7905 H   0  0  0  0  0  0  0  0  0  0  0  0
    5.7031    0.0608   -0.3128 H   0  0  0  0  0  0  0  0  0  0  0  0
    4.8711   -1.2343   -1.2316 H   0  0  0  0  0  0  0  0  0  0  0  0
    3.7547    0.9968   -4.0877 H   0  0  0  0  0  0  0  0  0  0  0  0
    3.7238   -0.6827   -3.4620 H   0  0  0  0  0  0  0  0  0  0  0  0
    1.5167    0.4728   -3.0657 H   0  0  0  0  0  0  0  0  0  0  0  0
    1.4156    2.4497   -1.5012 H   0  0  0  0  0  0  0  0  0  0  0  0
    2.4098    2.8232   -2.9434 H   0  0  0  0  0  0  0  0  0  0  0  0
  1 33  1  0  0  0  0
  1 34  1  0  0  0  0
  2  1  1  0  0  0  0
  3  2  1  0  0  0  0
  4  3  2  0  0  0  0
  5  4  1  0  0  0  0
  6  5  2  0  0  0  0
  7  6  1  0  0  0  0
  7  3  1  0  0  0  0
  8  7  1  0  0  0  0
  9  8  2  0  0  0  0
  9 35  1  0  0  0  0
 10  9  1  0  0  0  0
 10 36  1  0  0  0  0
 11 10  2  0  0  0  0
 11 37  1  0  0  0  0
 12 11  1  0  0  0  0
 12 38  1  0  0  0  0
 13 12  2  0  0  0  0
 13  8  1  0  0  0  0
 13 39  1  0  0  0  0
 14  1  1  0  0  0  0
 14 40  1  1  0  0  0
 15 14  1  0  0  0  0
 15 41  1  0  0  0  0
 15 42  1  0  0  0  0
 16 15  1  0  0  0  0
 16 43  1  0  0  0  0
 16 44  1  0  0  0  0
 17 16  1  6  0  0  0
 18 17  1  0  0  0  0
 18 45  1  0  0  0  0
 18 46  1  0  0  0  0
 19 18  1  0  0  0  0
 19 14  1  0  0  0  0
 19 47  1  0  0  0  0
 19 48  1  0  0  0  0
 20 17  1  0  0  0  0
 21 20  1  0  0  0  0
 22 21  1  6  0  0  0
 23 22  1  0  0  0  0
 23 17  1  0  0  0  0
 24 22  1  0  0  0  0
 24 49  1  1  0  0  0
 25 24  1  0  0  0  0
 25 50  1  0  0  0  0
 25 51  1  0  0  0  0
 26 25  1  0  0  0  0
 26 52  1  1  0  0  0
 27 26  1  0  0  0  0
 27 53  1  0  0  0  0
 27 54  1  0  0  0  0
 28 27  1  0  0  0  0
 28 55  1  6  0  0  0
 29 28  1  0  0  0  0
 29 24  1  0  0  0  0
 29 56  1  0  0  0  0
 29 57  1  0  0  0  0
 30 28  1  0  0  0  0
 30 58  1  0  0  0  0
 30 59  1  0  0  0  0
 31 30  1  0  0  0  0
 31 22  1  0  0  0  0
 31 60  1  6  0  0  0
 32 31  1  0  0  0  0
 32 26  1  0  0  0  0
 32 61  1  0  0  0  0
 32 62  1  0  0  0  0
M  END
>  <MOL Chiral Flag>
0

>  <energy>
119.39498301197388

$$$$
> 101_AKC_s11686-021-00457-6
>100.sdf
 OpenBabel10052218303D

 47 48  0  0  0  0  0  0  0  0999 V2000
    3.7923   -2.9020   -0.1748 C   0  0  0  0  0  0  0  0  0  0  0  0
    2.5450   -3.3355    0.5824 C   0  0  0  0  0  0  0  0  0  0  0  0
    1.5679   -2.3700    0.4253 O   0  0  0  0  0  0  0  0  0  0  0  0
    0.3524   -2.5638   -0.1539 C   0  0  0  0  0  0  0  0  0  0  0  0
    0.0117   -3.6864   -0.4956 O   0  0  0  0  0  0  0  0  0  0  0  0
   -0.5147   -1.3629   -0.4238 C   0  0  0  0  0  0  0  0  0  0  0  0
   -1.6784   -1.4214   -1.1327 C   0  0  0  0  0  0  0  0  0  0  0  0
   -2.2309   -2.7181   -1.6807 C   0  0  0  0  0  0  0  0  0  0  0  0
   -2.4133   -0.2306   -1.3967 N   0  0  0  0  0  0  0  0  0  0  0  0
   -1.9559    1.0651   -1.0281 C   0  0  0  0  0  0  0  0  0  0  0  0
   -2.8400    2.2304   -1.4161 C   0  0  0  0  0  0  0  0  0  0  0  0
   -0.8010    1.2066   -0.3181 C   0  0  0  0  0  0  0  0  0  0  0  0
   -0.0151   -0.0261    0.1174 C   0  0  1  0  0  0  0  0  0  0  0  0
    0.0447   -0.0927    1.6342 C   0  0  0  0  0  0  0  0  0  0  0  0
   -1.1317   -0.2638    2.3878 C   0  0  0  0  0  0  0  0  0  0  0  0
   -1.0728   -0.3166    3.7848 C   0  0  0  0  0  0  0  0  0  0  0  0
   -2.5434   -0.5284    4.7170 Cl  0  0  0  0  0  0  0  0  0  0  0  0
    0.1579   -0.1988    4.4383 C   0  0  0  0  0  0  0  0  0  0  0  0
    1.3302   -0.0294    3.6976 C   0  0  0  0  0  0  0  0  0  0  0  0
    1.2772    0.0233    2.3021 C   0  0  0  0  0  0  0  0  0  0  0  0
   -0.2294    2.5499    0.0594 C   0  0  0  0  0  0  0  0  0  0  0  0
    0.3461    2.6711    1.1284 O   0  0  0  0  0  0  0  0  0  0  0  0
   -0.1832    3.5988   -0.8059 O   0  0  0  0  0  0  0  0  0  0  0  0
   -0.0478    3.4796   -2.1795 C   0  0  0  0  0  0  0  0  0  0  0  0
    1.2463    4.1574   -2.6064 C   0  0  0  0  0  0  0  0  0  0  0  0
    4.5968   -3.6556   -0.0443 H   0  0  0  0  0  0  0  0  0  0  0  0
    4.1491   -1.9214    0.2066 H   0  0  0  0  0  0  0  0  0  0  0  0
    3.5623   -2.8052   -1.2578 H   0  0  0  0  0  0  0  0  0  0  0  0
    2.7836   -3.4345    1.6620 H   0  0  0  0  0  0  0  0  0  0  0  0
    2.2247   -4.3296    0.2015 H   0  0  0  0  0  0  0  0  0  0  0  0
   -1.5135   -3.1715   -2.3965 H   0  0  0  0  0  0  0  0  0  0  0  0
   -2.4498   -3.4228   -0.8509 H   0  0  0  0  0  0  0  0  0  0  0  0
   -3.1811   -2.5508   -2.2292 H   0  0  0  0  0  0  0  0  0  0  0  0
   -3.2981   -0.3018   -1.9221 H   0  0  0  0  0  0  0  0  0  0  0  0
   -3.8547    2.0566   -1.0007 H   0  0  0  0  0  0  0  0  0  0  0  0
   -2.9177    2.2825   -2.5223 H   0  0  0  0  0  0  0  0  0  0  0  0
   -2.5205    3.2123   -1.0271 H   0  0  0  0  0  0  0  0  0  0  0  0
    1.0035    0.1127   -0.3091 H   0  0  0  0  0  0  0  0  0  0  0  0
   -2.0887   -0.3535    1.8882 H   0  0  0  0  0  0  0  0  0  0  0  0
    0.2061   -0.2376    5.5191 H   0  0  0  0  0  0  0  0  0  0  0  0
    2.2814    0.0629    4.2055 H   0  0  0  0  0  0  0  0  0  0  0  0
    2.1938    0.1578    1.7415 H   0  0  0  0  0  0  0  0  0  0  0  0
   -0.9038    3.9730   -2.6846 H   0  0  0  0  0  0  0  0  0  0  0  0
    0.0012    2.4174   -2.5049 H   0  0  0  0  0  0  0  0  0  0  0  0
    1.3739    4.0735   -3.7060 H   0  0  0  0  0  0  0  0  0  0  0  0
    1.2264    5.2313   -2.3241 H   0  0  0  0  0  0  0  0  0  0  0  0
    2.1109    3.6687   -2.1071 H   0  0  0  0  0  0  0  0  0  0  0  0
  1 26  1  0  0  0  0
  1 27  1  0  0  0  0
  1 28  1  0  0  0  0
  2  1  1  0  0  0  0
  2 29  1  0  0  0  0
  2 30  1  0  0  0  0
  3  2  1  0  0  0  0
  4  3  1  0  0  0  0
  5  4  2  0  0  0  0
  6  4  1  0  0  0  0
  7  6  2  0  0  0  0
  8  7  1  0  0  0  0
  8 31  1  0  0  0  0
  8 32  1  0  0  0  0
  8 33  1  0  0  0  0
  9  7  1  0  0  0  0
  9 34  1  0  0  0  0
 10  9  1  0  0  0  0
 11 10  1  0  0  0  0
 11 35  1  0  0  0  0
 11 36  1  0  0  0  0
 11 37  1  0  0  0  0
 12 10  2  0  0  0  0
 13 12  1  0  0  0  0
 13  6  1  0  0  0  0
 13 38  1  6  0  0  0
 14 13  1  0  0  0  0
 15 14  2  0  0  0  0
 15 39  1  0  0  0  0
 16 15  1  0  0  0  0
 17 16  1  0  0  0  0
 18 16  2  0  0  0  0
 18 40  1  0  0  0  0
 19 18  1  0  0  0  0
 19 41  1  0  0  0  0
 20 19  2  0  0  0  0
 20 14  1  0  0  0  0
 20 42  1  0  0  0  0
 21 12  1  0  0  0  0
 22 21  2  0  0  0  0
 23 21  1  0  0  0  0
 24 23  1  0  0  0  0
 24 43  1  0  0  0  0
 24 44  1  0  0  0  0
 25 24  1  0  0  0  0
 25 45  1  0  0  0  0
 25 46  1  0  0  0  0
 25 47  1  0  0  0  0
M  END
>  <MOL Chiral Flag>
0

>  <energy>
22.408078555883804

$$$$
> 102_AKC_j.ejmech.2021.113915
>101.sdf
 OpenBabel10052218303D

 39 42  0  0  0  0  0  0  0  0999 V2000
   -4.1459   -1.7590   -0.3585 C   0  0  0  0  0  0  0  0  0  0  0  0
   -3.2546   -1.6058    0.8702 C   0  0  0  0  0  0  0  0  0  0  0  0
   -1.9667   -0.8703    0.5524 C   0  0  0  0  0  0  0  0  0  0  0  0
   -1.8607    0.5409    0.5570 C   0  0  0  0  0  0  0  0  0  0  0  0
   -3.0327    1.4709    0.8024 C   0  0  0  0  0  0  0  0  0  0  0  0
   -2.6791    2.6282    1.7377 C   0  0  0  0  0  0  0  0  0  0  0  0
   -0.6544    1.1048    0.2890 N   0  0  0  0  0  0  0  0  0  0  0  0
    0.4392    0.4018   -0.0136 N   0  3  0  0  0  0  0  0  0  0  0  0
    0.3726   -0.9663   -0.1175 C   0  0  0  0  0  0  0  0  0  0  0  0
   -0.8359   -1.6171    0.1864 C   0  0  0  0  0  0  0  0  0  0  0  0
    1.5179   -1.6652   -0.5386 C   0  0  0  0  0  0  0  0  0  0  0  0
    1.6581   -3.0244   -0.7698 C   0  0  0  0  0  0  0  0  0  0  0  0
    2.9419   -3.2095   -1.2333 C   0  0  0  0  0  0  0  0  0  0  0  0
    3.5511   -1.9705   -1.2552 C   0  0  0  0  0  0  0  0  0  0  0  0
    5.3390   -1.7745   -1.9285 Br  0  0  0  0  0  0  0  0  0  0  0  0
    2.6773   -1.0206   -0.8084 N   0  0  0  0  0  0  0  0  0  0  0  0
    2.7919    0.3388   -0.6162 C   0  0  0  0  0  0  0  0  0  0  0  0
    1.6304    1.0621   -0.2178 C   0  0  0  0  0  0  0  0  0  0  0  0
    1.7171    2.4570   -0.0133 C   0  0  0  0  0  0  0  0  0  0  0  0
    2.9280    3.1226   -0.1685 C   0  0  0  0  0  0  0  0  0  0  0  0
    4.0692    2.4207   -0.5414 C   0  0  0  0  0  0  0  0  0  0  0  0
    5.5966    3.2697   -0.7031 Cl  0  0  0  0  0  0  0  0  0  0  0  0
    4.0069    1.0439   -0.7740 C   0  0  0  0  0  0  0  0  0  0  0  0
   -5.0519   -2.3419   -0.0855 H   0  0  0  0  0  0  0  0  0  0  0  0
   -3.6021   -2.3143   -1.1533 H   0  0  0  0  0  0  0  0  0  0  0  0
   -4.4609   -0.7705   -0.7507 H   0  0  0  0  0  0  0  0  0  0  0  0
   -3.7983   -1.1276    1.7103 H   0  0  0  0  0  0  0  0  0  0  0  0
   -3.0119   -2.6251    1.2402 H   0  0  0  0  0  0  0  0  0  0  0  0
   -3.9326    0.9552    1.1837 H   0  0  0  0  0  0  0  0  0  0  0  0
   -3.3050    1.9222   -0.1751 H   0  0  0  0  0  0  0  0  0  0  0  0
   -1.8418    3.2257    1.3125 H   0  0  0  0  0  0  0  0  0  0  0  0
   -2.3929    2.2591    2.7428 H   0  0  0  0  0  0  0  0  0  0  0  0
   -3.5551    3.3056    1.8318 H   0  0  0  0  0  0  0  0  0  0  0  0
   -0.9098   -2.6955    0.1304 H   0  0  0  0  0  0  0  0  0  0  0  0
    0.9177   -3.8027   -0.6489 H   0  0  0  0  0  0  0  0  0  0  0  0
    3.3865   -4.1469   -1.5428 H   0  0  0  0  0  0  0  0  0  0  0  0
    0.8528    3.0311    0.2934 H   0  0  0  0  0  0  0  0  0  0  0  0
    2.9802    4.1882    0.0149 H   0  0  0  0  0  0  0  0  0  0  0  0
    4.9178    0.5594   -1.0409 H   0  0  0  0  0  0  0  0  0  0  0  0
  1 24  1  0  0  0  0
  1 25  1  0  0  0  0
  1 26  1  0  0  0  0
  2  1  1  0  0  0  0
  2 27  1  0  0  0  0
  2 28  1  0  0  0  0
  3  2  1  0  0  0  0
  4  3  2  0  0  0  0
  5  4  1  0  0  0  0
  5 29  1  0  0  0  0
  5 30  1  0  0  0  0
  6  5  1  0  0  0  0
  6 31  1  0  0  0  0
  6 32  1  0  0  0  0
  6 33  1  0  0  0  0
  7  4  1  0  0  0  0
  8  7  2  0  0  0  0
  9  8  1  0  0  0  0
 10  9  2  0  0  0  0
 10  3  1  0  0  0  0
 10 34  1  0  0  0  0
 11  9  1  0  0  0  0
 12 11  2  0  0  0  0
 12 35  1  0  0  0  0
 13 12  1  0  0  0  0
 13 36  1  0  0  0  0
 14 13  2  0  0  0  0
 15 14  1  0  0  0  0
 16 14  1  0  0  0  0
 16 11  1  0  0  0  0
 17 16  1  0  0  0  0
 18 17  2  0  0  0  0
 18  8  1  0  0  0  0
 19 18  1  0  0  0  0
 19 37  1  0  0  0  0
 20 19  2  0  0  0  0
 20 38  1  0  0  0  0
 21 20  1  0  0  0  0
 22 21  1  0  0  0  0
 23 21  2  0  0  0  0
 23 17  1  0  0  0  0
 23 39  1  0  0  0  0
M  CHG  1   8   1
M  END
>  <MOL Chiral Flag>
0

>  <energy>
102.90215211361759

$$$$
> 103_AKC_j.cbi.2021.109690
>102.sdf
 OpenBabel10052218313D

 26 26  0  0  0  0  0  0  0  0999 V2000
    3.5464   -1.2320   -0.9631 C   0  0  0  0  0  0  0  0  0  0  0  0
    2.1969   -1.1134   -0.3086 C   0  0  0  0  0  0  0  0  0  0  0  0
    1.5563   -2.1428   -0.1511 O   0  0  0  0  0  0  0  0  0  0  0  0
    1.6705    0.0855    0.1259 N   0  0  0  0  0  0  0  0  0  0  0  0
    0.3483    0.1865    0.7614 C   0  0  2  0  0  0  0  0  0  0  0  0
   -0.7823   -0.1704   -0.2327 C   0  0  0  0  0  0  0  0  0  0  0  0
   -2.1774   -0.1741    0.4163 C   0  0  0  0  0  0  0  0  0  0  0  0
   -3.2783   -0.5083   -0.5646 C   0  0  0  0  0  0  0  0  0  0  0  0
   -4.5583   -0.5919   -0.1360 N   0  0  0  0  0  0  0  0  0  0  0  0
   -3.0236   -0.7011   -1.7453 O   0  0  0  0  0  0  0  0  0  0  0  0
    0.3245    1.6672    1.1290 C   0  0  0  0  0  0  0  0  0  0  0  0
   -0.5820    2.2261    1.7263 O   0  0  0  0  0  0  0  0  0  0  0  0
    1.4272    2.3158    0.7236 N   0  0  0  0  0  0  0  0  0  0  0  0
    2.2583    1.3865    0.1030 C   0  0  0  0  0  0  0  0  0  0  0  0
    3.5454    1.7433   -0.4389 S   0  0  0  0  0  0  0  0  0  0  0  0
    3.7568   -2.2917   -1.2241 H   0  0  0  0  0  0  0  0  0  0  0  0
    3.5662   -0.6439   -1.9039 H   0  0  0  0  0  0  0  0  0  0  0  0
    4.3441   -0.8951   -0.2697 H   0  0  0  0  0  0  0  0  0  0  0  0
    0.3125   -0.4528    1.6709 H   0  0  0  0  0  0  0  0  0  0  0  0
   -0.7530    0.5445   -1.0851 H   0  0  0  0  0  0  0  0  0  0  0  0
   -0.6183   -1.1899   -0.6362 H   0  0  0  0  0  0  0  0  0  0  0  0
   -2.4079    0.8173    0.8535 H   0  0  0  0  0  0  0  0  0  0  0  0
   -2.1861   -0.9330    1.2291 H   0  0  0  0  0  0  0  0  0  0  0  0
   -5.3162   -0.8156   -0.7980 H   0  0  0  0  0  0  0  0  0  0  0  0
   -4.7887   -0.4367    0.8563 H   0  0  0  0  0  0  0  0  0  0  0  0
    1.6186    3.3197    0.8620 H   0  0  0  0  0  0  0  0  0  0  0  0
  1 16  1  0  0  0  0
  1 17  1  0  0  0  0
  1 18  1  0  0  0  0
  2  1  1  0  0  0  0
  3  2  2  0  0  0  0
  4  2  1  0  0  0  0
  5  4  1  0  0  0  0
  5 19  1  1  0  0  0
  6  5  1  0  0  0  0
  6 20  1  0  0  0  0
  6 21  1  0  0  0  0
  7  6  1  0  0  0  0
  7 22  1  0  0  0  0
  7 23  1  0  0  0  0
  8  7  1  0  0  0  0
  9  8  1  0  0  0  0
  9 24  1  0  0  0  0
  9 25  1  0  0  0  0
 10  8  2  0  0  0  0
 11  5  1  0  0  0  0
 12 11  2  0  0  0  0
 13 11  1  0  0  0  0
 13 26  1  0  0  0  0
 14 13  1  0  0  0  0
 14  4  1  0  0  0  0
 15 14  2  0  0  0  0
M  END
>  <MOL Chiral Flag>
0

>  <energy>
-88.067529017320084

$$$$
> 104_AKC_j.cbi.2021.109690
>103.sdf
 OpenBabel10062217383D

 33 35  0  0  0  0  0  0  0  0999 V2000
    2.2503   -3.2976   -0.5364 C   0  0  0  0  0  0  0  0  0  0  0  0
    1.6170   -1.9646   -0.2435 C   0  0  0  0  0  0  0  0  0  0  0  0
    0.4353   -1.8389   -0.5191 O   0  0  0  0  0  0  0  0  0  0  0  0
    2.3168   -0.8833    0.2534 N   0  0  0  0  0  0  0  0  0  0  0  0
    1.7155    0.4478    0.4476 C   0  0  1  0  0  0  0  0  0  0  0  0
    0.7900    0.5786    1.6857 C   0  0  0  0  0  0  0  0  0  0  0  0
   -0.4545   -0.2631    1.7221 C   0  0  0  0  0  0  0  0  0  0  0  0
   -1.4839   -0.2924    0.7846 C   0  0  0  0  0  0  0  0  0  0  0  0
   -2.4442   -1.1587    1.1852 N   0  0  0  0  0  0  0  0  0  0  0  0
   -2.0448   -1.6579    2.3687 C   0  0  0  0  0  0  0  0  0  0  0  0
   -2.7222   -2.5700    3.1767 C   0  0  0  0  0  0  0  0  0  0  0  0
   -2.1282   -2.9383    4.3988 C   0  0  0  0  0  0  0  0  0  0  0  0
   -0.8803   -2.3938    4.7776 C   0  0  0  0  0  0  0  0  0  0  0  0
   -0.2183   -1.4816    3.9358 C   0  0  0  0  0  0  0  0  0  0  0  0
   -0.8329   -1.1327    2.7302 C   0  0  0  0  0  0  0  0  0  0  0  0
    2.9627    1.2762    0.7372 C   0  0  0  0  0  0  0  0  0  0  0  0
    2.9651    2.4819    0.9307 O   0  0  0  0  0  0  0  0  0  0  0  0
    4.0752    0.5310    0.7977 N   0  0  0  0  0  0  0  0  0  0  0  0
    3.7180   -0.7857    0.5235 C   0  0  0  0  0  0  0  0  0  0  0  0
    4.6808   -1.8568    0.4991 S   0  0  0  0  0  0  0  0  0  0  0  0
    3.0550   -3.1804   -1.2927 H   0  0  0  0  0  0  0  0  0  0  0  0
    2.6439   -3.7535    0.3942 H   0  0  0  0  0  0  0  0  0  0  0  0
    1.4994   -3.9961   -0.9656 H   0  0  0  0  0  0  0  0  0  0  0  0
    1.2250    0.7961   -0.4877 H   0  0  0  0  0  0  0  0  0  0  0  0
    0.4632    1.6393    1.7467 H   0  0  0  0  0  0  0  0  0  0  0  0
    1.3880    0.3635    2.5956 H   0  0  0  0  0  0  0  0  0  0  0  0
   -1.5264    0.2778   -0.1340 H   0  0  0  0  0  0  0  0  0  0  0  0
   -3.3287   -1.3846    0.6780 H   0  0  0  0  0  0  0  0  0  0  0  0
   -3.6803   -2.9765    2.8806 H   0  0  0  0  0  0  0  0  0  0  0  0
   -2.6310   -3.6373    5.0546 H   0  0  0  0  0  0  0  0  0  0  0  0
   -0.4327   -2.6761    5.7219 H   0  0  0  0  0  0  0  0  0  0  0  0
    0.7335   -1.0616    4.2300 H   0  0  0  0  0  0  0  0  0  0  0  0
    5.0238    0.8823    1.0044 H   0  0  0  0  0  0  0  0  0  0  0  0
  1 21  1  0  0  0  0
  1 22  1  0  0  0  0
  1 23  1  0  0  0  0
  2  1  1  0  0  0  0
  3  2  2  0  0  0  0
  4  2  1  0  0  0  0
  5  4  1  0  0  0  0
  5 24  1  6  0  0  0
  6  5  1  0  0  0  0
  6 25  1  0  0  0  0
  6 26  1  0  0  0  0
  7  6  1  0  0  0  0
  8  7  2  0  0  0  0
  8 27  1  0  0  0  0
  9  8  1  0  0  0  0
  9 28  1  0  0  0  0
 10  9  1  0  0  0  0
 11 10  2  0  0  0  0
 11 29  1  0  0  0  0
 12 11  1  0  0  0  0
 12 30  1  0  0  0  0
 13 12  2  0  0  0  0
 13 31  1  0  0  0  0
 14 13  1  0  0  0  0
 14 32  1  0  0  0  0
 15 14  2  0  0  0  0
 15  7  1  0  0  0  0
 15 10  1  0  0  0  0
 16  5  1  0  0  0  0
 17 16  2  0  0  0  0
 18 16  1  0  0  0  0
 18 33  1  0  0  0  0
 19 18  1  0  0  0  0
 19  4  1  0  0  0  0
 20 19  2  0  0  0  0
M  END
>  <MOL Chiral Flag>
0

>  <energy>
-38.271435361011726

$$$$
> 105_AKC_14756366.2022.2117316
>104.sdf
 OpenBabel10052218313D

 56 60  0  0  0  0  0  0  0  0999 V2000
    3.5895    0.6785    3.3682 C   0  0  0  0  0  0  0  0  0  0  0  0
    2.2691    0.9899    2.7238 C   0  0  0  0  0  0  0  0  0  0  0  0
    1.3102    1.2836    3.4262 O   0  0  0  0  0  0  0  0  0  0  0  0
    2.1276    0.9242    1.3717 N   0  0  0  0  0  0  0  0  0  0  0  0
    3.2025    0.7692    0.5417 N   0  0  0  0  0  0  0  0  0  0  0  0
    2.8483    0.8220   -0.6821 C   0  0  0  0  0  0  0  0  0  0  0  0
    1.3658    0.9631   -0.8328 C   0  0  0  0  0  0  0  0  0  0  0  0
    0.9327    1.2564    0.6332 C   0  0  1  0  0  0  0  0  0  0  0  0
   -0.3964    0.5711    0.8775 C   0  0  0  0  0  0  0  0  0  0  0  0
   -1.5746    1.2211    0.5686 C   0  0  0  0  0  0  0  0  0  0  0  0
   -2.5837    0.3299    0.5840 N   0  0  0  0  0  0  0  0  0  0  0  0
   -2.1043   -0.8663    0.8852 N   0  0  0  0  0  0  0  0  0  0  0  0
   -0.7722   -0.7640    1.0745 C   0  0  0  0  0  0  0  0  0  0  0  0
    0.0535   -1.9611    1.3280 C   0  0  0  0  0  0  0  0  0  0  0  0
   -0.1415   -3.1061    0.5386 C   0  0  0  0  0  0  0  0  0  0  0  0
    0.6019   -4.2652    0.7787 C   0  0  0  0  0  0  0  0  0  0  0  0
    1.5225   -4.3011    1.8284 C   0  0  0  0  0  0  0  0  0  0  0  0
    1.7021   -3.1764    2.6362 C   0  0  0  0  0  0  0  0  0  0  0  0
    0.9746   -2.0097    2.3839 C   0  0  0  0  0  0  0  0  0  0  0  0
   -3.9580    0.5618    0.2039 C   0  0  0  0  0  0  0  0  0  0  0  0
   -4.8931   -0.4859    0.2836 C   0  0  0  0  0  0  0  0  0  0  0  0
   -6.2114   -0.2955   -0.1392 C   0  0  0  0  0  0  0  0  0  0  0  0
   -6.6162    0.9437   -0.6552 C   0  0  0  0  0  0  0  0  0  0  0  0
   -8.0188    1.1489   -1.1447 C   0  0  0  0  0  0  0  0  0  0  0  0
   -5.6952    1.9958   -0.7256 C   0  0  0  0  0  0  0  0  0  0  0  0
   -4.3782    1.8115   -0.2978 C   0  0  0  0  0  0  0  0  0  0  0  0
    3.7944    0.7467   -1.8237 C   0  0  0  0  0  0  0  0  0  0  0  0
    3.3245    0.4304   -3.1134 C   0  0  0  0  0  0  0  0  0  0  0  0
    4.2048    0.3988   -4.1982 C   0  0  0  0  0  0  0  0  0  0  0  0
    5.5541    0.7054   -4.0136 C   0  0  0  0  0  0  0  0  0  0  0  0
    6.0294    1.0292   -2.7398 C   0  0  0  0  0  0  0  0  0  0  0  0
    5.1575    1.0392   -1.6446 C   0  0  0  0  0  0  0  0  0  0  0  0
    3.5200    0.7559    4.4737 H   0  0  0  0  0  0  0  0  0  0  0  0
    4.3666    1.3826    3.0049 H   0  0  0  0  0  0  0  0  0  0  0  0
    3.8900   -0.3599    3.1079 H   0  0  0  0  0  0  0  0  0  0  0  0
    1.0434    1.7881   -1.5034 H   0  0  0  0  0  0  0  0  0  0  0  0
    1.0052   -0.0195   -1.2115 H   0  0  0  0  0  0  0  0  0  0  0  0
    0.8006    2.3561    0.7540 H   0  0  0  0  0  0  0  0  0  0  0  0
   -1.6559    2.2590    0.2788 H   0  0  0  0  0  0  0  0  0  0  0  0
   -0.8577   -3.0925   -0.2739 H   0  0  0  0  0  0  0  0  0  0  0  0
    0.4581   -5.1376    0.1552 H   0  0  0  0  0  0  0  0  0  0  0  0
    2.0868   -5.2036    2.0234 H   0  0  0  0  0  0  0  0  0  0  0  0
    2.3957   -3.2121    3.4667 H   0  0  0  0  0  0  0  0  0  0  0  0
    1.0939   -1.1746    3.0433 H   0  0  0  0  0  0  0  0  0  0  0  0
   -4.5985   -1.4557    0.6630 H   0  0  0  0  0  0  0  0  0  0  0  0
   -6.9117   -1.1189   -0.0770 H   0  0  0  0  0  0  0  0  0  0  0  0
   -8.6306    0.2289   -1.0305 H   0  0  0  0  0  0  0  0  0  0  0  0
   -7.9962    1.4197   -2.2220 H   0  0  0  0  0  0  0  0  0  0  0  0
   -8.5010    1.9695   -0.5741 H   0  0  0  0  0  0  0  0  0  0  0  0
   -5.9959    2.9570   -1.1249 H   0  0  0  0  0  0  0  0  0  0  0  0
   -3.6935    2.6410   -0.3846 H   0  0  0  0  0  0  0  0  0  0  0  0
    2.2806    0.1985   -3.2808 H   0  0  0  0  0  0  0  0  0  0  0  0
    3.8376    0.1446   -5.1846 H   0  0  0  0  0  0  0  0  0  0  0  0
    6.2302    0.6962   -4.8589 H   0  0  0  0  0  0  0  0  0  0  0  0
    7.0731    1.2801   -2.6026 H   0  0  0  0  0  0  0  0  0  0  0  0
    5.5381    1.3083   -0.6673 H   0  0  0  0  0  0  0  0  0  0  0  0
  1 33  1  0  0  0  0
  1 34  1  0  0  0  0
  1 35  1  0  0  0  0
  2  1  1  0  0  0  0
  3  2  2  0  0  0  0
  4  2  1  0  0  0  0
  5  4  1  0  0  0  0
  6  5  2  0  0  0  0
  7  6  1  0  0  0  0
  7 36  1  0  0  0  0
  7 37  1  0  0  0  0
  8  7  1  0  0  0  0
  8  4  1  0  0  0  0
  8 38  1  1  0  0  0
  9  8  1  0  0  0  0
 10  9  2  0  0  0  0
 10 39  1  0  0  0  0
 11 10  1  0  0  0  0
 12 11  1  0  0  0  0
 13 12  2  0  0  0  0
 13  9  1  0  0  0  0
 14 13  1  0  0  0  0
 15 14  2  0  0  0  0
 15 40  1  0  0  0  0
 16 15  1  0  0  0  0
 16 41  1  0  0  0  0
 17 16  2  0  0  0  0
 17 42  1  0  0  0  0
 18 17  1  0  0  0  0
 18 43  1  0  0  0  0
 19 18  2  0  0  0  0
 19 14  1  0  0  0  0
 19 44  1  0  0  0  0
 20 11  1  0  0  0  0
 21 20  2  0  0  0  0
 21 45  1  0  0  0  0
 22 21  1  0  0  0  0
 22 46  1  0  0  0  0
 23 22  2  0  0  0  0
 24 23  1  0  0  0  0
 24 47  1  0  0  0  0
 24 48  1  0  0  0  0
 24 49  1  0  0  0  0
 25 23  1  0  0  0  0
 25 50  1  0  0  0  0
 26 25  2  0  0  0  0
 26 20  1  0  0  0  0
 26 51  1  0  0  0  0
 27  6  1  0  0  0  0
 28 27  2  0  0  0  0
 28 52  1  0  0  0  0
 29 28  1  0  0  0  0
 29 53  1  0  0  0  0
 30 29  2  0  0  0  0
 30 54  1  0  0  0  0
 31 30  1  0  0  0  0
 31 55  1  0  0  0  0
 32 31  2  0  0  0  0
 32 27  1  0  0  0  0
 32 56  1  0  0  0  0
M  END
>  <MOL Chiral Flag>
0

>  <energy>
129.20975808746491

$$$$
> 106_AKC_14756366.2022.2117316
>104_2.sdf
 OpenBabel10102212393D

 56 60  0  0  0  0  0  0  0  0999 V2000
    2.9656    2.0337    3.0926 C   0  0  0  0  0  0  0  0  0  0  0  0
    1.9582    1.1445    2.4167 C   0  0  0  0  0  0  0  0  0  0  0  0
    1.0798    0.6244    3.0866 O   0  0  0  0  0  0  0  0  0  0  0  0
    2.0344    0.9107    1.0757 N   0  0  0  0  0  0  0  0  0  0  0  0
    3.0655    1.3607    0.3105 N   0  0  0  0  0  0  0  0  0  0  0  0
    2.9247    0.9930   -0.9053 C   0  0  0  0  0  0  0  0  0  0  0  0
    1.6183    0.2677   -1.1201 C   0  0  0  0  0  0  0  0  0  0  0  0
    1.2640   -0.0699    0.3480 C   0  0  2  0  0  0  0  0  0  0  0  0
   -0.2133   -0.2545    0.6074 C   0  0  0  0  0  0  0  0  0  0  0  0
   -1.2425    0.6193    0.2992 C   0  0  0  0  0  0  0  0  0  0  0  0
   -2.4178   -0.0221    0.5099 N   0  0  0  0  0  0  0  0  0  0  0  0
   -2.1744   -1.2469    0.9549 N   0  0  0  0  0  0  0  0  0  0  0  0
   -0.8436   -1.4184    1.0489 C   0  0  0  0  0  0  0  0  0  0  0  0
   -0.2362   -2.7072    1.4832 C   0  0  0  0  0  0  0  0  0  0  0  0
   -0.9306   -3.9058    1.2407 C   0  0  0  0  0  0  0  0  0  0  0  0
   -0.3702   -5.1352    1.6019 C   0  0  0  0  0  0  0  0  0  0  0  0
    0.8770   -5.1814    2.2276 C   0  0  0  0  0  0  0  0  0  0  0  0
    1.5615   -3.9986    2.5046 C   0  0  0  0  0  0  0  0  0  0  0  0
    1.0115   -2.7684    2.1395 C   0  0  0  0  0  0  0  0  0  0  0  0
   -3.7576    0.4424    0.2247 C   0  0  0  0  0  0  0  0  0  0  0  0
   -4.8485   -0.4305    0.4095 C   0  0  0  0  0  0  0  0  0  0  0  0
   -6.1473   -0.0288    0.0927 C   0  0  0  0  0  0  0  0  0  0  0  0
   -6.3852    1.2552   -0.4127 C   0  0  0  0  0  0  0  0  0  0  0  0
   -7.7775    1.6841   -0.7758 C   0  0  0  0  0  0  0  0  0  0  0  0
   -5.3093    2.1379   -0.5872 C   0  0  0  0  0  0  0  0  0  0  0  0
   -4.0035    1.7374   -0.2731 C   0  0  0  0  0  0  0  0  0  0  0  0
    3.9518    1.1977   -1.9548 C   0  0  0  0  0  0  0  0  0  0  0  0
    3.6715    0.8658   -3.2938 C   0  0  0  0  0  0  0  0  0  0  0  0
    4.6572    0.9953   -4.2750 C   0  0  0  0  0  0  0  0  0  0  0  0
    5.9325    1.4470   -3.9310 C   0  0  0  0  0  0  0  0  0  0  0  0
    6.2221    1.7807   -2.6053 C   0  0  0  0  0  0  0  0  0  0  0  0
    5.2366    1.6626   -1.6190 C   0  0  0  0  0  0  0  0  0  0  0  0
    2.7597    2.1051    4.1824 H   0  0  0  0  0  0  0  0  0  0  0  0
    2.9306    3.0518    2.6533 H   0  0  0  0  0  0  0  0  0  0  0  0
    3.9837    1.6106    2.9567 H   0  0  0  0  0  0  0  0  0  0  0  0
    0.9227    1.0078   -1.5728 H   0  0  0  0  0  0  0  0  0  0  0  0
    1.6695   -0.6625   -1.7255 H   0  0  0  0  0  0  0  0  0  0  0  0
    1.7967   -1.0190    0.5141 H   0  0  0  0  0  0  0  0  0  0  0  0
   -1.1320    1.6124   -0.1138 H   0  0  0  0  0  0  0  0  0  0  0  0
   -1.8935   -3.8908    0.7453 H   0  0  0  0  0  0  0  0  0  0  0  0
   -0.9017   -6.0534    1.3910 H   0  0  0  0  0  0  0  0  0  0  0  0
    1.3104   -6.1331    2.5050 H   0  0  0  0  0  0  0  0  0  0  0  0
    2.5210   -4.0322    3.0048 H   0  0  0  0  0  0  0  0  0  0  0  0
    1.5574   -1.8754    2.3971 H   0  0  0  0  0  0  0  0  0  0  0  0
   -4.6926   -1.4334    0.7854 H   0  0  0  0  0  0  0  0  0  0  0  0
   -6.9660   -0.7244    0.2327 H   0  0  0  0  0  0  0  0  0  0  0  0
   -8.5167    0.8746   -0.5915 H   0  0  0  0  0  0  0  0  0  0  0  0
   -7.8160    1.9469   -1.8543 H   0  0  0  0  0  0  0  0  0  0  0  0
   -8.0695    2.5694   -0.1740 H   0  0  0  0  0  0  0  0  0  0  0  0
   -5.4833    3.1333   -0.9771 H   0  0  0  0  0  0  0  0  0  0  0  0
   -3.1954    2.4361   -0.4303 H   0  0  0  0  0  0  0  0  0  0  0  0
    2.6940    0.5010   -3.5810 H   0  0  0  0  0  0  0  0  0  0  0  0
    4.4335    0.7346   -5.3015 H   0  0  0  0  0  0  0  0  0  0  0  0
    6.6977    1.5333   -4.6914 H   0  0  0  0  0  0  0  0  0  0  0  0
    7.2144    2.1210   -2.3398 H   0  0  0  0  0  0  0  0  0  0  0  0
    5.4838    1.9074   -0.5936 H   0  0  0  0  0  0  0  0  0  0  0  0
  1 33  1  0  0  0  0
  1 34  1  0  0  0  0
  1 35  1  0  0  0  0
  2  1  1  0  0  0  0
  3  2  2  0  0  0  0
  4  2  1  0  0  0  0
  5  4  1  0  0  0  0
  6  5  2  0  0  0  0
  7  6  1  0  0  0  0
  7 36  1  0  0  0  0
  7 37  1  0  0  0  0
  8  7  1  0  0  0  0
  8  4  1  0  0  0  0
  8 38  1  1  0  0  0
  9  8  1  0  0  0  0
 10  9  2  0  0  0  0
 10 39  1  0  0  0  0
 11 10  1  0  0  0  0
 12 11  1  0  0  0  0
 13 12  2  0  0  0  0
 13  9  1  0  0  0  0
 14 13  1  0  0  0  0
 15 14  2  0  0  0  0
 15 40  1  0  0  0  0
 16 15  1  0  0  0  0
 16 41  1  0  0  0  0
 17 16  2  0  0  0  0
 17 42  1  0  0  0  0
 18 17  1  0  0  0  0
 18 43  1  0  0  0  0
 19 18  2  0  0  0  0
 19 14  1  0  0  0  0
 19 44  1  0  0  0  0
 20 11  1  0  0  0  0
 21 20  2  0  0  0  0
 21 45  1  0  0  0  0
 22 21  1  0  0  0  0
 22 46  1  0  0  0  0
 23 22  2  0  0  0  0
 24 23  1  0  0  0  0
 24 47  1  0  0  0  0
 24 48  1  0  0  0  0
 24 49  1  0  0  0  0
 25 23  1  0  0  0  0
 25 50  1  0  0  0  0
 26 25  2  0  0  0  0
 26 20  1  0  0  0  0
 26 51  1  0  0  0  0
 27  6  1  0  0  0  0
 28 27  2  0  0  0  0
 28 52  1  0  0  0  0
 29 28  1  0  0  0  0
 29 53  1  0  0  0  0
 30 29  2  0  0  0  0
 30 54  1  0  0  0  0
 31 30  1  0  0  0  0
 31 55  1  0  0  0  0
 32 31  2  0  0  0  0
 32 27  1  0  0  0  0
 32 56  1  0  0  0  0
M  END
>  <MOL Chiral Flag>
0

>  <energy>
129.20975808746491

$$$$
> 107_AKC_14756366.2022.2117316
>105.sdf
 OpenBabel10052218313D

 59 63  0  0  0  0  0  0  0  0999 V2000
    3.6673   -2.9519    0.3599 C   0  0  0  0  0  0  0  0  0  0  0  0
    2.6942   -2.4206   -0.6893 C   0  0  0  0  0  0  0  0  0  0  0  0
    2.8073   -0.8978   -0.8160 C   0  0  0  0  0  0  0  0  0  0  0  0
    1.9031   -0.3498   -1.9021 C   0  0  0  0  0  0  0  0  0  0  0  0
    2.0693   -0.7477   -3.0464 O   0  0  0  0  0  0  0  0  0  0  0  0
    0.9624    0.6150   -1.6614 N   0  0  0  0  0  0  0  0  0  0  0  0
    0.3125    1.2350   -2.6852 N   0  0  0  0  0  0  0  0  0  0  0  0
   -0.4041    2.2024   -2.2687 C   0  0  0  0  0  0  0  0  0  0  0  0
   -0.3656    2.3345   -0.7657 C   0  0  0  0  0  0  0  0  0  0  0  0
    0.6782    1.2444   -0.3884 C   0  0  1  0  0  0  0  0  0  0  0  0
    0.2021    0.3532    0.7512 C   0  0  0  0  0  0  0  0  0  0  0  0
    0.4391    0.6973    2.0685 C   0  0  0  0  0  0  0  0  0  0  0  0
    0.0128   -0.3018    2.8661 N   0  0  0  0  0  0  0  0  0  0  0  0
   -0.4858   -1.2735    2.1197 N   0  0  0  0  0  0  0  0  0  0  0  0
   -0.4080   -0.9139    0.8208 C   0  0  0  0  0  0  0  0  0  0  0  0
   -0.9388   -1.8111   -0.2423 C   0  0  0  0  0  0  0  0  0  0  0  0
   -1.0592   -3.1908    0.0237 C   0  0  0  0  0  0  0  0  0  0  0  0
   -1.5586   -4.0622   -0.9483 C   0  0  0  0  0  0  0  0  0  0  0  0
   -1.9616   -3.5684   -2.1891 C   0  0  0  0  0  0  0  0  0  0  0  0
   -1.8732   -2.2014   -2.4556 C   0  0  0  0  0  0  0  0  0  0  0  0
   -1.3679   -1.3277   -1.4877 C   0  0  0  0  0  0  0  0  0  0  0  0
    0.0723   -0.3627    4.3089 C   0  0  0  0  0  0  0  0  0  0  0  0
    0.5635    0.7188    5.0699 C   0  0  0  0  0  0  0  0  0  0  0  0
    0.6073    0.6397    6.4653 C   0  0  0  0  0  0  0  0  0  0  0  0
    0.1666   -0.5137    7.1188 C   0  0  0  0  0  0  0  0  0  0  0  0
    0.2249   -0.6077    8.8695 Cl  0  0  0  0  0  0  0  0  0  0  0  0
   -0.3214   -1.5916    6.3764 C   0  0  0  0  0  0  0  0  0  0  0  0
   -0.3707   -1.5185    4.9813 C   0  0  0  0  0  0  0  0  0  0  0  0
   -1.1890    3.0715   -3.1834 C   0  0  0  0  0  0  0  0  0  0  0  0
   -1.1960    2.8264   -4.5699 C   0  0  0  0  0  0  0  0  0  0  0  0
   -1.9178    3.6594   -5.4305 C   0  0  0  0  0  0  0  0  0  0  0  0
   -2.6345    4.7437   -4.9195 C   0  0  0  0  0  0  0  0  0  0  0  0
   -2.6351    4.9956   -3.5459 C   0  0  0  0  0  0  0  0  0  0  0  0
   -1.9187    4.1645   -2.6789 C   0  0  0  0  0  0  0  0  0  0  0  0
    3.4475   -2.5050    1.3530 H   0  0  0  0  0  0  0  0  0  0  0  0
    4.7128   -2.7068    0.0738 H   0  0  0  0  0  0  0  0  0  0  0  0
    3.5702   -4.0552    0.4360 H   0  0  0  0  0  0  0  0  0  0  0  0
    2.9270   -2.9002   -1.6648 H   0  0  0  0  0  0  0  0  0  0  0  0
    1.6643   -2.6996   -0.3947 H   0  0  0  0  0  0  0  0  0  0  0  0
    2.6104   -0.4371    0.1700 H   0  0  0  0  0  0  0  0  0  0  0  0
    3.8522   -0.6394   -1.0939 H   0  0  0  0  0  0  0  0  0  0  0  0
   -1.3860    2.1026   -0.3897 H   0  0  0  0  0  0  0  0  0  0  0  0
   -0.0329    3.3375   -0.4226 H   0  0  0  0  0  0  0  0  0  0  0  0
    1.6268    1.7410   -0.0822 H   0  0  0  0  0  0  0  0  0  0  0  0
    0.9135    1.6096    2.4006 H   0  0  0  0  0  0  0  0  0  0  0  0
   -0.7504   -3.5959    0.9794 H   0  0  0  0  0  0  0  0  0  0  0  0
   -1.6341   -5.1213   -0.7374 H   0  0  0  0  0  0  0  0  0  0  0  0
   -2.3528   -4.2432   -2.9394 H   0  0  0  0  0  0  0  0  0  0  0  0
   -2.2054   -1.8155   -3.4107 H   0  0  0  0  0  0  0  0  0  0  0  0
   -1.3508   -0.2805   -1.7028 H   0  0  0  0  0  0  0  0  0  0  0  0
    0.9091    1.6251    4.5966 H   0  0  0  0  0  0  0  0  0  0  0  0
    0.9841    1.4773    7.0386 H   0  0  0  0  0  0  0  0  0  0  0  0
   -0.6634   -2.4870    6.8798 H   0  0  0  0  0  0  0  0  0  0  0  0
   -0.7528   -2.3652    4.4257 H   0  0  0  0  0  0  0  0  0  0  0  0
   -0.6425    1.9938   -4.9857 H   0  0  0  0  0  0  0  0  0  0  0  0
   -1.9181    3.4660   -6.4955 H   0  0  0  0  0  0  0  0  0  0  0  0
   -3.1883    5.3900   -5.5882 H   0  0  0  0  0  0  0  0  0  0  0  0
   -3.1885    5.8383   -3.1519 H   0  0  0  0  0  0  0  0  0  0  0  0
   -1.9286    4.3820   -1.6190 H   0  0  0  0  0  0  0  0  0  0  0  0
  1 35  1  0  0  0  0
  1 36  1  0  0  0  0
  1 37  1  0  0  0  0
  2  1  1  0  0  0  0
  2 38  1  0  0  0  0
  2 39  1  0  0  0  0
  3  2  1  0  0  0  0
  3 40  1  0  0  0  0
  3 41  1  0  0  0  0
  4  3  1  0  0  0  0
  5  4  2  0  0  0  0
  6  4  1  0  0  0  0
  7  6  1  0  0  0  0
  8  7  2  0  0  0  0
  9  8  1  0  0  0  0
  9 42  1  0  0  0  0
  9 43  1  0  0  0  0
 10  9  1  0  0  0  0
 10  6  1  0  0  0  0
 10 44  1  1  0  0  0
 11 10  1  0  0  0  0
 12 11  2  0  0  0  0
 12 45  1  0  0  0  0
 13 12  1  0  0  0  0
 14 13  1  0  0  0  0
 15 14  2  0  0  0  0
 15 11  1  0  0  0  0
 16 15  1  0  0  0  0
 17 16  2  0  0  0  0
 17 46  1  0  0  0  0
 18 17  1  0  0  0  0
 18 47  1  0  0  0  0
 19 18  2  0  0  0  0
 19 48  1  0  0  0  0
 20 19  1  0  0  0  0
 20 49  1  0  0  0  0
 21 20  2  0  0  0  0
 21 16  1  0  0  0  0
 21 50  1  0  0  0  0
 22 13  1  0  0  0  0
 23 22  2  0  0  0  0
 23 51  1  0  0  0  0
 24 23  1  0  0  0  0
 24 52  1  0  0  0  0
 25 24  2  0  0  0  0
 26 25  1  0  0  0  0
 27 25  1  0  0  0  0
 27 53  1  0  0  0  0
 28 27  2  0  0  0  0
 28 22  1  0  0  0  0
 28 54  1  0  0  0  0
 29  8  1  0  0  0  0
 30 29  2  0  0  0  0
 30 55  1  0  0  0  0
 31 30  1  0  0  0  0
 31 56  1  0  0  0  0
 32 31  2  0  0  0  0
 32 57  1  0  0  0  0
 33 32  1  0  0  0  0
 33 58  1  0  0  0  0
 34 33  2  0  0  0  0
 34 29  1  0  0  0  0
 34 59  1  0  0  0  0
M  END
>  <MOL Chiral Flag>
0

>  <energy>
138.75621053823909

$$$$
> 108_AKC_acsmedchemlett.2c00170
>106.sdf
 OpenBabel10052218323D

 43 46  0  0  0  0  0  0  0  0999 V2000
    7.4982   -0.7435   -0.4629 N   0  0  0  0  0  0  0  0  0  0  0  0
    6.4804   -0.4288    0.4367 N   0  0  0  0  0  0  0  0  0  0  0  0
    5.2263    0.1147    0.0175 C   0  0  0  0  0  0  0  0  0  0  0  0
    4.9854    0.3614   -1.3005 N   0  0  0  0  0  0  0  0  0  0  0  0
    3.7998    0.8779   -1.7197 C   0  0  0  0  0  0  0  0  0  0  0  0
    2.8130    1.1445   -0.8245 N   0  0  0  0  0  0  0  0  0  0  0  0
    2.9899    0.9019    0.5024 C   0  0  0  0  0  0  0  0  0  0  0  0
    1.9806    1.1665    1.4538 C   0  0  0  0  0  0  0  0  0  0  0  0
    0.6789    1.6383    1.1083 N   0  0  0  0  0  0  0  0  0  0  0  0
   -0.1815    1.0541    0.1180 C   0  0  0  0  0  0  0  0  0  0  0  0
    0.1795   -0.0770   -0.6480 C   0  0  0  0  0  0  0  0  0  0  0  0
   -0.7285   -0.6446   -1.5433 C   0  0  0  0  0  0  0  0  0  0  0  0
   -2.0165   -0.1283   -1.6630 C   0  0  0  0  0  0  0  0  0  0  0  0
   -2.4095    0.9762   -0.8850 C   0  0  0  0  0  0  0  0  0  0  0  0
   -3.6792    1.4649   -0.9075 O   0  0  0  0  0  0  0  0  0  0  0  0
   -4.7970    0.7615   -1.3272 C   0  0  0  0  0  0  0  0  0  0  0  0
   -4.9813   -0.4690   -0.4682 C   0  0  0  0  0  0  0  0  0  0  0  0
   -5.1050   -0.3434    0.9234 C   0  0  0  0  0  0  0  0  0  0  0  0
   -5.2425   -1.4900    1.7098 C   0  0  0  0  0  0  0  0  0  0  0  0
   -5.2595   -2.7191    1.1282 N   0  0  0  0  0  0  0  0  0  0  0  0
   -5.1462   -2.8694   -0.2187 C   0  0  0  0  0  0  0  0  0  0  0  0
   -5.0053   -1.7487   -1.0415 C   0  0  0  0  0  0  0  0  0  0  0  0
   -1.4838    1.5684   -0.0196 C   0  0  0  0  0  0  0  0  0  0  0  0
    2.2650    0.9897    2.7731 N   0  0  0  0  0  0  0  0  0  0  0  0
    3.4635    0.5082    3.1887 C   0  0  0  0  0  0  0  0  0  0  0  0
    4.4269    0.2031    2.2848 N   0  0  0  0  0  0  0  0  0  0  0  0
    4.2225    0.3999    0.9557 C   0  0  0  0  0  0  0  0  0  0  0  0
    8.3361   -0.1752   -0.2046 H   0  0  0  0  0  0  0  0  0  0  0  0
    7.2307   -0.5052   -1.4432 H   0  0  0  0  0  0  0  0  0  0  0  0
    6.6404   -0.6189    1.4375 H   0  0  0  0  0  0  0  0  0  0  0  0
    3.6399    1.0727   -2.7712 H   0  0  0  0  0  0  0  0  0  0  0  0
    0.2156    2.2402    1.8065 H   0  0  0  0  0  0  0  0  0  0  0  0
    1.1392   -0.5519   -0.5491 H   0  0  0  0  0  0  0  0  0  0  0  0
   -0.4403   -1.5090   -2.1277 H   0  0  0  0  0  0  0  0  0  0  0  0
   -2.7043   -0.6046   -2.3463 H   0  0  0  0  0  0  0  0  0  0  0  0
   -4.7110    0.5070   -2.4055 H   0  0  0  0  0  0  0  0  0  0  0  0
   -5.6882    1.4134   -1.2110 H   0  0  0  0  0  0  0  0  0  0  0  0
   -5.0837    0.6323    1.3930 H   0  0  0  0  0  0  0  0  0  0  0  0
   -5.3300   -1.4024    2.7846 H   0  0  0  0  0  0  0  0  0  0  0  0
   -5.1603   -3.8607   -0.6517 H   0  0  0  0  0  0  0  0  0  0  0  0
   -4.9088   -1.8781   -2.1120 H   0  0  0  0  0  0  0  0  0  0  0  0
   -1.7964    2.4106    0.5862 H   0  0  0  0  0  0  0  0  0  0  0  0
    3.6472    0.3603    4.2438 H   0  0  0  0  0  0  0  0  0  0  0  0
  1 28  1  0  0  0  0
  1 29  1  0  0  0  0
  2  1  1  0  0  0  0
  2 30  1  0  0  0  0
  3  2  1  0  0  0  0
  4  3  2  0  0  0  0
  5  4  1  0  0  0  0
  5 31  1  0  0  0  0
  6  5  2  0  0  0  0
  7  6  1  0  0  0  0
  8  7  2  0  0  0  0
  9  8  1  0  0  0  0
  9 32  1  0  0  0  0
 10  9  1  0  0  0  0
 11 10  2  0  0  0  0
 11 33  1  0  0  0  0
 12 11  1  0  0  0  0
 12 34  1  0  0  0  0
 13 12  2  0  0  0  0
 13 35  1  0  0  0  0
 14 13  1  0  0  0  0
 15 14  1  0  0  0  0
 16 15  1  0  0  0  0
 16 36  1  0  0  0  0
 16 37  1  0  0  0  0
 17 16  1  0  0  0  0
 18 17  2  0  0  0  0
 18 38  1  0  0  0  0
 19 18  1  0  0  0  0
 19 39  1  0  0  0  0
 20 19  2  0  0  0  0
 21 20  1  0  0  0  0
 21 40  1  0  0  0  0
 22 21  2  0  0  0  0
 22 17  1  0  0  0  0
 22 41  1  0  0  0  0
 23 14  2  0  0  0  0
 23 10  1  0  0  0  0
 23 42  1  0  0  0  0
 24  8  1  0  0  0  0
 25 24  2  0  0  0  0
 25 43  1  0  0  0  0
 26 25  1  0  0  0  0
 27 26  2  0  0  0  0
 27  3  1  0  0  0  0
 27  7  1  0  0  0  0
M  END
>  <MOL Chiral Flag>
0

>  <energy>
109.54983533777747

$$$$
> 109_AKC_cmdc.202100413
>107.sdf
 OpenBabel10052218323D

 34 36  0  0  0  0  0  0  0  0999 V2000
    2.1952   -1.1557   -0.9735 C   0  0  0  0  0  0  0  0  0  0  0  0
    1.7092   -1.8096    0.3276 C   0  0  0  0  0  0  0  0  0  0  0  0
    0.6279   -2.7480    0.0592 N   0  0  0  0  0  0  0  0  0  0  0  0
   -0.6397   -2.4503   -0.5510 C   0  0  0  0  0  0  0  0  0  0  0  0
   -1.1064   -3.3695   -1.4441 N   0  0  0  0  0  0  0  0  0  0  0  0
   -2.2471   -3.2235   -2.1113 N   0  0  0  0  0  0  0  0  0  0  0  0
   -3.0404   -2.1453   -1.9296 C   0  0  0  0  0  0  0  0  0  0  0  0
   -2.6767   -1.1678   -1.0074 C   0  0  0  0  0  0  0  0  0  0  0  0
   -3.5319   -0.0752   -0.7884 C   0  0  0  0  0  0  0  0  0  0  0  0
   -3.2064    0.8908    0.1571 C   0  0  0  0  0  0  0  0  0  0  0  0
   -2.0334    0.7723    0.8934 C   0  0  0  0  0  0  0  0  0  0  0  0
   -1.1679   -0.3058    0.6838 C   0  0  0  0  0  0  0  0  0  0  0  0
   -1.4585   -1.2973   -0.2843 C   0  0  0  0  0  0  0  0  0  0  0  0
    3.3290   -0.1540   -0.7137 C   0  0  0  0  0  0  0  0  0  0  0  0
    2.8289    1.0103    0.0172 N   0  0  0  0  0  0  0  0  0  0  0  0
    3.2050    1.4316    1.2347 C   0  0  0  0  0  0  0  0  0  0  0  0
    2.4796    2.5637    1.5349 C   0  0  0  0  0  0  0  0  0  0  0  0
    1.6574    2.8468    0.5032 N   0  0  0  0  0  0  0  0  0  0  0  0
    1.8936    1.8819   -0.4089 C   0  0  0  0  0  0  0  0  0  0  0  0
    2.5717   -1.9611   -1.6421 H   0  0  0  0  0  0  0  0  0  0  0  0
    1.3615   -0.6398   -1.4942 H   0  0  0  0  0  0  0  0  0  0  0  0
    1.4873   -1.0866    1.1139 H   0  0  0  0  0  0  0  0  0  0  0  0
    2.5697   -2.3811    0.7410 H   0  0  0  0  0  0  0  0  0  0  0  0
    0.9090   -3.7409    0.0553 H   0  0  0  0  0  0  0  0  0  0  0  0
   -3.9659   -2.0665   -2.4867 H   0  0  0  0  0  0  0  0  0  0  0  0
   -4.4594    0.0197   -1.3411 H   0  0  0  0  0  0  0  0  0  0  0  0
   -3.8737    1.7254    0.3314 H   0  0  0  0  0  0  0  0  0  0  0  0
   -1.7949    1.5159    1.6436 H   0  0  0  0  0  0  0  0  0  0  0  0
   -0.3184   -0.3417    1.3123 H   0  0  0  0  0  0  0  0  0  0  0  0
    3.7483    0.1920   -1.6828 H   0  0  0  0  0  0  0  0  0  0  0  0
    4.1464   -0.6545   -0.1473 H   0  0  0  0  0  0  0  0  0  0  0  0
    3.9470    0.9515    1.8594 H   0  0  0  0  0  0  0  0  0  0  0  0
    2.5419    3.1475    2.4429 H   0  0  0  0  0  0  0  0  0  0  0  0
    1.3930    1.8204   -1.3668 H   0  0  0  0  0  0  0  0  0  0  0  0
  1 20  1  0  0  0  0
  1 21  1  0  0  0  0
  2  1  1  0  0  0  0
  2 22  1  0  0  0  0
  2 23  1  0  0  0  0
  3  2  1  0  0  0  0
  3 24  1  0  0  0  0
  4  3  1  0  0  0  0
  5  4  2  0  0  0  0
  6  5  1  0  0  0  0
  7  6  2  0  0  0  0
  7 25  1  0  0  0  0
  8  7  1  0  0  0  0
  9  8  2  0  0  0  0
  9 26  1  0  0  0  0
 10  9  1  0  0  0  0
 10 27  1  0  0  0  0
 11 10  2  0  0  0  0
 11 28  1  0  0  0  0
 12 11  1  0  0  0  0
 12 29  1  0  0  0  0
 13 12  2  0  0  0  0
 13  4  1  0  0  0  0
 13  8  1  0  0  0  0
 14  1  1  0  0  0  0
 14 30  1  0  0  0  0
 14 31  1  0  0  0  0
 15 14  1  0  0  0  0
 16 15  1  0  0  0  0
 16 32  1  0  0  0  0
 17 16  2  0  0  0  0
 17 33  1  0  0  0  0
 18 17  1  0  0  0  0
 19 18  2  0  0  0  0
 19 15  1  0  0  0  0
 19 34  1  0  0  0  0
M  END
>  <MOL Chiral Flag>
0

>  <energy>
32.092947652736207

$$$$
> 110_AKC_ijms222413613
>108.sdf
 OpenBabel10052218333D

 26 27  0  0  0  0  0  0  0  0999 V2000
    4.8015   -1.3980    0.0175 C   0  0  0  0  0  0  0  0  0  0  0  0
    3.7604   -1.1644   -0.8539 O   0  0  0  0  0  0  0  0  0  0  0  0
    2.4536   -1.1091   -0.4885 C   0  0  0  0  0  0  0  0  0  0  0  0
    2.1004   -1.5036    0.6170 O   0  0  0  0  0  0  0  0  0  0  0  0
    1.5514   -0.5974   -1.3653 N   0  0  0  0  0  0  0  0  0  0  0  0
    0.1467   -0.5244   -1.1315 C   0  0  0  0  0  0  0  0  0  0  0  0
   -0.5001   -1.1522   -0.1097 N   0  0  0  0  0  0  0  0  0  0  0  0
   -1.7985   -0.8479   -0.3133 C   0  0  0  0  0  0  0  0  0  0  0  0
   -1.9245   -0.0522   -1.4166 C   0  0  0  0  0  0  0  0  0  0  0  0
   -3.1681    0.4085   -1.8536 C   0  0  0  0  0  0  0  0  0  0  0  0
   -4.3066    0.0184   -1.1249 C   0  0  0  0  0  0  0  0  0  0  0  0
   -4.1774   -0.8132    0.0139 C   0  0  0  0  0  0  0  0  0  0  0  0
   -5.6089   -1.3005    0.9024 Cl  0  0  0  0  0  0  0  0  0  0  0  0
   -2.9038   -1.2534    0.4318 C   0  0  0  0  0  0  0  0  0  0  0  0
   -0.7049    0.1571   -1.9384 N   0  0  0  0  0  0  0  0  0  0  0  0
   -0.3406    0.9477   -3.1147 C   0  0  0  0  0  0  0  0  0  0  0  0
    5.7259   -1.3914   -0.5213 H   0  0  0  0  0  0  0  0  0  0  0  0
    4.6681   -2.3511    0.4853 H   0  0  0  0  0  0  0  0  0  0  0  0
    4.8191   -0.6330    0.7654 H   0  0  0  0  0  0  0  0  0  0  0  0
    1.8911   -0.2527   -2.2226 H   0  0  0  0  0  0  0  0  0  0  0  0
   -3.2495    1.0156   -2.6842 H   0  0  0  0  0  0  0  0  0  0  0  0
   -5.2411    0.3401   -1.4221 H   0  0  0  0  0  0  0  0  0  0  0  0
   -2.7945   -1.8562    1.2623 H   0  0  0  0  0  0  0  0  0  0  0  0
   -1.2233    1.3683   -3.5491 H   0  0  0  0  0  0  0  0  0  0  0  0
    0.1445    0.3182   -3.8312 H   0  0  0  0  0  0  0  0  0  0  0  0
    0.3236    1.7346   -2.8238 H   0  0  0  0  0  0  0  0  0  0  0  0
  1 17  1  0  0  0  0
  1 18  1  0  0  0  0
  1 19  1  0  0  0  0
  2  1  1  0  0  0  0
  3  2  1  0  0  0  0
  4  3  2  0  0  0  0
  5  3  1  0  0  0  0
  5 20  1  0  0  0  0
  6  5  1  0  0  0  0
  7  6  2  0  0  0  0
  8  7  1  0  0  0  0
  9  8  2  0  0  0  0
 10  9  1  0  0  0  0
 10 21  1  0  0  0  0
 11 10  2  0  0  0  0
 11 22  1  0  0  0  0
 12 11  1  0  0  0  0
 13 12  1  0  0  0  0
 14 12  2  0  0  0  0
 14  8  1  0  0  0  0
 14 23  1  0  0  0  0
 15  9  1  0  0  0  0
 15  6  1  0  0  0  0
 16 15  1  0  0  0  0
 16 24  1  0  0  0  0
 16 25  1  0  0  0  0
 16 26  1  0  0  0  0
M  END
>  <MOL Chiral Flag>
0

>  <energy>
-49.772227176518953

$$$$
> 111_AKC_molecules26247473
>109.sdf
 OpenBabel10042213283D

 22 24  0  0  0  0  0  0  0  0999 V2000
    3.0840    1.8718   -1.4393 O   0  0  0  0  0  0  0  0  0  0  0  0
    2.3851    1.1196   -0.7885 C   0  0  0  0  0  0  0  0  0  0  0  0
    1.2931    0.4430   -1.2416 O   0  0  0  0  0  0  0  0  0  0  0  0
    0.7471   -0.3314   -0.1493 C   0  0  2  0  0  0  0  0  0  0  0  0
    0.5001   -1.8296   -0.4580 C   0  0  0  0  0  0  0  0  0  0  0  0
   -0.8686   -1.7307    0.2359 C   0  0  0  0  0  0  0  0  0  0  0  0
   -0.7992   -0.1872    0.1175 C   0  0  1  0  0  0  0  0  0  0  0  0
   -1.1910    0.5416    1.3033 O   0  0  0  0  0  0  0  0  0  0  0  0
   -2.1207    1.4728    0.9512 C   0  0  0  0  0  0  0  0  0  0  0  0
   -2.6666    2.2606    1.6989 O   0  0  0  0  0  0  0  0  0  0  0  0
   -2.3620    1.3653   -0.4964 C   0  0  0  0  0  0  0  0  0  0  0  0
   -1.5944    0.3914   -0.9883 C   0  0  0  0  0  0  0  0  0  0  0  0
    1.6310   -0.0688    1.0080 C   0  0  0  0  0  0  0  0  0  0  0  0
    2.5850    0.7841    0.6302 C   0  0  0  0  0  0  0  0  0  0  0  0
    0.4339   -2.0519   -1.5300 H   0  0  0  0  0  0  0  0  0  0  0  0
    1.1924   -2.5463   -0.0051 H   0  0  0  0  0  0  0  0  0  0  0  0
   -1.6873   -2.2291   -0.2928 H   0  0  0  0  0  0  0  0  0  0  0  0
   -0.8630   -2.0921    1.2714 H   0  0  0  0  0  0  0  0  0  0  0  0
   -3.0524    2.0043   -1.0187 H   0  0  0  0  0  0  0  0  0  0  0  0
   -1.5431    0.0933   -2.0234 H   0  0  0  0  0  0  0  0  0  0  0  0
    1.5109   -0.4798    1.9978 H   0  0  0  0  0  0  0  0  0  0  0  0
    3.3856    1.1989    1.2172 H   0  0  0  0  0  0  0  0  0  0  0  0
  2  1  2  0  0  0  0
  3  2  1  0  0  0  0
  4  3  1  6  0  0  0
  5  4  1  0  0  0  0
  5 15  1  0  0  0  0
  5 16  1  0  0  0  0
  6  5  1  0  0  0  0
  6 17  1  0  0  0  0
  6 18  1  0  0  0  0
  7  6  1  1  0  0  0
  7  4  1  0  0  0  0
  8  7  1  0  0  0  0
  9  8  1  0  0  0  0
 10  9  2  0  0  0  0
 11  9  1  0  0  0  0
 11 19  1  0  0  0  0
 12 11  2  0  0  0  0
 12  7  1  0  0  0  0
 12 20  1  0  0  0  0
 13  4  1  0  0  0  0
 13 21  1  0  0  0  0
 14 13  2  0  0  0  0
 14  2  1  0  0  0  0
 14 22  1  0  0  0  0
M  END
>  <energy>
17.330201867384012

$$$$
> 112_AKC_j.bioorg.2021.105414
>110.sdf
 OpenBabel10052218333D

 50 54  0  0  0  0  0  0  0  0999 V2000
   -0.3594    1.9231    2.2051 O   0  0  0  0  0  0  0  0  0  0  0  0
   -0.4369    2.5886    1.1823 C   0  0  0  0  0  0  0  0  0  0  0  0
   -1.7258    3.3368    0.9098 C   0  0  0  0  0  0  0  0  0  0  0  0
   -2.8318    2.2796    0.7093 C   0  0  0  0  0  0  0  0  0  0  0  0
   -2.6044    1.4956   -0.6034 C   0  0  0  0  0  0  0  0  0  0  0  0
   -3.1257    0.0942   -0.5246 C   0  0  0  0  0  0  0  0  0  0  0  0
   -4.4386   -0.3120   -0.2983 C   0  0  0  0  0  0  0  0  0  0  0  0
   -4.3940   -1.6943   -0.2849 C   0  0  0  0  0  0  0  0  0  0  0  0
   -5.3941   -2.6442   -0.0910 C   0  0  0  0  0  0  0  0  0  0  0  0
   -5.0285   -4.0059   -0.1266 C   0  0  0  0  0  0  0  0  0  0  0  0
   -3.6829   -4.3802   -0.3546 C   0  0  0  0  0  0  0  0  0  0  0  0
   -2.6977   -3.3965   -0.5464 C   0  0  0  0  0  0  0  0  0  0  0  0
   -3.0937   -2.0635   -0.5032 C   0  0  0  0  0  0  0  0  0  0  0  0
   -2.3164   -0.9842   -0.6510 N   0  0  0  0  0  0  0  0  0  0  0  0
    0.5629    2.5652    0.2477 N   0  0  0  0  0  0  0  0  0  0  0  0
    1.6832    1.6583    0.3260 C   0  0  0  0  0  0  0  0  0  0  0  0
    1.7773    0.8240    1.3925 N   0  0  0  0  0  0  0  0  0  0  0  0
    2.7290   -0.1241    1.5305 C   0  0  0  0  0  0  0  0  0  0  0  0
    3.7105   -0.3006    0.5310 C   0  0  0  0  0  0  0  0  0  0  0  0
    4.6764   -1.3246    0.7195 C   0  0  0  0  0  0  0  0  0  0  0  0
    4.6463   -2.1291    1.8629 C   0  0  0  0  0  0  0  0  0  0  0  0
    3.6685   -1.9356    2.8351 C   0  0  0  0  0  0  0  0  0  0  0  0
    2.7133   -0.9364    2.6702 C   0  0  0  0  0  0  0  0  0  0  0  0
    3.6742    0.5499   -0.6143 C   0  0  0  0  0  0  0  0  0  0  0  0
    4.6183    0.4327   -1.6657 C   0  0  0  0  0  0  0  0  0  0  0  0
    4.5543    1.2639   -2.7799 C   0  0  0  0  0  0  0  0  0  0  0  0
    3.5614    2.2266   -2.8809 C   0  0  0  0  0  0  0  0  0  0  0  0
    2.6157    2.3725   -1.8699 C   0  0  0  0  0  0  0  0  0  0  0  0
    2.6476    1.5449   -0.7204 C   0  0  0  0  0  0  0  0  0  0  0  0
   -1.6646    3.9764    0.0026 H   0  0  0  0  0  0  0  0  0  0  0  0
   -1.9488    3.9875    1.7824 H   0  0  0  0  0  0  0  0  0  0  0  0
   -3.8469    2.7313    0.6855 H   0  0  0  0  0  0  0  0  0  0  0  0
   -2.7993    1.5974    1.5886 H   0  0  0  0  0  0  0  0  0  0  0  0
   -3.0251    2.0599   -1.4631 H   0  0  0  0  0  0  0  0  0  0  0  0
   -1.5207    1.3784   -0.8008 H   0  0  0  0  0  0  0  0  0  0  0  0
   -5.3053    0.3189   -0.1514 H   0  0  0  0  0  0  0  0  0  0  0  0
   -6.4196   -2.3482    0.0849 H   0  0  0  0  0  0  0  0  0  0  0  0
   -5.7794   -4.7700    0.0224 H   0  0  0  0  0  0  0  0  0  0  0  0
   -3.4084   -5.4268   -0.3800 H   0  0  0  0  0  0  0  0  0  0  0  0
   -1.6634   -3.6668   -0.7194 H   0  0  0  0  0  0  0  0  0  0  0  0
   -1.2851   -0.9794   -0.8214 H   0  0  0  0  0  0  0  0  0  0  0  0
    0.4241    3.1389   -0.5884 H   0  0  0  0  0  0  0  0  0  0  0  0
    5.4544   -1.5264    0.0048 H   0  0  0  0  0  0  0  0  0  0  0  0
    5.3856   -2.9090    1.9934 H   0  0  0  0  0  0  0  0  0  0  0  0
    3.6488   -2.5630    3.7171 H   0  0  0  0  0  0  0  0  0  0  0  0
    1.9525   -0.7948    3.4286 H   0  0  0  0  0  0  0  0  0  0  0  0
    5.4107   -0.2944   -1.6519 H   0  0  0  0  0  0  0  0  0  0  0  0
    5.2827    1.1578   -3.5737 H   0  0  0  0  0  0  0  0  0  0  0  0
    3.5216    2.8673   -3.7526 H   0  0  0  0  0  0  0  0  0  0  0  0
    1.8771    3.1399   -2.0143 H   0  0  0  0  0  0  0  0  0  0  0  0
  2  1  2  0  0  0  0
  3  2  1  0  0  0  0
  3 30  1  0  0  0  0
  3 31  1  0  0  0  0
  4  3  1  0  0  0  0
  4 32  1  0  0  0  0
  4 33  1  0  0  0  0
  5  4  1  0  0  0  0
  5 34  1  0  0  0  0
  5 35  1  0  0  0  0
  6  5  1  0  0  0  0
  7  6  2  0  0  0  0
  7 36  1  0  0  0  0
  8  7  1  0  0  0  0
  9  8  2  0  0  0  0
  9 37  1  0  0  0  0
 10  9  1  0  0  0  0
 10 38  1  0  0  0  0
 11 10  2  0  0  0  0
 11 39  1  0  0  0  0
 12 11  1  0  0  0  0
 12 40  1  0  0  0  0
 13 12  2  0  0  0  0
 13  8  1  0  0  0  0
 14 13  1  0  0  0  0
 14  6  1  0  0  0  0
 14 41  1  0  0  0  0
 15  2  1  0  0  0  0
 15 42  1  0  0  0  0
 16 15  1  0  0  0  0
 17 16  2  0  0  0  0
 18 17  1  0  0  0  0
 19 18  2  0  0  0  0
 20 19  1  0  0  0  0
 20 43  1  0  0  0  0
 21 20  2  0  0  0  0
 21 44  1  0  0  0  0
 22 21  1  0  0  0  0
 22 45  1  0  0  0  0
 23 22  2  0  0  0  0
 23 18  1  0  0  0  0
 23 46  1  0  0  0  0
 24 19  1  0  0  0  0
 25 24  2  0  0  0  0
 25 47  1  0  0  0  0
 26 25  1  0  0  0  0
 26 48  1  0  0  0  0
 27 26  2  0  0  0  0
 27 49  1  0  0  0  0
 28 27  1  0  0  0  0
 28 50  1  0  0  0  0
 29 28  2  0  0  0  0
 29 16  1  0  0  0  0
 29 24  1  0  0  0  0
M  END
>  <MOL Chiral Flag>
0

>  <energy>
45.819249396368228

$$$$
> 113_AKC_journal.pone.0258996
>111.sdf
 OpenBabel10052218333D

 44 47  0  0  0  0  0  0  0  0999 V2000
   -5.2457   -0.1368    0.7787 C   0  0  0  0  0  0  0  0  0  0  0  0
   -3.9918    0.7260    0.9574 C   0  0  2  0  0  0  0  0  0  0  0  0
   -3.8479    1.7639   -0.1128 C   0  0  0  0  0  0  0  0  0  0  0  0
   -3.2377    1.0765   -1.1540 O   0  0  0  0  0  0  0  0  0  0  0  0
   -2.3658    0.1719   -0.4945 C   0  0  2  0  0  0  0  0  0  0  0  0
   -2.3875   -1.1841   -1.2477 C   0  0  0  0  0  0  0  0  0  0  0  0
   -1.5017   -2.1753   -0.6300 N   0  0  0  0  0  0  0  0  0  0  0  0
   -0.1564   -2.1923   -0.6347 C   0  0  0  0  0  0  0  0  0  0  0  0
    0.3065   -3.2706    0.0248 N   0  0  0  0  0  0  0  0  0  0  0  0
   -0.8177   -3.9040    0.4238 C   0  0  0  0  0  0  0  0  0  0  0  0
   -1.9216   -3.2453    0.0207 N   0  0  0  0  0  0  0  0  0  0  0  0
   -2.8517   -0.0708    0.8226 O   0  0  0  0  0  0  0  0  0  0  0  0
   -0.9544    0.7738   -0.4346 C   0  0  0  0  0  0  0  0  0  0  0  0
   -0.2828    0.8470    0.8064 C   0  0  0  0  0  0  0  0  0  0  0  0
    1.0201    1.3267    0.8843 C   0  0  0  0  0  0  0  0  0  0  0  0
    1.6812    1.7644   -0.2648 C   0  0  0  0  0  0  0  0  0  0  0  0
    2.9637    2.1790   -0.1856 O   0  0  0  0  0  0  0  0  0  0  0  0
    3.9314    1.2829    0.1082 C   0  0  0  0  0  0  0  0  0  0  0  0
    4.5075    1.2492    1.3847 C   0  0  0  0  0  0  0  0  0  0  0  0
    5.4778    0.2866    1.6877 C   0  0  0  0  0  0  0  0  0  0  0  0
    5.8816   -0.6348    0.7130 C   0  0  0  0  0  0  0  0  0  0  0  0
    7.0916   -1.8459    1.0939 Cl  0  0  0  0  0  0  0  0  0  0  0  0
    5.3152   -0.5928   -0.5652 C   0  0  0  0  0  0  0  0  0  0  0  0
    4.3405    0.3605   -0.8657 C   0  0  0  0  0  0  0  0  0  0  0  0
    1.0244    1.7404   -1.4967 C   0  0  0  0  0  0  0  0  0  0  0  0
   -0.2823    1.2422   -1.5964 C   0  0  0  0  0  0  0  0  0  0  0  0
   -1.0296    1.2194   -3.1908 Cl  0  0  0  0  0  0  0  0  0  0  0  0
   -5.2629   -0.6349   -0.2115 H   0  0  0  0  0  0  0  0  0  0  0  0
   -6.1555    0.4934    0.8706 H   0  0  0  0  0  0  0  0  0  0  0  0
   -5.2757   -0.9140    1.5716 H   0  0  0  0  0  0  0  0  0  0  0  0
   -4.0380    1.2154    1.9544 H   0  0  0  0  0  0  0  0  0  0  0  0
   -4.8176    2.2224   -0.4029 H   0  0  0  0  0  0  0  0  0  0  0  0
   -3.1516    2.5696    0.2154 H   0  0  0  0  0  0  0  0  0  0  0  0
   -3.4280   -1.5683   -1.2142 H   0  0  0  0  0  0  0  0  0  0  0  0
   -2.1222   -1.0838   -2.3183 H   0  0  0  0  0  0  0  0  0  0  0  0
    0.4756   -1.4572   -1.1144 H   0  0  0  0  0  0  0  0  0  0  0  0
   -0.8284   -4.8238    0.9928 H   0  0  0  0  0  0  0  0  0  0  0  0
   -0.7504    0.5054    1.7195 H   0  0  0  0  0  0  0  0  0  0  0  0
    1.5238    1.3494    1.8426 H   0  0  0  0  0  0  0  0  0  0  0  0
    4.1900    1.9524    2.1442 H   0  0  0  0  0  0  0  0  0  0  0  0
    5.9104    0.2520    2.6792 H   0  0  0  0  0  0  0  0  0  0  0  0
    5.6239   -1.3016   -1.3230 H   0  0  0  0  0  0  0  0  0  0  0  0
    3.8980    0.3842   -1.8539 H   0  0  0  0  0  0  0  0  0  0  0  0
    1.5421    2.0818   -2.3847 H   0  0  0  0  0  0  0  0  0  0  0  0
  1 28  1  0  0  0  0
  1 29  1  0  0  0  0
  1 30  1  0  0  0  0
  2  1  1  0  0  0  0
  2 31  1  1  0  0  0
  3  2  1  0  0  0  0
  3 32  1  0  0  0  0
  3 33  1  0  0  0  0
  4  3  1  0  0  0  0
  5  4  1  0  0  0  0
  5  6  1  6  0  0  0
  6 34  1  0  0  0  0
  6 35  1  0  0  0  0
  7  6  1  0  0  0  0
  8  7  1  0  0  0  0
  8 36  1  0  0  0  0
  9  8  2  0  0  0  0
 10  9  1  0  0  0  0
 10 37  1  0  0  0  0
 11 10  2  0  0  0  0
 11  7  1  0  0  0  0
 12  5  1  0  0  0  0
 12  2  1  0  0  0  0
 13  5  1  0  0  0  0
 14 13  2  0  0  0  0
 14 38  1  0  0  0  0
 15 14  1  0  0  0  0
 15 39  1  0  0  0  0
 16 15  2  0  0  0  0
 17 16  1  0  0  0  0
 18 17  1  0  0  0  0
 19 18  2  0  0  0  0
 19 40  1  0  0  0  0
 20 19  1  0  0  0  0
 20 41  1  0  0  0  0
 21 20  2  0  0  0  0
 22 21  1  0  0  0  0
 23 21  1  0  0  0  0
 23 42  1  0  0  0  0
 24 23  2  0  0  0  0
 24 18  1  0  0  0  0
 24 43  1  0  0  0  0
 25 16  1  0  0  0  0
 25 44  1  0  0  0  0
 26 25  2  0  0  0  0
 26 13  1  0  0  0  0
 27 26  1  0  0  0  0
M  END
>  <MOL Chiral Flag>
0

>  <energy>
70.584561736730421

$$$$
> 114_AKC_journal.pone.0259008
>112.sdf
 OpenBabel10052218343D

 39 41  0  0  0  0  0  0  0  0999 V2000
   -0.2379    5.0477   -1.3688 N   0  0  0  0  0  0  0  0  0  0  0  0
    1.0592    5.4394   -1.4491 C   0  0  0  0  0  0  0  0  0  0  0  0
    1.3277    6.5275   -1.9367 O   0  0  0  0  0  0  0  0  0  0  0  0
    2.0672    4.6298   -1.0262 N   0  0  0  0  0  0  0  0  0  0  0  0
    1.8036    3.3917   -0.4824 N   0  0  0  0  0  0  0  0  0  0  0  0
    2.6726    2.4439   -0.5394 C   0  0  0  0  0  0  0  0  0  0  0  0
    2.3480    1.0926   -0.0342 C   0  0  0  0  0  0  0  0  0  0  0  0
    3.0748   -0.0051   -0.5157 C   0  0  0  0  0  0  0  0  0  0  0  0
    2.7357   -1.3025   -0.1225 C   0  0  0  0  0  0  0  0  0  0  0  0
    1.6847   -1.5171    0.7819 C   0  0  0  0  0  0  0  0  0  0  0  0
    1.3357   -2.7819    1.1180 O   0  0  0  0  0  0  0  0  0  0  0  0
    0.5300   -3.4931    0.2950 C   0  0  0  0  0  0  0  0  0  0  0  0
    0.9286   -4.5697   -0.4135 N   0  0  0  0  0  0  0  0  0  0  0  0
   -0.0953   -4.9149   -1.1510 O   0  0  0  0  0  0  0  0  0  0  0  0
   -1.1185   -4.1321   -0.9674 N   0  3  0  0  0  0  0  0  0  0  0  0
   -2.3044   -4.2889   -1.5570 O   0  0  0  0  0  0  0  0  0  0  0  0
   -0.7768   -3.2158   -0.0494 C   0  0  0  0  0  0  0  0  0  0  0  0
   -1.6682   -2.1766    0.4883 C   0  0  0  0  0  0  0  0  0  0  0  0
   -2.0144   -2.1926    1.8485 C   0  0  0  0  0  0  0  0  0  0  0  0
   -2.8942   -1.2337    2.3598 C   0  0  0  0  0  0  0  0  0  0  0  0
   -3.4101   -0.2406    1.5225 C   0  0  0  0  0  0  0  0  0  0  0  0
   -3.0566   -0.2124    0.1697 C   0  0  0  0  0  0  0  0  0  0  0  0
   -2.1992   -1.1872   -0.3519 C   0  0  0  0  0  0  0  0  0  0  0  0
    0.9885   -0.4196    1.3040 C   0  0  0  0  0  0  0  0  0  0  0  0
    1.3045    0.8789    0.8858 C   0  0  0  0  0  0  0  0  0  0  0  0
   -0.9863    5.6648   -1.7182 H   0  0  0  0  0  0  0  0  0  0  0  0
   -0.4997    4.1293   -0.9830 H   0  0  0  0  0  0  0  0  0  0  0  0
    3.0452    4.9353   -1.1575 H   0  0  0  0  0  0  0  0  0  0  0  0
    3.5989    2.5970   -1.0885 H   0  0  0  0  0  0  0  0  0  0  0  0
    3.8774    0.1422   -1.2289 H   0  0  0  0  0  0  0  0  0  0  0  0
    3.2808   -2.1433   -0.5331 H   0  0  0  0  0  0  0  0  0  0  0  0
   -3.0518   -3.7134   -1.3410 H   0  0  0  0  0  0  0  0  0  0  0  0
   -1.6263   -2.9642    2.5025 H   0  0  0  0  0  0  0  0  0  0  0  0
   -3.1785   -1.2627    3.4039 H   0  0  0  0  0  0  0  0  0  0  0  0
   -4.0858    0.5051    1.9212 H   0  0  0  0  0  0  0  0  0  0  0  0
   -3.4513    0.5617   -0.4753 H   0  0  0  0  0  0  0  0  0  0  0  0
   -1.9318   -1.1601   -1.4008 H   0  0  0  0  0  0  0  0  0  0  0  0
    0.1863   -0.5725    2.0107 H   0  0  0  0  0  0  0  0  0  0  0  0
    0.7376    1.7131    1.2797 H   0  0  0  0  0  0  0  0  0  0  0  0
  1 26  1  0  0  0  0
  1 27  1  0  0  0  0
  2  1  1  0  0  0  0
  3  2  2  0  0  0  0
  4  2  1  0  0  0  0
  4 28  1  0  0  0  0
  5  4  1  0  0  0  0
  6  5  2  0  0  0  0
  6 29  1  0  0  0  0
  7  6  1  0  0  0  0
  8  7  2  0  0  0  0
  8 30  1  0  0  0  0
  9  8  1  0  0  0  0
  9 31  1  0  0  0  0
 10  9  2  0  0  0  0
 11 10  1  0  0  0  0
 12 11  1  0  0  0  0
 13 12  2  0  0  0  0
 14 13  1  0  0  0  0
 15 14  1  0  0  0  0
 16 15  1  0  0  0  0
 16 32  1  0  0  0  0
 17 15  2  0  0  0  0
 17 12  1  0  0  0  0
 18 17  1  0  0  0  0
 19 18  2  0  0  0  0
 19 33  1  0  0  0  0
 20 19  1  0  0  0  0
 20 34  1  0  0  0  0
 21 20  2  0  0  0  0
 21 35  1  0  0  0  0
 22 21  1  0  0  0  0
 22 36  1  0  0  0  0
 23 22  2  0  0  0  0
 23 18  1  0  0  0  0
 23 37  1  0  0  0  0
 24 10  1  0  0  0  0
 24 38  1  0  0  0  0
 25 24  2  0  0  0  0
 25  7  1  0  0  0  0
 25 39  1  0  0  0  0
M  CHG  1  15   1
M  END
>  <MOL Chiral Flag>
0

>  <energy>
69.711321776894607

$$$$
> 115_AKC_j.intimp.2021.108130
>113.sdf
 OpenBabel10052218343D

 36 37  0  0  0  0  0  0  0  0999 V2000
   -1.1692   -2.0537   -2.7604 C   0  0  0  0  0  0  0  0  0  0  0  0
   -0.4458   -0.7230   -2.7705 C   0  0  0  0  0  0  0  0  0  0  0  0
    0.3220   -0.4677   -3.8472 C   0  0  0  0  0  0  0  0  0  0  0  0
   -0.5538    0.3544   -1.6642 C   0  0  2  0  0  0  0  0  0  0  0  0
    0.8749    0.6570   -1.0976 C   0  0  0  0  0  0  0  0  0  0  0  0
    0.8164    1.6518    0.0212 C   0  0  0  0  0  0  0  0  0  0  0  0
   -0.3376    2.0538    0.6392 C   0  0  0  0  0  0  0  0  0  0  0  0
   -1.6919    1.5093    0.3137 C   0  0  0  0  0  0  0  0  0  0  0  0
   -1.5946    0.1603   -0.4839 C   0  0  2  0  0  0  0  0  0  0  0  0
   -1.1432   -0.9670    0.4968 C   0  0  0  0  0  0  0  0  0  0  0  0
   -2.9871   -0.1317   -1.0420 C   0  0  0  0  0  0  0  0  0  0  0  0
   -4.0619   -0.3144   -0.2624 C   0  0  0  0  0  0  0  0  0  0  0  0
   -0.0647    2.9605    1.5510 O   0  0  0  0  0  0  0  0  0  0  0  0
    1.2395    3.1543    1.5785 C   0  0  0  0  0  0  0  0  0  0  0  0
    1.8391    2.3401    0.6324 C   0  0  0  0  0  0  0  0  0  0  0  0
    3.2978    2.2441    0.3246 C   0  0  0  0  0  0  0  0  0  0  0  0
   -1.8114   -2.1264   -3.6640 H   0  0  0  0  0  0  0  0  0  0  0  0
   -1.8300   -2.2303   -1.9023 H   0  0  0  0  0  0  0  0  0  0  0  0
   -0.4258   -2.8785   -2.7874 H   0  0  0  0  0  0  0  0  0  0  0  0
    0.8568    0.4696   -3.9526 H   0  0  0  0  0  0  0  0  0  0  0  0
    0.4131   -1.1956   -4.6487 H   0  0  0  0  0  0  0  0  0  0  0  0
   -0.9066    1.2718   -2.1908 H   0  0  0  0  0  0  0  0  0  0  0  0
    1.5030    1.0828   -1.9061 H   0  0  0  0  0  0  0  0  0  0  0  0
    1.3748   -0.2614   -0.7223 H   0  0  0  0  0  0  0  0  0  0  0  0
   -2.2172    2.2974   -0.2690 H   0  0  0  0  0  0  0  0  0  0  0  0
   -2.2647    1.3463    1.2520 H   0  0  0  0  0  0  0  0  0  0  0  0
   -1.8732   -1.0886    1.3237 H   0  0  0  0  0  0  0  0  0  0  0  0
   -0.1736   -0.7302    0.9785 H   0  0  0  0  0  0  0  0  0  0  0  0
   -1.0222   -1.9531    0.0192 H   0  0  0  0  0  0  0  0  0  0  0  0
   -3.1279   -0.1863   -2.1175 H   0  0  0  0  0  0  0  0  0  0  0  0
   -5.0279   -0.5143   -0.7144 H   0  0  0  0  0  0  0  0  0  0  0  0
   -3.9928   -0.2656    0.8185 H   0  0  0  0  0  0  0  0  0  0  0  0
    1.7419    3.8455    2.2423 H   0  0  0  0  0  0  0  0  0  0  0  0
    3.8790    2.9278    0.9786 H   0  0  0  0  0  0  0  0  0  0  0  0
    3.6447    1.2032    0.4930 H   0  0  0  0  0  0  0  0  0  0  0  0
    3.4749    2.5220   -0.7352 H   0  0  0  0  0  0  0  0  0  0  0  0
  1 17  1  0  0  0  0
  1 18  1  0  0  0  0
  1 19  1  0  0  0  0
  2  1  1  0  0  0  0
  3  2  2  0  0  0  0
  3 20  1  0  0  0  0
  3 21  1  0  0  0  0
  4  2  1  0  0  0  0
  4 22  1  6  0  0  0
  5  4  1  0  0  0  0
  5 23  1  0  0  0  0
  5 24  1  0  0  0  0
  6  5  1  0  0  0  0
  7  6  2  0  0  0  0
  8  7  1  0  0  0  0
  8 25  1  0  0  0  0
  8 26  1  0  0  0  0
  9  8  1  0  0  0  0
  9  4  1  0  0  0  0
  9 10  1  1  0  0  0
 10 27  1  0  0  0  0
 10 28  1  0  0  0  0
 10 29  1  0  0  0  0
 11  9  1  0  0  0  0
 11 30  1  0  0  0  0
 12 11  2  0  0  0  0
 12 31  1  0  0  0  0
 12 32  1  0  0  0  0
 13  7  1  0  0  0  0
 14 13  1  0  0  0  0
 14 33  1  0  0  0  0
 15 14  2  0  0  0  0
 15  6  1  0  0  0  0
 16 15  1  0  0  0  0
 16 34  1  0  0  0  0
 16 35  1  0  0  0  0
 16 36  1  0  0  0  0
M  END
>  <MOL Chiral Flag>
0

>  <energy>
62.691649803407245

$$$$
> 116_AKC_j.ejmech.2021.113516
>114.sdf
 OpenBabel10052218353D

 47 50  0  0  0  0  0  0  0  0999 V2000
   -1.0357    1.0487   -0.5353 O   0  0  0  0  0  0  0  0  0  0  0  0
   -2.3296    0.7413   -0.3080 C   0  0  0  0  0  0  0  0  0  0  0  0
   -2.8314   -0.5333   -0.6664 C   0  0  0  0  0  0  0  0  0  0  0  0
   -4.1786   -0.8381   -0.3677 C   0  0  0  0  0  0  0  0  0  0  0  0
   -5.0079    0.1194    0.2351 C   0  0  0  0  0  0  0  0  0  0  0  0
   -4.5043    1.3773    0.5671 C   0  0  0  0  0  0  0  0  0  0  0  0
   -3.1695    1.6834    0.3087 C   0  0  0  0  0  0  0  0  0  0  0  0
   -2.0067   -1.4734   -1.3824 N   0  0  0  0  0  0  0  0  0  0  0  0
   -2.1251   -2.9169   -1.1874 C   0  0  0  0  0  0  0  0  0  0  0  0
   -0.7426   -3.5915   -1.4090 C   0  0  0  0  0  0  0  0  0  0  0  0
   -0.1377   -3.0940   -2.6504 N   0  0  0  0  0  0  0  0  0  0  0  0
    0.0537   -1.6511   -2.6989 C   0  0  0  0  0  0  0  0  0  0  0  0
   -1.3384   -1.0300   -2.6019 C   0  0  0  0  0  0  0  0  0  0  0  0
    0.0590   -3.8668   -3.8725 C   0  0  0  0  0  0  0  0  0  0  0  0
   -0.9017   -4.8056   -4.3616 C   0  0  0  0  0  0  0  0  0  0  0  0
   -2.1117   -5.1872   -3.6653 C   0  0  0  0  0  0  0  0  0  0  0  0
   -3.0993   -5.5461   -3.1781 N   0  0  0  0  0  0  0  0  0  0  0  0
   -0.7114   -5.3649   -5.6392 C   0  0  0  0  0  0  0  0  0  0  0  0
   -1.5388   -6.1314   -6.1049 O   0  0  0  0  0  0  0  0  0  0  0  0
    0.3482   -5.0611   -6.3669 O   0  0  0  0  0  0  0  0  0  0  0  0
    1.3124   -4.2457   -5.9666 C   0  0  0  0  0  0  0  0  0  0  0  0
    1.1929   -3.6095   -4.7018 C   0  0  0  0  0  0  0  0  0  0  0  0
    2.4823   -4.0864   -6.9016 C   0  0  0  0  0  0  0  0  0  0  0  0
    3.7562   -3.6550   -6.4730 C   0  0  0  0  0  0  0  0  0  0  0  0
    4.8345   -3.6192   -7.3769 C   0  0  0  0  0  0  0  0  0  0  0  0
    4.6533   -3.9854   -8.7131 C   0  0  0  0  0  0  0  0  0  0  0  0
    3.3964   -4.3867   -9.1574 C   0  0  0  0  0  0  0  0  0  0  0  0
    2.3220   -4.4470   -8.2624 C   0  0  0  0  0  0  0  0  0  0  0  0
   -0.6585    1.8981   -0.2667 H   0  0  0  0  0  0  0  0  0  0  0  0
   -4.6025   -1.7955   -0.6408 H   0  0  0  0  0  0  0  0  0  0  0  0
   -6.0488   -0.1067    0.4331 H   0  0  0  0  0  0  0  0  0  0  0  0
   -5.1485    2.1183    1.0263 H   0  0  0  0  0  0  0  0  0  0  0  0
   -2.7861    2.6594    0.5807 H   0  0  0  0  0  0  0  0  0  0  0  0
   -2.5217   -3.1612   -0.1750 H   0  0  0  0  0  0  0  0  0  0  0  0
   -2.8246   -3.3168   -1.9396 H   0  0  0  0  0  0  0  0  0  0  0  0
   -0.8037   -4.6972   -1.3663 H   0  0  0  0  0  0  0  0  0  0  0  0
   -0.0768   -3.2847   -0.5636 H   0  0  0  0  0  0  0  0  0  0  0  0
    0.5011   -1.3146   -3.6549 H   0  0  0  0  0  0  0  0  0  0  0  0
    0.7040   -1.3073   -1.8635 H   0  0  0  0  0  0  0  0  0  0  0  0
   -1.3137    0.0711   -2.7098 H   0  0  0  0  0  0  0  0  0  0  0  0
   -1.9218   -1.4143   -3.4706 H   0  0  0  0  0  0  0  0  0  0  0  0
    1.9553   -2.9185   -4.3696 H   0  0  0  0  0  0  0  0  0  0  0  0
    3.9353   -3.3884   -5.4426 H   0  0  0  0  0  0  0  0  0  0  0  0
    5.8192   -3.3199   -7.0408 H   0  0  0  0  0  0  0  0  0  0  0  0
    5.4885   -3.9634   -9.4055 H   0  0  0  0  0  0  0  0  0  0  0  0
    3.2569   -4.6653  -10.1962 H   0  0  0  0  0  0  0  0  0  0  0  0
    1.3609   -4.7751   -8.6374 H   0  0  0  0  0  0  0  0  0  0  0  0
  1 29  1  0  0  0  0
  2  1  1  0  0  0  0
  3  2  2  0  0  0  0
  4  3  1  0  0  0  0
  4 30  1  0  0  0  0
  5  4  2  0  0  0  0
  5 31  1  0  0  0  0
  6  5  1  0  0  0  0
  6 32  1  0  0  0  0
  7  6  2  0  0  0  0
  7  2  1  0  0  0  0
  7 33  1  0  0  0  0
  8  3  1  0  0  0  0
  9  8  1  0  0  0  0
  9 34  1  0  0  0  0
  9 35  1  0  0  0  0
 10  9  1  0  0  0  0
 10 36  1  0  0  0  0
 10 37  1  0  0  0  0
 11 10  1  0  0  0  0
 12 11  1  0  0  0  0
 12 38  1  0  0  0  0
 12 39  1  0  0  0  0
 13 12  1  0  0  0  0
 13  8  1  0  0  0  0
 13 40  1  0  0  0  0
 13 41  1  0  0  0  0
 14 11  1  0  0  0  0
 15 14  2  0  0  0  0
 16 15  1  0  0  0  0
 17 16  3  0  0  0  0
 18 15  1  0  0  0  0
 19 18  2  0  0  0  0
 20 18  1  0  0  0  0
 21 20  1  0  0  0  0
 22 21  2  0  0  0  0
 22 14  1  0  0  0  0
 22 42  1  0  0  0  0
 23 21  1  0  0  0  0
 24 23  2  0  0  0  0
 24 43  1  0  0  0  0
 25 24  1  0  0  0  0
 25 44  1  0  0  0  0
 26 25  2  0  0  0  0
 26 45  1  0  0  0  0
 27 26  1  0  0  0  0
 27 46  1  0  0  0  0
 28 27  2  0  0  0  0
 28 23  1  0  0  0  0
 28 47  1  0  0  0  0
M  END
>  <MOL Chiral Flag>
0

>  <energy>
164.08489815344515

$$$$
> 117_AKC_j.biochi.2021.06.015
>115.sdf
 OpenBabel10052218353D

 36 36  0  0  0  0  0  0  0  0999 V2000
   -2.0476    0.1093    1.5469 C   0  0  0  0  0  0  0  0  0  0  0  0
   -3.2149   -0.3604    0.6672 C   0  0  0  0  0  0  0  0  0  0  0  0
   -3.0130    0.0714   -0.7922 C   0  0  0  0  0  0  0  0  0  0  0  0
   -3.5120   -1.8808    0.7848 C   0  0  0  0  0  0  0  0  0  0  0  0
   -2.3314   -2.8667    0.6724 C   0  0  0  0  0  0  0  0  0  0  0  0
   -1.5160   -2.6262   -0.4250 O   0  0  0  0  0  0  0  0  0  0  0  0
   -0.1686   -2.5385   -0.2620 C   0  0  0  0  0  0  0  0  0  0  0  0
    0.3932   -3.2653    0.5476 O   0  0  0  0  0  0  0  0  0  0  0  0
    0.5535   -1.3863   -0.8401 C   0  0  0  0  0  0  0  0  0  0  0  0
    1.6423   -0.9139   -0.2067 C   0  0  0  0  0  0  0  0  0  0  0  0
    2.3096    0.3580   -0.5569 C   0  0  0  0  0  0  0  0  0  0  0  0
    2.2248    0.9481   -1.8304 C   0  0  0  0  0  0  0  0  0  0  0  0
    2.8409    2.1804   -2.0727 C   0  0  0  0  0  0  0  0  0  0  0  0
    3.5216    2.8492   -1.0460 C   0  0  0  0  0  0  0  0  0  0  0  0
    4.0797    4.0510   -1.2970 O   0  0  0  0  0  0  0  0  0  0  0  0
    3.6022    2.2649    0.2299 C   0  0  0  0  0  0  0  0  0  0  0  0
    4.2320    2.9116    1.2350 O   0  0  0  0  0  0  0  0  0  0  0  0
    3.0125    1.0189    0.4613 C   0  0  0  0  0  0  0  0  0  0  0  0
   -1.0917   -0.3474    1.2228 H   0  0  0  0  0  0  0  0  0  0  0  0
   -1.9367    1.2132    1.4712 H   0  0  0  0  0  0  0  0  0  0  0  0
   -2.2288   -0.1509    2.6099 H   0  0  0  0  0  0  0  0  0  0  0  0
   -4.1319    0.1688    1.0105 H   0  0  0  0  0  0  0  0  0  0  0  0
   -2.9043    1.1752   -0.8530 H   0  0  0  0  0  0  0  0  0  0  0  0
   -3.9035   -0.2124   -1.3940 H   0  0  0  0  0  0  0  0  0  0  0  0
   -2.1214   -0.3904   -1.2479 H   0  0  0  0  0  0  0  0  0  0  0  0
   -3.9652   -2.0699    1.7838 H   0  0  0  0  0  0  0  0  0  0  0  0
   -4.2840   -2.1385    0.0292 H   0  0  0  0  0  0  0  0  0  0  0  0
   -1.7473   -2.7823    1.6194 H   0  0  0  0  0  0  0  0  0  0  0  0
   -2.7316   -3.9010    0.6278 H   0  0  0  0  0  0  0  0  0  0  0  0
    0.1159   -0.8427   -1.6691 H   0  0  0  0  0  0  0  0  0  0  0  0
    1.9763   -1.4163    0.6976 H   0  0  0  0  0  0  0  0  0  0  0  0
    1.6957    0.4587   -2.6373 H   0  0  0  0  0  0  0  0  0  0  0  0
    2.7785    2.6265   -3.0571 H   0  0  0  0  0  0  0  0  0  0  0  0
    4.5412    4.5573   -0.6128 H   0  0  0  0  0  0  0  0  0  0  0  0
    4.2637    2.5478    2.1319 H   0  0  0  0  0  0  0  0  0  0  0  0
    3.0662    0.5798    1.4512 H   0  0  0  0  0  0  0  0  0  0  0  0
  1 19  1  0  0  0  0
  1 20  1  0  0  0  0
  1 21  1  0  0  0  0
  2  1  1  0  0  0  0
  2 22  1  0  0  0  0
  3  2  1  0  0  0  0
  3 23  1  0  0  0  0
  3 24  1  0  0  0  0
  3 25  1  0  0  0  0
  4  2  1  0  0  0  0
  4 26  1  0  0  0  0
  4 27  1  0  0  0  0
  5  4  1  0  0  0  0
  5 28  1  0  0  0  0
  5 29  1  0  0  0  0
  6  5  1  0  0  0  0
  7  6  1  0  0  0  0
  8  7  2  0  0  0  0
  9  7  1  0  0  0  0
  9 30  1  0  0  0  0
 10  9  2  0  0  0  0
 10 31  1  0  0  0  0
 11 10  1  0  0  0  0
 12 11  2  0  0  0  0
 12 32  1  0  0  0  0
 13 12  1  0  0  0  0
 13 33  1  0  0  0  0
 14 13  2  0  0  0  0
 15 14  1  0  0  0  0
 15 34  1  0  0  0  0
 16 14  1  0  0  0  0
 17 16  1  0  0  0  0
 17 35  1  0  0  0  0
 18 16  2  0  0  0  0
 18 11  1  0  0  0  0
 18 36  1  0  0  0  0
M  END
>  <MOL Chiral Flag>
0

>  <energy>
12.895945326526686

$$$$
> 118_AKC_acs.jmedchem.1c00725
>116.sdf
 OpenBabel10042213353D

 32 34  0  0  0  0  0  0  0  0999 V2000
    2.4352   -3.0159    0.2908 O   0  0  0  0  0  0  0  0  0  0  0  0
    1.7620   -1.9910   -0.4326 C   0  0  1  0  0  0  0  0  0  0  0  0
    0.5640   -1.4456    0.2790 C   0  0  0  0  0  0  0  0  0  0  0  0
   -0.6741   -1.1216   -0.2319 C   0  0  0  0  0  0  0  0  0  0  0  0
   -1.3561   -0.5379    0.8110 N   0  0  0  0  0  0  0  0  0  0  0  0
   -0.5823   -0.5629    1.9221 N   0  0  0  0  0  0  0  0  0  0  0  0
    0.5801   -1.1255    1.6145 N   0  0  0  0  0  0  0  0  0  0  0  0
   -2.6398    0.0651    0.7948 C   0  0  0  0  0  0  0  0  0  0  0  0
   -3.1158    0.7251    1.9367 C   0  0  0  0  0  0  0  0  0  0  0  0
   -4.3620    1.3603    1.9167 C   0  0  0  0  0  0  0  0  0  0  0  0
   -5.1334    1.3268    0.7566 C   0  0  0  0  0  0  0  0  0  0  0  0
   -6.8087    2.1970    0.7143 Br  0  0  0  0  0  0  0  0  0  0  0  0
   -4.6748    0.6687   -0.3808 C   0  0  0  0  0  0  0  0  0  0  0  0
   -3.4289    0.0371   -0.3646 C   0  0  0  0  0  0  0  0  0  0  0  0
    2.6452   -0.7778   -0.6821 C   0  0  0  0  0  0  0  0  0  0  0  0
    3.3855   -0.1949    0.3636 C   0  0  0  0  0  0  0  0  0  0  0  0
    4.1390    0.9598    0.1523 C   0  0  0  0  0  0  0  0  0  0  0  0
    4.1642    1.5412   -1.1116 C   0  0  0  0  0  0  0  0  0  0  0  0
    5.1634    3.1195   -1.3961 Br  0  0  0  0  0  0  0  0  0  0  0  0
    3.4523    0.9744   -2.1673 C   0  0  0  0  0  0  0  0  0  0  0  0
    2.6954   -0.1815   -1.9530 C   0  0  0  0  0  0  0  0  0  0  0  0
    3.3829   -2.8004    0.2869 H   0  0  0  0  0  0  0  0  0  0  0  0
    1.4615   -2.4393   -1.3898 H   0  0  0  0  0  0  0  0  0  0  0  0
   -1.0784   -1.2033   -1.2284 H   0  0  0  0  0  0  0  0  0  0  0  0
   -2.5211    0.7731    2.8490 H   0  0  0  0  0  0  0  0  0  0  0  0
   -4.7165    1.8802    2.8042 H   0  0  0  0  0  0  0  0  0  0  0  0
   -5.2761    0.6420   -1.2870 H   0  0  0  0  0  0  0  0  0  0  0  0
   -3.1094   -0.4648   -1.2717 H   0  0  0  0  0  0  0  0  0  0  0  0
    3.3508   -0.6262    1.3648 H   0  0  0  0  0  0  0  0  0  0  0  0
    4.6863    1.3987    0.9809 H   0  0  0  0  0  0  0  0  0  0  0  0
    3.4728    1.4260   -3.1561 H   0  0  0  0  0  0  0  0  0  0  0  0
    2.1368   -0.6066   -2.7852 H   0  0  0  0  0  0  0  0  0  0  0  0
  1 22  1  0  0  0  0
  2  1  1  0  0  0  0
  2 23  1  6  0  0  0
  3  2  1  0  0  0  0
  4  3  2  0  0  0  0
  4 24  1  0  0  0  0
  5  4  1  0  0  0  0
  6  5  1  0  0  0  0
  7  6  2  0  0  0  0
  7  3  1  0  0  0  0
  8  5  1  0  0  0  0
  9  8  2  0  0  0  0
  9 25  1  0  0  0  0
 10  9  1  0  0  0  0
 10 26  1  0  0  0  0
 11 10  2  0  0  0  0
 12 11  1  0  0  0  0
 13 11  1  0  0  0  0
 13 27  1  0  0  0  0
 14 13  2  0  0  0  0
 14  8  1  0  0  0  0
 14 28  1  0  0  0  0
 15  2  1  0  0  0  0
 16 15  2  0  0  0  0
 16 29  1  0  0  0  0
 17 16  1  0  0  0  0
 17 30  1  0  0  0  0
 18 17  2  0  0  0  0
 19 18  1  0  0  0  0
 20 18  1  0  0  0  0
 20 31  1  0  0  0  0
 21 20  2  0  0  0  0
 21 15  1  0  0  0  0
 21 32  1  0  0  0  0
M  END
>  <energy>
79.779926911812623

$$$$
> 119_AKC_acsmedchemlett.1c00193
>117.sdf
 OpenBabel10042213363D

 18 18  0  0  0  0  0  0  0  0999 V2000
   -3.4680    0.3275    0.3355 C   0  0  0  0  0  0  0  0  0  0  0  0
   -2.0753   -0.1557    0.2890 N   0  3  0  0  0  0  0  0  0  0  0  0
   -1.8769   -1.3995    0.4728 O   0  5  0  0  0  0  0  0  0  0  0  0
   -1.0941    0.6808    0.0614 C   0  0  0  0  0  0  0  0  0  0  0  0
    0.3177    0.4506   -0.0495 C   0  0  0  0  0  0  0  0  0  0  0  0
    1.3556    1.3538   -0.2044 C   0  0  0  0  0  0  0  0  0  0  0  0
    2.5511    0.5972   -0.2913 C   0  0  0  0  0  0  0  0  0  0  0  0
    2.1566   -0.7156   -0.1846 C   0  0  0  0  0  0  0  0  0  0  0  0
    0.8114   -0.8222   -0.0329 O   0  0  0  0  0  0  0  0  0  0  0  0
    2.9022   -1.9343   -0.2187 N   0  0  0  0  0  0  0  0  0  0  0  0
    4.1319   -1.8148   -0.3206 O   0  0  0  0  0  0  0  0  0  0  0  0
    2.2850   -3.0036   -0.1532 O   0  0  0  0  0  0  0  0  0  0  0  0
   -3.7863    0.5378   -0.6886 H   0  0  0  0  0  0  0  0  0  0  0  0
   -4.1014   -0.4475    0.7748 H   0  0  0  0  0  0  0  0  0  0  0  0
   -3.5130    1.2308    0.9501 H   0  0  0  0  0  0  0  0  0  0  0  0
   -1.4185    1.7273   -0.0661 H   0  0  0  0  0  0  0  0  0  0  0  0
    1.2592    2.4305   -0.2520 H   0  0  0  0  0  0  0  0  0  0  0  0
    3.5629    0.9567   -0.4218 H   0  0  0  0  0  0  0  0  0  0  0  0
  1 13  1  0  0  0  0
  1 14  1  0  0  0  0
  1 15  1  0  0  0  0
  2  1  1  0  0  0  0
  3  2  1  0  0  0  0
  4  2  2  0  0  0  0
  4 16  1  0  0  0  0
  5  4  1  0  0  0  0
  6  5  2  0  0  0  0
  6 17  1  0  0  0  0
  7  6  1  0  0  0  0
  7 18  1  0  0  0  0
  8  7  2  0  0  0  0
  9  8  1  0  0  0  0
  9  5  1  0  0  0  0
 10  8  1  0  0  0  0
 11 10  2  0  0  0  0
 12 10  2  0  0  0  0
M  CHG  2   2   1   3  -1
M  END
>  <energy>
51.726017594749166

$$$$
> 120_AKC_j.biopha.2021.111857
>118.sdf
 OpenBabel10052218363D

 63 65  0  0  0  0  0  0  0  0999 V2000
    2.1597   -3.2103   -1.4605 C   0  0  0  0  0  0  0  0  0  0  0  0
    0.7615   -2.6333   -1.2651 C   0  0  0  0  0  0  0  0  0  0  0  0
   -0.0953   -2.8120   -2.5269 C   0  0  0  0  0  0  0  0  0  0  0  0
   -1.4541   -2.1147   -2.3947 C   0  0  0  0  0  0  0  0  0  0  0  0
   -2.4545   -2.8378   -1.4687 C   0  0  0  0  0  0  0  0  0  0  0  0
   -3.7346   -1.9916   -1.3144 C   0  0  0  0  0  0  0  0  0  0  0  0
   -3.5686   -0.8483   -0.2821 C   0  0  0  0  0  0  0  0  0  0  0  0
   -3.8237   -1.3805    1.1413 C   0  0  0  0  0  0  0  0  0  0  0  0
   -3.6211   -0.4019    2.3133 C   0  0  0  0  0  0  0  0  0  0  0  0
   -4.1888    1.0238    2.1274 C   0  0  0  0  0  0  0  0  0  0  0  0
   -3.1105    1.9313    1.7409 N   0  0  0  0  0  0  0  0  0  0  0  0
   -2.9576    2.6644    0.6201 C   0  0  0  0  0  0  0  0  0  0  0  0
   -1.7411    3.3068    0.7503 C   0  0  0  0  0  0  0  0  0  0  0  0
   -1.0709    4.1171   -0.2054 N   0  0  0  0  0  0  0  0  0  0  0  0
    0.3794    4.1954   -0.1370 C   0  0  0  0  0  0  0  0  0  0  0  0
    0.9502    2.8628   -0.6413 C   0  0  0  0  0  0  0  0  0  0  0  0
    2.3729    2.7077   -0.3884 N   0  0  0  0  0  0  0  0  0  0  0  0
    2.8018    1.7970    0.6402 C   0  0  0  0  0  0  0  0  0  0  0  0
    2.1078    1.7699    1.8656 C   0  0  0  0  0  0  0  0  0  0  0  0
    2.4713    0.8782    2.8688 C   0  0  0  0  0  0  0  0  0  0  0  0
    3.4922    0.0115    2.6739 N   0  0  0  0  0  0  0  0  0  0  0  0
    4.1967   -0.0159    1.5136 C   0  0  0  0  0  0  0  0  0  0  0  0
    5.2209   -0.9557    1.3633 C   0  0  0  0  0  0  0  0  0  0  0  0
    5.9478   -1.0199    0.1756 C   0  0  0  0  0  0  0  0  0  0  0  0
    7.2198   -2.2132   -0.0092 Cl  0  0  0  0  0  0  0  0  0  0  0  0
    5.6581   -0.1408   -0.8682 C   0  0  0  0  0  0  0  0  0  0  0  0
    4.6370    0.8050   -0.7370 C   0  0  0  0  0  0  0  0  0  0  0  0
    3.8838    0.8853    0.4577 C   0  0  0  0  0  0  0  0  0  0  0  0
   -1.2093    2.9660    1.9384 N   0  0  0  0  0  0  0  0  0  0  0  0
   -2.0557    2.1394    2.5197 N   0  0  0  0  0  0  0  0  0  0  0  0
    2.6636   -2.7162   -2.3195 H   0  0  0  0  0  0  0  0  0  0  0  0
    2.1041   -4.3030   -1.6481 H   0  0  0  0  0  0  0  0  0  0  0  0
    2.7662   -3.0292   -0.5480 H   0  0  0  0  0  0  0  0  0  0  0  0
    0.8667   -1.5466   -1.0496 H   0  0  0  0  0  0  0  0  0  0  0  0
    0.2828   -3.1241   -0.3928 H   0  0  0  0  0  0  0  0  0  0  0  0
   -0.2296   -3.8868   -2.7812 H   0  0  0  0  0  0  0  0  0  0  0  0
    0.4435   -2.3228   -3.3682 H   0  0  0  0  0  0  0  0  0  0  0  0
   -1.2752   -1.0679   -2.0744 H   0  0  0  0  0  0  0  0  0  0  0  0
   -1.9213   -2.0778   -3.4046 H   0  0  0  0  0  0  0  0  0  0  0  0
   -2.7075   -3.8016   -1.9635 H   0  0  0  0  0  0  0  0  0  0  0  0
   -2.0333   -3.0730   -0.4705 H   0  0  0  0  0  0  0  0  0  0  0  0
   -4.5910   -2.6295   -1.0007 H   0  0  0  0  0  0  0  0  0  0  0  0
   -4.0009   -1.5865   -2.3149 H   0  0  0  0  0  0  0  0  0  0  0  0
   -4.3540   -0.0898   -0.4826 H   0  0  0  0  0  0  0  0  0  0  0  0
   -2.5820   -0.3523   -0.3823 H   0  0  0  0  0  0  0  0  0  0  0  0
   -3.2007   -2.2750    1.3562 H   0  0  0  0  0  0  0  0  0  0  0  0
   -4.8879   -1.7061    1.1608 H   0  0  0  0  0  0  0  0  0  0  0  0
   -4.1244   -0.8817    3.1807 H   0  0  0  0  0  0  0  0  0  0  0  0
   -2.5448   -0.3423    2.5861 H   0  0  0  0  0  0  0  0  0  0  0  0
   -4.5547    1.3901    3.1106 H   0  0  0  0  0  0  0  0  0  0  0  0
   -5.0506    1.0380    1.4271 H   0  0  0  0  0  0  0  0  0  0  0  0
   -3.6424    2.6903   -0.2181 H   0  0  0  0  0  0  0  0  0  0  0  0
   -1.5201    4.2353   -1.1259 H   0  0  0  0  0  0  0  0  0  0  0  0
    0.7621    5.0402   -0.7490 H   0  0  0  0  0  0  0  0  0  0  0  0
    0.6881    4.3823    0.9140 H   0  0  0  0  0  0  0  0  0  0  0  0
    0.7477    2.7765   -1.7312 H   0  0  0  0  0  0  0  0  0  0  0  0
    0.4075    2.0159   -0.1674 H   0  0  0  0  0  0  0  0  0  0  0  0
    2.9726    2.8337   -1.2104 H   0  0  0  0  0  0  0  0  0  0  0  0
    1.2901    2.4452    2.0511 H   0  0  0  0  0  0  0  0  0  0  0  0
    1.9319    0.8708    3.8070 H   0  0  0  0  0  0  0  0  0  0  0  0
    5.4446   -1.6445    2.1694 H   0  0  0  0  0  0  0  0  0  0  0  0
    6.2215   -0.1944   -1.7909 H   0  0  0  0  0  0  0  0  0  0  0  0
    4.4526    1.4467   -1.5807 H   0  0  0  0  0  0  0  0  0  0  0  0
  1 31  1  0  0  0  0
  1 32  1  0  0  0  0
  1 33  1  0  0  0  0
  2  1  1  0  0  0  0
  2 34  1  0  0  0  0
  2 35  1  0  0  0  0
  3  2  1  0  0  0  0
  3 36  1  0  0  0  0
  3 37  1  0  0  0  0
  4  3  1  0  0  0  0
  4 38  1  0  0  0  0
  4 39  1  0  0  0  0
  5  4  1  0  0  0  0
  5 40  1  0  0  0  0
  5 41  1  0  0  0  0
  6  5  1  0  0  0  0
  6 42  1  0  0  0  0
  6 43  1  0  0  0  0
  7  6  1  0  0  0  0
  7 44  1  0  0  0  0
  7 45  1  0  0  0  0
  8  7  1  0  0  0  0
  8 46  1  0  0  0  0
  8 47  1  0  0  0  0
  9  8  1  0  0  0  0
  9 48  1  0  0  0  0
  9 49  1  0  0  0  0
 10  9  1  0  0  0  0
 10 50  1  0  0  0  0
 10 51  1  0  0  0  0
 11 10  1  0  0  0  0
 12 11  1  0  0  0  0
 12 52  1  0  0  0  0
 13 12  2  0  0  0  0
 14 13  1  0  0  0  0
 14 53  1  0  0  0  0
 15 14  1  0  0  0  0
 15 54  1  0  0  0  0
 15 55  1  0  0  0  0
 16 15  1  0  0  0  0
 16 56  1  0  0  0  0
 16 57  1  0  0  0  0
 17 16  1  0  0  0  0
 17 58  1  0  0  0  0
 18 17  1  0  0  0  0
 19 18  2  0  0  0  0
 19 59  1  0  0  0  0
 20 19  1  0  0  0  0
 20 60  1  0  0  0  0
 21 20  2  0  0  0  0
 22 21  1  0  0  0  0
 23 22  2  0  0  0  0
 23 61  1  0  0  0  0
 24 23  1  0  0  0  0
 25 24  1  0  0  0  0
 26 24  2  0  0  0  0
 26 62  1  0  0  0  0
 27 26  1  0  0  0  0
 27 63  1  0  0  0  0
 28 27  2  0  0  0  0
 28 18  1  0  0  0  0
 28 22  1  0  0  0  0
 29 13  1  0  0  0  0
 30 29  2  0  0  0  0
 30 11  1  0  0  0  0
M  END
>  <MOL Chiral Flag>
0

>  <energy>
35.922430822631995

$$$$
> 121_AKC_j.bioorg.2021.105141
>119.sdf
 OpenBabel10052218363D

 43 46  0  0  0  0  0  0  0  0999 V2000
    1.2814   -5.5412    0.8846 C   0  0  0  0  0  0  0  0  0  0  0  0
    0.4040   -4.6036    1.3989 O   0  0  0  0  0  0  0  0  0  0  0  0
    0.5739   -3.2572    1.3053 C   0  0  0  0  0  0  0  0  0  0  0  0
    1.7507   -2.6960    0.7826 C   0  0  0  0  0  0  0  0  0  0  0  0
    1.8745   -1.3192    0.6538 C   0  0  0  0  0  0  0  0  0  0  0  0
    0.8264   -0.4558    1.0284 C   0  0  0  0  0  0  0  0  0  0  0  0
   -0.3417   -1.0141    1.5827 C   0  0  0  0  0  0  0  0  0  0  0  0
   -0.4615   -2.4062    1.7209 C   0  0  0  0  0  0  0  0  0  0  0  0
    0.9852    1.0124    0.7570 C   0  0  0  0  0  0  0  0  0  0  0  0
   -0.0286    1.8373    0.1545 C   0  0  0  0  0  0  0  0  0  0  0  0
   -1.3451    1.3638   -0.1976 N   0  0  0  0  0  0  0  0  0  0  0  0
   -1.7092    0.0989   -0.7587 C   0  0  0  0  0  0  0  0  0  0  0  0
   -0.7851   -0.7359   -1.4174 C   0  0  0  0  0  0  0  0  0  0  0  0
   -1.1954   -1.9730   -1.9296 C   0  0  0  0  0  0  0  0  0  0  0  0
   -2.5278   -2.3785   -1.8084 C   0  0  0  0  0  0  0  0  0  0  0  0
   -2.9214   -3.5787   -2.3009 F   0  0  0  0  0  0  0  0  0  0  0  0
   -3.4566   -1.5434   -1.1868 C   0  0  0  0  0  0  0  0  0  0  0  0
   -3.0524   -0.3110   -0.6713 C   0  0  0  0  0  0  0  0  0  0  0  0
    0.2881    3.2039   -0.0922 C   0  0  0  0  0  0  0  0  0  0  0  0
    1.5562    3.6963    0.2906 C   0  0  0  0  0  0  0  0  0  0  0  0
    2.4376    2.9076    0.8749 O   0  0  0  0  0  0  0  0  0  0  0  0
    2.2186    1.6253    1.1089 C   0  0  0  0  0  0  0  0  0  0  0  0
    3.0905    0.9855    1.6711 O   0  0  0  0  0  0  0  0  0  0  0  0
    1.9075    5.0268    0.0389 C   0  0  0  0  0  0  0  0  0  0  0  0
    1.0202    5.8776   -0.6157 C   0  0  0  0  0  0  0  0  0  0  0  0
   -0.2279    5.4061   -1.0180 C   0  0  0  0  0  0  0  0  0  0  0  0
   -0.6009    4.0839   -0.7574 C   0  0  0  0  0  0  0  0  0  0  0  0
    1.3823   -5.4062   -0.2155 H   0  0  0  0  0  0  0  0  0  0  0  0
    0.8870   -6.5592    1.0753 H   0  0  0  0  0  0  0  0  0  0  0  0
    2.2781   -5.4521    1.3673 H   0  0  0  0  0  0  0  0  0  0  0  0
    2.5711   -3.3169    0.4504 H   0  0  0  0  0  0  0  0  0  0  0  0
    2.7795   -0.9282    0.2075 H   0  0  0  0  0  0  0  0  0  0  0  0
   -1.1624   -0.3791    1.8907 H   0  0  0  0  0  0  0  0  0  0  0  0
   -1.3722   -2.8270    2.1281 H   0  0  0  0  0  0  0  0  0  0  0  0
   -2.1254    2.0156   -0.0326 H   0  0  0  0  0  0  0  0  0  0  0  0
    0.2460   -0.4359   -1.5346 H   0  0  0  0  0  0  0  0  0  0  0  0
   -0.4791   -2.6182   -2.4206 H   0  0  0  0  0  0  0  0  0  0  0  0
   -4.4912   -1.8509   -1.0985 H   0  0  0  0  0  0  0  0  0  0  0  0
   -3.7839    0.3227   -0.1844 H   0  0  0  0  0  0  0  0  0  0  0  0
    2.8807    5.3955    0.3392 H   0  0  0  0  0  0  0  0  0  0  0  0
    1.3056    6.9011   -0.8218 H   0  0  0  0  0  0  0  0  0  0  0  0
   -0.9076    6.0654   -1.5420 H   0  0  0  0  0  0  0  0  0  0  0  0
   -1.5695    3.7622   -1.1074 H   0  0  0  0  0  0  0  0  0  0  0  0
  1 28  1  0  0  0  0
  1 29  1  0  0  0  0
  1 30  1  0  0  0  0
  2  1  1  0  0  0  0
  3  2  1  0  0  0  0
  4  3  2  0  0  0  0
  4 31  1  0  0  0  0
  5  4  1  0  0  0  0
  5 32  1  0  0  0  0
  6  5  2  0  0  0  0
  7  6  1  0  0  0  0
  7 33  1  0  0  0  0
  8  7  2  0  0  0  0
  8  3  1  0  0  0  0
  8 34  1  0  0  0  0
  9  6  1  0  0  0  0
 10  9  2  0  0  0  0
 11 10  1  0  0  0  0
 11 35  1  0  0  0  0
 12 11  1  0  0  0  0
 13 12  2  0  0  0  0
 13 36  1  0  0  0  0
 14 13  1  0  0  0  0
 14 37  1  0  0  0  0
 15 14  2  0  0  0  0
 16 15  1  0  0  0  0
 17 15  1  0  0  0  0
 17 38  1  0  0  0  0
 18 17  2  0  0  0  0
 18 12  1  0  0  0  0
 18 39  1  0  0  0  0
 19 10  1  0  0  0  0
 20 19  2  0  0  0  0
 21 20  1  0  0  0  0
 22 21  1  0  0  0  0
 22  9  1  0  0  0  0
 23 22  2  0  0  0  0
 24 20  1  0  0  0  0
 24 40  1  0  0  0  0
 25 24  2  0  0  0  0
 25 41  1  0  0  0  0
 26 25  1  0  0  0  0
 26 42  1  0  0  0  0
 27 26  2  0  0  0  0
 27 19  1  0  0  0  0
 27 43  1  0  0  0  0
M  END
>  <MOL Chiral Flag>
0

>  <energy>
107.34979266631002

$$$$
> 122_AKC_cbdv.202100381
>120.sdf
 OpenBabel10052218373D

 58 60  0  0  0  0  0  0  0  0999 V2000
    8.7826    0.4219   -1.2052 C   0  0  0  0  0  0  0  0  0  0  0  0
    8.2492    1.2378   -0.2282 O   0  0  0  0  0  0  0  0  0  0  0  0
    6.9845    1.1510    0.2678 C   0  0  0  0  0  0  0  0  0  0  0  0
    6.0747    0.1675   -0.1778 C   0  0  0  0  0  0  0  0  0  0  0  0
    4.7686    0.1039    0.3377 C   0  0  0  0  0  0  0  0  0  0  0  0
    3.8495   -0.9449   -0.1996 C   0  0  0  0  0  0  0  0  0  0  0  0
    2.5465   -1.0546    0.1310 C   0  0  0  0  0  0  0  0  0  0  0  0
    1.6612   -2.0793   -0.4973 C   0  0  0  0  0  0  0  0  0  0  0  0
    2.1357   -2.8435   -1.3277 O   0  0  0  0  0  0  0  0  0  0  0  0
    0.1806   -2.1131   -0.2179 C   0  0  0  0  0  0  0  0  0  0  0  0
   -0.6241   -2.8090   -1.0781 C   0  0  0  0  0  0  0  0  0  0  0  0
   -2.1009   -3.0566   -0.9965 C   0  0  0  0  0  0  0  0  0  0  0  0
   -2.8430   -3.0039    0.2047 C   0  0  0  0  0  0  0  0  0  0  0  0
   -4.2174   -3.2656    0.2023 C   0  0  0  0  0  0  0  0  0  0  0  0
   -4.9171   -3.2092    1.3627 F   0  0  0  0  0  0  0  0  0  0  0  0
   -4.8679   -3.5944   -0.9885 C   0  0  0  0  0  0  0  0  0  0  0  0
   -6.1998   -3.8492   -0.9887 F   0  0  0  0  0  0  0  0  0  0  0  0
   -4.1434   -3.6745   -2.1777 C   0  0  0  0  0  0  0  0  0  0  0  0
   -2.7702   -3.4156   -2.1817 C   0  0  0  0  0  0  0  0  0  0  0  0
   -0.3487   -1.3189    0.9316 C   0  0  0  0  0  0  0  0  0  0  0  0
    0.2540   -1.3232    1.9959 O   0  0  0  0  0  0  0  0  0  0  0  0
   -1.4976   -0.3947    0.7406 C   0  0  0  0  0  0  0  0  0  0  0  0
   -2.0158    0.3145    1.7632 C   0  0  0  0  0  0  0  0  0  0  0  0
   -3.1287    1.2989    1.6243 C   0  0  0  0  0  0  0  0  0  0  0  0
   -3.6341    1.7123    0.3726 C   0  0  0  0  0  0  0  0  0  0  0  0
   -4.6692    2.6699    0.2945 C   0  0  0  0  0  0  0  0  0  0  0  0
   -5.1592    3.1021   -0.9002 O   0  0  0  0  0  0  0  0  0  0  0  0
   -4.6960    2.7168   -2.1423 C   0  0  0  0  0  0  0  0  0  0  0  0
   -5.2047    3.2029    1.4825 C   0  0  0  0  0  0  0  0  0  0  0  0
   -6.1960    4.1194    1.4499 O   0  0  0  0  0  0  0  0  0  0  0  0
   -4.7049    2.7908    2.7200 C   0  0  0  0  0  0  0  0  0  0  0  0
   -3.6741    1.8538    2.7916 C   0  0  0  0  0  0  0  0  0  0  0  0
    4.3797    1.0389    1.3198 C   0  0  0  0  0  0  0  0  0  0  0  0
    5.2781    2.0088    1.7665 C   0  0  0  0  0  0  0  0  0  0  0  0
    6.5728    2.0733    1.2479 C   0  0  0  0  0  0  0  0  0  0  0  0
    7.4109    3.0312    1.6992 O   0  0  0  0  0  0  0  0  0  0  0  0
    8.1997    0.5172   -2.1464 H   0  0  0  0  0  0  0  0  0  0  0  0
    8.7909   -0.6348   -0.8629 H   0  0  0  0  0  0  0  0  0  0  0  0
    9.8273    0.7352   -1.4065 H   0  0  0  0  0  0  0  0  0  0  0  0
    6.3740   -0.5460   -0.9342 H   0  0  0  0  0  0  0  0  0  0  0  0
    4.2597   -1.6392   -0.9283 H   0  0  0  0  0  0  0  0  0  0  0  0
    2.1114   -0.3574    0.8251 H   0  0  0  0  0  0  0  0  0  0  0  0
   -0.1470   -3.2571   -1.9457 H   0  0  0  0  0  0  0  0  0  0  0  0
   -2.3738   -2.7892    1.1499 H   0  0  0  0  0  0  0  0  0  0  0  0
   -4.6448   -3.9392   -3.0998 H   0  0  0  0  0  0  0  0  0  0  0  0
   -2.2268   -3.4844   -3.1165 H   0  0  0  0  0  0  0  0  0  0  0  0
   -1.8951   -0.3004   -0.2597 H   0  0  0  0  0  0  0  0  0  0  0  0
   -1.6019    0.1681    2.7577 H   0  0  0  0  0  0  0  0  0  0  0  0
   -3.2221    1.3145   -0.5380 H   0  0  0  0  0  0  0  0  0  0  0  0
   -4.8246    1.6224   -2.2815 H   0  0  0  0  0  0  0  0  0  0  0  0
   -3.6262    2.9960   -2.2566 H   0  0  0  0  0  0  0  0  0  0  0  0
   -5.2798    3.2426   -2.9252 H   0  0  0  0  0  0  0  0  0  0  0  0
   -6.5756    4.4439    0.6213 H   0  0  0  0  0  0  0  0  0  0  0  0
   -5.1150    3.2047    3.6327 H   0  0  0  0  0  0  0  0  0  0  0  0
   -3.3007    1.5566    3.7643 H   0  0  0  0  0  0  0  0  0  0  0  0
    3.3918    1.0360    1.7509 H   0  0  0  0  0  0  0  0  0  0  0  0
    4.9636    2.7204    2.5200 H   0  0  0  0  0  0  0  0  0  0  0  0
    8.3161    3.1257    1.3712 H   0  0  0  0  0  0  0  0  0  0  0  0
  1 37  1  0  0  0  0
  1 38  1  0  0  0  0
  1 39  1  0  0  0  0
  2  1  1  0  0  0  0
  3  2  1  0  0  0  0
  4  3  2  0  0  0  0
  4 40  1  0  0  0  0
  5  4  1  0  0  0  0
  6  5  1  0  0  0  0
  6 41  1  0  0  0  0
  7  6  2  0  0  0  0
  7 42  1  0  0  0  0
  8  7  1  0  0  0  0
  9  8  2  0  0  0  0
 10  8  1  0  0  0  0
 11 10  2  0  0  0  0
 11 43  1  0  0  0  0
 12 11  1  0  0  0  0
 13 12  2  0  0  0  0
 13 44  1  0  0  0  0
 14 13  1  0  0  0  0
 15 14  1  0  0  0  0
 16 14  2  0  0  0  0
 17 16  1  0  0  0  0
 18 16  1  0  0  0  0
 18 45  1  0  0  0  0
 19 18  2  0  0  0  0
 19 12  1  0  0  0  0
 19 46  1  0  0  0  0
 20 10  1  0  0  0  0
 21 20  2  0  0  0  0
 22 20  1  0  0  0  0
 22 47  1  0  0  0  0
 23 22  2  0  0  0  0
 23 48  1  0  0  0  0
 24 23  1  0  0  0  0
 25 24  2  0  0  0  0
 25 49  1  0  0  0  0
 26 25  1  0  0  0  0
 27 26  1  0  0  0  0
 28 27  1  0  0  0  0
 28 50  1  0  0  0  0
 28 51  1  0  0  0  0
 28 52  1  0  0  0  0
 29 26  2  0  0  0  0
 30 29  1  0  0  0  0
 30 53  1  0  0  0  0
 31 29  1  0  0  0  0
 31 54  1  0  0  0  0
 32 31  2  0  0  0  0
 32 24  1  0  0  0  0
 32 55  1  0  0  0  0
 33  5  2  0  0  0  0
 33 56  1  0  0  0  0
 34 33  1  0  0  0  0
 34 57  1  0  0  0  0
 35 34  2  0  0  0  0
 35  3  1  0  0  0  0
 36 35  1  0  0  0  0
 36 58  1  0  0  0  0
M  END
>  <MOL Chiral Flag>
0

>  <energy>
109.58867879447547

$$$$
> 123_AKC_jcb.29922
>121.sdf
 OpenBabel10052218383D

 67 71  0  0  0  0  0  0  0  0999 V2000
    0.1448    0.2273   -1.8735 C   0  0  0  0  0  0  0  0  0  0  0  0
   -0.5089    0.5920   -0.4929 C   0  0  2  0  0  0  0  0  0  0  0  0
    0.2622   -0.1074    0.6540 C   0  0  0  0  0  0  0  0  0  0  0  0
    0.1003   -1.6381    0.5740 C   0  0  0  0  0  0  0  0  0  0  0  0
   -1.4002   -2.0631    0.5931 C   0  0  1  0  0  0  0  0  0  0  0  0
   -2.2236   -1.3146   -0.5198 C   0  0  1  0  0  0  0  0  0  0  0  0
   -3.7223   -1.6704   -0.4101 C   0  0  0  0  0  0  0  0  0  0  0  0
   -3.9444   -3.1859   -0.5256 C   0  0  0  0  0  0  0  0  0  0  0  0
   -3.1445   -3.9058    0.5680 C   0  0  1  0  0  0  0  0  0  0  0  0
   -3.3861   -5.3420    0.5570 N   0  0  0  0  0  0  0  0  0  0  0  0
   -2.6530   -6.1364    1.2704 C   0  0  0  0  0  0  0  0  0  0  0  0
   -2.9686   -7.4453    1.3523 O   0  0  0  0  0  0  0  0  0  0  0  0
   -1.4663   -5.5967    1.9942 C   0  0  0  0  0  0  0  0  0  0  0  0
   -0.9986   -4.3742    1.6731 C   0  0  0  0  0  0  0  0  0  0  0  0
   -1.6158   -3.6179    0.4961 C   0  0  2  0  0  0  0  0  0  0  0  0
   -0.9978   -4.2134   -0.8064 C   0  0  0  0  0  0  0  0  0  0  0  0
   -1.9951    0.2084   -0.3702 C   0  0  2  0  0  0  0  0  0  0  0  0
   -2.6818    1.1536   -1.3569 C   0  0  0  0  0  0  0  0  0  0  0  0
   -1.8483    2.4579   -1.2819 C   0  0  0  0  0  0  0  0  0  0  0  0
   -0.6397    2.1296   -0.3631 C   0  0  2  0  0  0  0  0  0  0  0  0
    0.6441    2.8880   -0.6462 C   0  0  0  0  0  0  0  0  0  0  0  0
    0.7284    3.5731   -1.6542 O   0  0  0  0  0  0  0  0  0  0  0  0
    1.6865    2.7938    0.2335 N   0  0  0  0  0  0  0  0  0  0  0  0
    3.0233    3.2754    0.0029 C   0  0  0  0  0  0  0  0  0  0  0  0
    3.5277    3.4180   -1.3113 C   0  0  0  0  0  0  0  0  0  0  0  0
    4.8470    3.8254   -1.5442 C   0  0  0  0  0  0  0  0  0  0  0  0
    5.6798    4.1113   -0.4568 C   0  0  0  0  0  0  0  0  0  0  0  0
    5.2082    3.9772    0.8468 C   0  0  0  0  0  0  0  0  0  0  0  0
    3.8906    3.5486    1.1011 C   0  0  0  0  0  0  0  0  0  0  0  0
    3.4204    3.4043    2.5386 C   0  0  0  0  0  0  0  0  0  0  0  0
    2.3102    4.2035    2.7454 F   0  0  0  0  0  0  0  0  0  0  0  0
    4.3959    3.7865    3.4440 F   0  0  0  0  0  0  0  0  0  0  0  0
    3.0974    2.0857    2.8039 F   0  0  0  0  0  0  0  0  0  0  0  0
    5.3476    3.9267   -2.9647 C   0  0  0  0  0  0  0  0  0  0  0  0
    4.5807    4.8429   -3.6607 F   0  0  0  0  0  0  0  0  0  0  0  0
    6.6718    4.3262   -3.0199 F   0  0  0  0  0  0  0  0  0  0  0  0
    5.2380    2.6907   -3.5770 F   0  0  0  0  0  0  0  0  0  0  0  0
   -0.3441    0.7249   -2.7330 H   0  0  0  0  0  0  0  0  0  0  0  0
    0.1319   -0.8537   -2.0990 H   0  0  0  0  0  0  0  0  0  0  0  0
    1.2084    0.5471   -1.8837 H   0  0  0  0  0  0  0  0  0  0  0  0
   -0.1401    0.2330    1.6343 H   0  0  0  0  0  0  0  0  0  0  0  0
    1.3429    0.1419    0.6197 H   0  0  0  0  0  0  0  0  0  0  0  0
    0.5999   -2.0013   -0.3408 H   0  0  0  0  0  0  0  0  0  0  0  0
    0.6460   -2.0799    1.4308 H   0  0  0  0  0  0  0  0  0  0  0  0
   -1.8081   -1.7298    1.5758 H   0  0  0  0  0  0  0  0  0  0  0  0
   -1.8805   -1.6201   -1.5269 H   0  0  0  0  0  0  0  0  0  0  0  0
   -4.2989   -1.1622   -1.2123 H   0  0  0  0  0  0  0  0  0  0  0  0
   -4.1140   -1.3210    0.5711 H   0  0  0  0  0  0  0  0  0  0  0  0
   -5.0273   -3.4035   -0.4019 H   0  0  0  0  0  0  0  0  0  0  0  0
   -3.6423   -3.5419   -1.5326 H   0  0  0  0  0  0  0  0  0  0  0  0
   -3.5128   -3.5205    1.5485 H   0  0  0  0  0  0  0  0  0  0  0  0
   -2.4316   -8.0587    1.8733 H   0  0  0  0  0  0  0  0  0  0  0  0
   -0.9835   -6.1802    2.7717 H   0  0  0  0  0  0  0  0  0  0  0  0
   -0.1572   -3.9719    2.2235 H   0  0  0  0  0  0  0  0  0  0  0  0
    0.1042   -4.0934   -0.8170 H   0  0  0  0  0  0  0  0  0  0  0  0
   -1.3962   -3.7516   -1.7284 H   0  0  0  0  0  0  0  0  0  0  0  0
   -1.1870   -5.3037   -0.8875 H   0  0  0  0  0  0  0  0  0  0  0  0
   -2.3512    0.5054    0.6472 H   0  0  0  0  0  0  0  0  0  0  0  0
   -3.7716    1.2891   -1.1914 H   0  0  0  0  0  0  0  0  0  0  0  0
   -2.5554    0.7254   -2.3752 H   0  0  0  0  0  0  0  0  0  0  0  0
   -1.5417    2.7026   -2.3225 H   0  0  0  0  0  0  0  0  0  0  0  0
   -2.4079    3.3272   -0.8739 H   0  0  0  0  0  0  0  0  0  0  0  0
   -0.9782    2.3692    0.6728 H   0  0  0  0  0  0  0  0  0  0  0  0
    1.4903    2.3337    1.1297 H   0  0  0  0  0  0  0  0  0  0  0  0
    2.9221    3.1746   -2.1697 H   0  0  0  0  0  0  0  0  0  0  0  0
    6.7031    4.4277   -0.6117 H   0  0  0  0  0  0  0  0  0  0  0  0
    5.8857    4.1989    1.6607 H   0  0  0  0  0  0  0  0  0  0  0  0
  1 38  1  0  0  0  0
  1 39  1  0  0  0  0
  1 40  1  0  0  0  0
  2  1  1  6  0  0  0
  3  2  1  0  0  0  0
  3 41  1  0  0  0  0
  3 42  1  0  0  0  0
  4  3  1  0  0  0  0
  4 43  1  0  0  0  0
  4 44  1  0  0  0  0
  5  4  1  0  0  0  0
  5 45  1  1  0  0  0
  6  5  1  0  0  0  0
  6 46  1  6  0  0  0
  7  6  1  0  0  0  0
  7 47  1  0  0  0  0
  7 48  1  0  0  0  0
  8  7  1  0  0  0  0
  8 49  1  0  0  0  0
  8 50  1  0  0  0  0
  9  8  1  0  0  0  0
  9 51  1  1  0  0  0
 10  9  1  0  0  0  0
 11 10  2  0  0  0  0
 12 11  1  0  0  0  0
 12 52  1  0  0  0  0
 13 11  1  0  0  0  0
 13 53  1  0  0  0  0
 14 13  2  0  0  0  0
 14 54  1  0  0  0  0
 15 14  1  0  0  0  0
 15  5  1  0  0  0  0
 15  9  1  0  0  0  0
 15 16  1  6  0  0  0
 16 55  1  0  0  0  0
 16 56  1  0  0  0  0
 16 57  1  0  0  0  0
 17  6  1  0  0  0  0
 17  2  1  0  0  0  0
 17 58  1  1  0  0  0
 18 17  1  0  0  0  0
 18 59  1  0  0  0  0
 18 60  1  0  0  0  0
 19 18  1  0  0  0  0
 19 61  1  0  0  0  0
 19 62  1  0  0  0  0
 20 19  1  0  0  0  0
 20  2  1  0  0  0  0
 20 63  1  1  0  0  0
 21 20  1  0  0  0  0
 22 21  2  0  0  0  0
 23 21  1  0  0  0  0
 23 64  1  0  0  0  0
 24 23  1  0  0  0  0
 25 24  2  0  0  0  0
 25 65  1  0  0  0  0
 26 25  1  0  0  0  0
 27 26  2  0  0  0  0
 27 66  1  0  0  0  0
 28 27  1  0  0  0  0
 28 67  1  0  0  0  0
 29 28  2  0  0  0  0
 29 24  1  0  0  0  0
 30 29  1  0  0  0  0
 31 30  1  0  0  0  0
 32 30  1  0  0  0  0
 33 30  1  0  0  0  0
 34 26  1  0  0  0  0
 35 34  1  0  0  0  0
 36 34  1  0  0  0  0
 37 34  1  0  0  0  0
M  END
>  <MOL Chiral Flag>
0

>  <energy>
123.99851525169311

$$$$
> 124_AKC_acs.jmedchem.1c00813
>122.sdf
 OpenBabel10052218383D

 37 39  0  0  0  0  0  0  0  0999 V2000
   -5.4852    0.2087   -1.5263 C   0  0  0  0  0  0  0  0  0  0  0  0
   -4.5938    0.5361   -0.4220 N   0  0  0  0  0  0  0  0  0  0  0  0
   -5.1330    1.2473    0.7305 C   0  0  0  0  0  0  0  0  0  0  0  0
   -3.1916    0.1882   -0.4794 C   0  0  0  0  0  0  0  0  0  0  0  0
   -2.6372   -0.4306   -1.6261 C   0  0  0  0  0  0  0  0  0  0  0  0
   -1.2715   -0.7296   -1.6912 C   0  0  0  0  0  0  0  0  0  0  0  0
   -0.4294   -0.4172   -0.6172 C   0  0  0  0  0  0  0  0  0  0  0  0
    0.9488   -0.6584   -0.6806 C   0  0  0  0  0  0  0  0  0  0  0  0
    1.7846   -0.2761    0.3860 C   0  0  0  0  0  0  0  0  0  0  0  0
    1.1854    0.2894    1.5455 C   0  0  0  0  0  0  0  0  0  0  0  0
    1.9394    0.5989    2.7083 N   0  0  0  0  0  0  0  0  0  0  0  0
   -0.1578    0.4941    1.5762 N   0  0  0  0  0  0  0  0  0  0  0  0
   -0.9671    0.1812    0.5334 C   0  0  0  0  0  0  0  0  0  0  0  0
   -2.3303    0.4762    0.6041 C   0  0  0  0  0  0  0  0  0  0  0  0
    3.2610   -0.4146    0.2340 C   0  0  0  0  0  0  0  0  0  0  0  0
    3.8331   -1.5738   -0.3223 C   0  0  0  0  0  0  0  0  0  0  0  0
    5.2227   -1.6674   -0.4815 C   0  0  0  0  0  0  0  0  0  0  0  0
    5.9355   -3.1278   -1.1409 Cl  0  0  0  0  0  0  0  0  0  0  0  0
    6.0452   -0.5957   -0.1182 C   0  0  0  0  0  0  0  0  0  0  0  0
    5.4840    0.5682    0.4096 C   0  0  0  0  0  0  0  0  0  0  0  0
    6.5086    1.9281    0.8326 Cl  0  0  0  0  0  0  0  0  0  0  0  0
    4.1030    0.6570    0.5903 C   0  0  0  0  0  0  0  0  0  0  0  0
   -6.5269    0.5451   -1.3401 H   0  0  0  0  0  0  0  0  0  0  0  0
   -5.1381    0.7088   -2.4550 H   0  0  0  0  0  0  0  0  0  0  0  0
   -5.5109   -0.8912   -1.6756 H   0  0  0  0  0  0  0  0  0  0  0  0
   -5.0053    0.6375    1.6493 H   0  0  0  0  0  0  0  0  0  0  0  0
   -4.6097    2.2207    0.8486 H   0  0  0  0  0  0  0  0  0  0  0  0
   -6.2158    1.4670    0.6235 H   0  0  0  0  0  0  0  0  0  0  0  0
   -3.2492   -0.6719   -2.4832 H   0  0  0  0  0  0  0  0  0  0  0  0
   -0.8705   -1.1867   -2.5883 H   0  0  0  0  0  0  0  0  0  0  0  0
    1.3770   -1.0868   -1.5799 H   0  0  0  0  0  0  0  0  0  0  0  0
    2.9294    0.3394    2.8022 H   0  0  0  0  0  0  0  0  0  0  0  0
    1.4619    0.9862    3.5346 H   0  0  0  0  0  0  0  0  0  0  0  0
   -2.7025    0.9460    1.5035 H   0  0  0  0  0  0  0  0  0  0  0  0
    3.2066   -2.4087   -0.6107 H   0  0  0  0  0  0  0  0  0  0  0  0
    7.1173   -0.6634   -0.2528 H   0  0  0  0  0  0  0  0  0  0  0  0
    3.6820    1.5762    0.9794 H   0  0  0  0  0  0  0  0  0  0  0  0
  1 23  1  0  0  0  0
  1 24  1  0  0  0  0
  1 25  1  0  0  0  0
  2  1  1  0  0  0  0
  3  2  1  0  0  0  0
  3 26  1  0  0  0  0
  3 27  1  0  0  0  0
  3 28  1  0  0  0  0
  4  2  1  0  0  0  0
  5  4  2  0  0  0  0
  5 29  1  0  0  0  0
  6  5  1  0  0  0  0
  6 30  1  0  0  0  0
  7  6  2  0  0  0  0
  8  7  1  0  0  0  0
  8 31  1  0  0  0  0
  9  8  2  0  0  0  0
 10  9  1  0  0  0  0
 11 10  1  0  0  0  0
 11 32  1  0  0  0  0
 11 33  1  0  0  0  0
 12 10  2  0  0  0  0
 13 12  1  0  0  0  0
 13  7  1  0  0  0  0
 14 13  2  0  0  0  0
 14  4  1  0  0  0  0
 14 34  1  0  0  0  0
 15  9  1  0  0  0  0
 16 15  2  0  0  0  0
 16 35  1  0  0  0  0
 17 16  1  0  0  0  0
 18 17  1  0  0  0  0
 19 17  2  0  0  0  0
 19 36  1  0  0  0  0
 20 19  1  0  0  0  0
 21 20  1  0  0  0  0
 22 20  2  0  0  0  0
 22 15  1  0  0  0  0
 22 37  1  0  0  0  0
M  END
>  <MOL Chiral Flag>
0

>  <energy>
15.94599365574588

$$$$
> 125_AKC_fmb-2020-0320
>123.sdf
 OpenBabel10052218393D

 58 61  0  0  0  0  0  0  0  0999 V2000
    4.3536   -1.9370    0.7563 C   0  0  0  0  0  0  0  0  0  0  0  0
    3.2423   -0.9338    1.1181 C   0  0  2  0  0  0  0  0  0  0  0  0
    1.9575   -1.4674    0.6202 N   0  0  0  0  0  0  0  0  0  0  0  0
    1.7812   -1.8389   -0.6380 N   0  0  0  0  0  0  0  0  0  0  0  0
    0.4841   -2.1557   -0.7847 C   0  0  0  0  0  0  0  0  0  0  0  0
   -0.2014   -1.9689    0.3705 N   0  0  0  0  0  0  0  0  0  0  0  0
    0.7637   -1.5737    1.2487 C   0  0  0  0  0  0  0  0  0  0  0  0
    0.5583   -1.2657    2.6425 S   0  0  0  0  0  0  0  0  0  0  0  0
   -1.6517   -2.0689    0.4725 C   0  0  0  0  0  0  0  0  0  0  0  0
   -2.3810   -2.7987   -0.4912 C   0  0  0  0  0  0  0  0  0  0  0  0
   -3.7768   -2.7904   -0.4906 C   0  0  0  0  0  0  0  0  0  0  0  0
   -4.4826   -2.0404    0.4512 C   0  0  0  0  0  0  0  0  0  0  0  0
   -5.8383   -1.9937    0.3566 O   0  0  0  0  0  0  0  0  0  0  0  0
   -6.6756   -1.0361    0.9103 C   0  0  0  0  0  0  0  0  0  0  0  0
   -6.7665    0.2630    0.0724 C   0  0  0  0  0  0  0  0  0  0  0  0
   -7.2028   -0.0477   -1.2047 F   0  0  0  0  0  0  0  0  0  0  0  0
   -7.7192    1.0709    0.6700 F   0  0  0  0  0  0  0  0  0  0  0  0
   -5.4677    1.0767   -0.0344 C   0  0  0  0  0  0  0  0  0  0  0  0
   -4.5123    0.4090   -0.7763 F   0  0  0  0  0  0  0  0  0  0  0  0
   -5.7302    2.2757   -0.6731 F   0  0  0  0  0  0  0  0  0  0  0  0
   -3.7690   -1.3380    1.4394 C   0  0  0  0  0  0  0  0  0  0  0  0
   -2.3746   -1.3538    1.4511 C   0  0  0  0  0  0  0  0  0  0  0  0
    3.4118    0.5668    0.6031 C   0  0  2  0  0  0  0  0  0  0  0  0
    4.6525    1.1261    0.9756 O   0  0  0  0  0  0  0  0  0  0  0  0
    2.3535    1.4199    1.3898 C   0  0  0  0  0  0  0  0  0  0  0  0
    2.3452    2.8424    1.0284 N   0  0  0  0  0  0  0  0  0  0  0  0
    3.3418    3.7381    1.1463 C   0  0  0  0  0  0  0  0  0  0  0  0
    2.9347    4.9552    0.7364 N   0  0  0  0  0  0  0  0  0  0  0  0
    1.6499    4.7545    0.3725 C   0  0  0  0  0  0  0  0  0  0  0  0
    1.2856    3.4722    0.5533 N   0  0  0  0  0  0  0  0  0  0  0  0
    3.2245    0.6634   -0.9376 C   0  0  0  0  0  0  0  0  0  0  0  0
    1.9903    1.0832   -1.5031 C   0  0  0  0  0  0  0  0  0  0  0  0
    1.8103    1.1363   -2.8847 C   0  0  0  0  0  0  0  0  0  0  0  0
    2.8459    0.7783   -3.7402 C   0  0  0  0  0  0  0  0  0  0  0  0
    2.6629    0.8294   -5.0826 F   0  0  0  0  0  0  0  0  0  0  0  0
    4.0679    0.3619   -3.2160 C   0  0  0  0  0  0  0  0  0  0  0  0
    4.2646    0.2977   -1.8311 C   0  0  0  0  0  0  0  0  0  0  0  0
    5.4737   -0.1127   -1.3791 F   0  0  0  0  0  0  0  0  0  0  0  0
    4.4408   -2.0690   -0.3401 H   0  0  0  0  0  0  0  0  0  0  0  0
    5.3368   -1.6454    1.1752 H   0  0  0  0  0  0  0  0  0  0  0  0
    4.1056   -2.9278    1.1930 H   0  0  0  0  0  0  0  0  0  0  0  0
    3.2387   -0.8927    2.2297 H   0  0  0  0  0  0  0  0  0  0  0  0
    0.0551   -2.4428   -1.7336 H   0  0  0  0  0  0  0  0  0  0  0  0
   -1.8765   -3.3626   -1.2619 H   0  0  0  0  0  0  0  0  0  0  0  0
   -4.3132   -3.3386   -1.2550 H   0  0  0  0  0  0  0  0  0  0  0  0
   -6.4302   -0.8340    1.9724 H   0  0  0  0  0  0  0  0  0  0  0  0
   -7.6978   -1.4696    0.9160 H   0  0  0  0  0  0  0  0  0  0  0  0
   -5.0703    1.3044    0.9770 H   0  0  0  0  0  0  0  0  0  0  0  0
   -4.2765   -0.7476    2.1864 H   0  0  0  0  0  0  0  0  0  0  0  0
   -1.8884   -0.7500    2.1937 H   0  0  0  0  0  0  0  0  0  0  0  0
    5.3800    0.4720    0.8623 H   0  0  0  0  0  0  0  0  0  0  0  0
    1.3325    1.0234    1.2383 H   0  0  0  0  0  0  0  0  0  0  0  0
    2.5608    1.3447    2.4803 H   0  0  0  0  0  0  0  0  0  0  0  0
    4.3307    3.5276    1.5278 H   0  0  0  0  0  0  0  0  0  0  0  0
    0.9942    5.5256   -0.0089 H   0  0  0  0  0  0  0  0  0  0  0  0
    1.1453    1.3494   -0.8929 H   0  0  0  0  0  0  0  0  0  0  0  0
    0.8569    1.4509   -3.2908 H   0  0  0  0  0  0  0  0  0  0  0  0
    4.8697    0.0829   -3.8870 H   0  0  0  0  0  0  0  0  0  0  0  0
  1 39  1  0  0  0  0
  1 40  1  0  0  0  0
  1 41  1  0  0  0  0
  2  1  1  0  0  0  0
  2 42  1  1  0  0  0
  3  2  1  0  0  0  0
  4  3  1  0  0  0  0
  5  4  2  0  0  0  0
  5 43  1  0  0  0  0
  6  5  1  0  0  0  0
  7  6  1  0  0  0  0
  7  3  1  0  0  0  0
  8  7  2  0  0  0  0
  9  6  1  0  0  0  0
 10  9  2  0  0  0  0
 10 44  1  0  0  0  0
 11 10  1  0  0  0  0
 11 45  1  0  0  0  0
 12 11  2  0  0  0  0
 13 12  1  0  0  0  0
 14 13  1  0  0  0  0
 14 46  1  0  0  0  0
 14 47  1  0  0  0  0
 15 14  1  0  0  0  0
 16 15  1  0  0  0  0
 17 15  1  0  0  0  0
 18 15  1  0  0  0  0
 18 48  1  0  0  0  0
 19 18  1  0  0  0  0
 20 18  1  0  0  0  0
 21 12  1  0  0  0  0
 21 49  1  0  0  0  0
 22 21  2  0  0  0  0
 22  9  1  0  0  0  0
 22 50  1  0  0  0  0
 23  2  1  0  0  0  0
 23 24  1  1  0  0  0
 24 51  1  0  0  0  0
 25 23  1  0  0  0  0
 25 52  1  0  0  0  0
 25 53  1  0  0  0  0
 26 25  1  0  0  0  0
 27 26  1  0  0  0  0
 27 54  1  0  0  0  0
 28 27  2  0  0  0  0
 29 28  1  0  0  0  0
 29 55  1  0  0  0  0
 30 29  2  0  0  0  0
 30 26  1  0  0  0  0
 31 23  1  0  0  0  0
 32 31  2  0  0  0  0
 32 56  1  0  0  0  0
 33 32  1  0  0  0  0
 33 57  1  0  0  0  0
 34 33  2  0  0  0  0
 35 34  1  0  0  0  0
 36 34  1  0  0  0  0
 36 58  1  0  0  0  0
 37 36  2  0  0  0  0
 37 31  1  0  0  0  0
 38 37  1  0  0  0  0
M  END
>  <MOL Chiral Flag>
0

>  <energy>
165.62700163706751

$$$$
> 126_AKC_j.ijpddr.2021.02.006
>124.sdf
 OpenBabel10052218393D

 46 47  0  0  0  0  0  0  0  0999 V2000
   -4.9606   -0.3619    3.5018 C   0  0  0  0  0  0  0  0  0  0  0  0
   -4.0158    0.6426    3.5530 O   0  0  0  0  0  0  0  0  0  0  0  0
   -3.3368    1.1343    2.4827 C   0  0  0  0  0  0  0  0  0  0  0  0
   -2.3969    2.1507    2.6966 C   0  0  0  0  0  0  0  0  0  0  0  0
   -1.6726    2.6838    1.6270 C   0  0  0  0  0  0  0  0  0  0  0  0
   -1.8818    2.2074    0.3291 C   0  0  0  0  0  0  0  0  0  0  0  0
   -2.8200    1.1934    0.1030 C   0  0  0  0  0  0  0  0  0  0  0  0
   -3.5453    0.6561    1.1708 C   0  0  0  0  0  0  0  0  0  0  0  0
   -0.9350    2.8923   -1.0316 S   0  0  0  0  0  0  0  0  0  0  0  0
   -1.0376    4.4240   -1.0909 O   0  0  0  0  0  0  0  0  0  0  0  0
   -1.4347    2.4882   -2.4277 O   0  0  0  0  0  0  0  0  0  0  0  0
    0.7944    2.5659   -1.0352 N   0  0  0  0  0  0  0  0  0  0  0  0
    1.3405    1.2453   -1.1132 C   0  0  0  0  0  0  0  0  0  0  0  0
    0.5087    0.1229   -1.2769 C   0  0  0  0  0  0  0  0  0  0  0  0
    1.0427   -1.1799   -1.3523 C   0  0  0  0  0  0  0  0  0  0  0  0
    0.2416   -2.2554   -1.5862 O   0  0  0  0  0  0  0  0  0  0  0  0
   -1.1290   -2.2166   -1.7556 C   0  0  0  0  0  0  0  0  0  0  0  0
    2.4408   -1.3624   -1.2362 C   0  0  0  0  0  0  0  0  0  0  0  0
    3.0647   -2.6497   -1.3151 N   0  0  0  0  0  0  0  0  0  0  0  0
    2.6601   -3.7982   -0.6855 C   0  0  0  0  0  0  0  0  0  0  0  0
    3.2919   -4.8257   -0.8848 O   0  0  0  0  0  0  0  0  0  0  0  0
    1.5451   -3.8558    0.3345 C   0  0  0  0  0  0  0  0  0  0  0  0
    0.2911   -5.0165   -0.1751 Cl  0  0  0  0  0  0  0  0  0  0  0  0
    3.2688   -0.2379   -1.1133 C   0  0  0  0  0  0  0  0  0  0  0  0
    2.7342    1.0633   -1.0406 C   0  0  0  0  0  0  0  0  0  0  0  0
    3.5345    2.1562   -0.8983 O   0  0  0  0  0  0  0  0  0  0  0  0
    4.9113    2.1368   -0.8037 C   0  0  0  0  0  0  0  0  0  0  0  0
   -5.3420   -0.5516    4.5260 H   0  0  0  0  0  0  0  0  0  0  0  0
   -5.8136   -0.0564    2.8590 H   0  0  0  0  0  0  0  0  0  0  0  0
   -4.5052   -1.2990    3.1162 H   0  0  0  0  0  0  0  0  0  0  0  0
   -2.2263    2.5268    3.6976 H   0  0  0  0  0  0  0  0  0  0  0  0
   -0.9470    3.4666    1.8082 H   0  0  0  0  0  0  0  0  0  0  0  0
   -2.9869    0.8175   -0.8982 H   0  0  0  0  0  0  0  0  0  0  0  0
   -4.2624   -0.1280    0.9698 H   0  0  0  0  0  0  0  0  0  0  0  0
    1.4255    3.3725   -0.9248 H   0  0  0  0  0  0  0  0  0  0  0  0
   -0.5540    0.2594   -1.3634 H   0  0  0  0  0  0  0  0  0  0  0  0
   -1.6194   -1.8214   -0.8403 H   0  0  0  0  0  0  0  0  0  0  0  0
   -1.5012   -3.2455   -1.9364 H   0  0  0  0  0  0  0  0  0  0  0  0
   -1.3916   -1.5913   -2.6355 H   0  0  0  0  0  0  0  0  0  0  0  0
    3.9568   -2.6970   -1.8328 H   0  0  0  0  0  0  0  0  0  0  0  0
    1.0886   -2.8787    0.5719 H   0  0  0  0  0  0  0  0  0  0  0  0
    1.9732   -4.2204    1.2918 H   0  0  0  0  0  0  0  0  0  0  0  0
    4.3382   -0.3910   -1.0556 H   0  0  0  0  0  0  0  0  0  0  0  0
    5.2277    1.5559    0.0889 H   0  0  0  0  0  0  0  0  0  0  0  0
    5.3549    1.7012   -1.7243 H   0  0  0  0  0  0  0  0  0  0  0  0
    5.2802    3.1771   -0.6943 H   0  0  0  0  0  0  0  0  0  0  0  0
  1 28  1  0  0  0  0
  1 29  1  0  0  0  0
  1 30  1  0  0  0  0
  2  1  1  0  0  0  0
  3  2  1  0  0  0  0
  4  3  2  0  0  0  0
  4 31  1  0  0  0  0
  5  4  1  0  0  0  0
  5 32  1  0  0  0  0
  6  5  2  0  0  0  0
  7  6  1  0  0  0  0
  7 33  1  0  0  0  0
  8  7  2  0  0  0  0
  8  3  1  0  0  0  0
  8 34  1  0  0  0  0
  9  6  1  0  0  0  0
 10  9  2  0  0  0  0
 11  9  2  0  0  0  0
 12  9  1  0  0  0  0
 12 35  1  0  0  0  0
 13 12  1  0  0  0  0
 14 13  2  0  0  0  0
 14 36  1  0  0  0  0
 15 14  1  0  0  0  0
 16 15  1  0  0  0  0
 17 16  1  0  0  0  0
 17 37  1  0  0  0  0
 17 38  1  0  0  0  0
 17 39  1  0  0  0  0
 18 15  2  0  0  0  0
 19 18  1  0  0  0  0
 19 40  1  0  0  0  0
 20 19  1  0  0  0  0
 21 20  2  0  0  0  0
 22 20  1  0  0  0  0
 22 41  1  0  0  0  0
 22 42  1  0  0  0  0
 23 22  1  0  0  0  0
 24 18  1  0  0  0  0
 24 43  1  0  0  0  0
 25 24  2  0  0  0  0
 25 13  1  0  0  0  0
 26 25  1  0  0  0  0
 27 26  1  0  0  0  0
 27 44  1  0  0  0  0
 27 45  1  0  0  0  0
 27 46  1  0  0  0  0
M  END
>  <MOL Chiral Flag>
0

>  <energy>
48.617226896756932

$$$$
> 127_AKC_j.ijpddr.2021.02.006
>125.sdf
 OpenBabel10052218393D

 50 52  0  0  0  0  0  0  0  0999 V2000
   -3.2235    4.5114   -1.5842 C   0  0  0  0  0  0  0  0  0  0  0  0
   -3.8103    3.3429   -2.0039 O   0  0  0  0  0  0  0  0  0  0  0  0
   -3.3936    2.2081   -1.4240 C   0  0  0  0  0  0  0  0  0  0  0  0
   -2.2437    1.5594   -1.8905 C   0  0  0  0  0  0  0  0  0  0  0  0
   -1.8257    0.3803   -1.2856 C   0  0  0  0  0  0  0  0  0  0  0  0
   -2.5470   -0.1245   -0.2074 C   0  0  0  0  0  0  0  0  0  0  0  0
   -3.6888    0.5148    0.2720 C   0  0  0  0  0  0  0  0  0  0  0  0
   -4.1123    1.6877   -0.3427 C   0  0  0  0  0  0  0  0  0  0  0  0
   -2.0034   -1.5658    0.5130 S   0  0  0  0  0  0  0  0  0  0  0  0
   -2.6723   -1.8147    1.8743 O   0  0  0  0  0  0  0  0  0  0  0  0
   -2.1666   -2.7626   -0.4330 O   0  0  0  0  0  0  0  0  0  0  0  0
   -0.3438   -1.3971    0.9070 N   0  0  0  0  0  0  0  0  0  0  0  0
    0.4042   -2.5850    0.9389 C   0  0  0  0  0  0  0  0  0  0  0  0
    0.4549   -3.3225    2.1286 C   0  0  0  0  0  0  0  0  0  0  0  0
    1.1083   -4.5562    2.1598 C   0  0  0  0  0  0  0  0  0  0  0  0
    1.7074   -5.0614    0.9959 C   0  0  0  0  0  0  0  0  0  0  0  0
    1.6605   -4.3251   -0.1900 C   0  0  0  0  0  0  0  0  0  0  0  0
    1.0113   -3.0845   -0.2195 C   0  0  0  0  0  0  0  0  0  0  0  0
    0.9427   -2.3933   -1.3625 O   0  0  0  0  0  0  0  0  0  0  0  0
    2.2796   -1.5630   -1.8953 S   0  0  0  0  0  0  0  0  0  0  0  0
    2.1549   -1.4365   -3.4161 O   0  0  0  0  0  0  0  0  0  0  0  0
    3.5391   -2.3552   -1.5125 O   0  0  0  0  0  0  0  0  0  0  0  0
    2.3114   -0.0131   -1.1618 C   0  0  0  0  0  0  0  0  0  0  0  0
    1.8202    1.0880   -1.8613 C   0  0  0  0  0  0  0  0  0  0  0  0
    1.8318    2.3377   -1.2561 C   0  0  0  0  0  0  0  0  0  0  0  0
    2.3246    2.4854    0.0380 C   0  0  0  0  0  0  0  0  0  0  0  0
    2.2625    3.6998    0.6114 O   0  0  0  0  0  0  0  0  0  0  0  0
    1.6225    3.8100    1.8239 C   0  0  0  0  0  0  0  0  0  0  0  0
    2.8377    1.3713    0.7317 C   0  0  0  0  0  0  0  0  0  0  0  0
    2.8343    0.1196    0.1248 C   0  0  0  0  0  0  0  0  0  0  0  0
    1.1581   -5.3098    3.3841 C   0  0  0  0  0  0  0  0  0  0  0  0
    1.2272   -5.9545    4.3424 N   0  0  0  0  0  0  0  0  0  0  0  0
   -3.6961    5.3771   -2.0563 H   0  0  0  0  0  0  0  0  0  0  0  0
   -2.1435    4.5165   -1.8354 H   0  0  0  0  0  0  0  0  0  0  0  0
   -3.3325    4.6166   -0.4816 H   0  0  0  0  0  0  0  0  0  0  0  0
   -1.7018    1.9581   -2.7390 H   0  0  0  0  0  0  0  0  0  0  0  0
   -0.9576   -0.1510   -1.6689 H   0  0  0  0  0  0  0  0  0  0  0  0
   -4.2617    0.0999    1.0973 H   0  0  0  0  0  0  0  0  0  0  0  0
   -5.0098    2.1882   -0.0017 H   0  0  0  0  0  0  0  0  0  0  0  0
   -0.3210   -0.8482    1.7686 H   0  0  0  0  0  0  0  0  0  0  0  0
   -0.0462   -2.9512    3.0208 H   0  0  0  0  0  0  0  0  0  0  0  0
    2.2037   -6.0244    1.0043 H   0  0  0  0  0  0  0  0  0  0  0  0
    2.1105   -4.7281   -1.0911 H   0  0  0  0  0  0  0  0  0  0  0  0
    1.4405    0.9870   -2.8745 H   0  0  0  0  0  0  0  0  0  0  0  0
    1.4572    3.2036   -1.7849 H   0  0  0  0  0  0  0  0  0  0  0  0
    1.4325    4.8603    2.0609 H   0  0  0  0  0  0  0  0  0  0  0  0
    0.6329    3.2942    1.7712 H   0  0  0  0  0  0  0  0  0  0  0  0
    2.2174    3.3650    2.6400 H   0  0  0  0  0  0  0  0  0  0  0  0
    3.2613    1.4827    1.7230 H   0  0  0  0  0  0  0  0  0  0  0  0
    3.2523   -0.7375    0.6481 H   0  0  0  0  0  0  0  0  0  0  0  0
  1 33  1  0  0  0  0
  1 34  1  0  0  0  0
  1 35  1  0  0  0  0
  2  1  1  0  0  0  0
  3  2  1  0  0  0  0
  4  3  2  0  0  0  0
  4 36  1  0  0  0  0
  5  4  1  0  0  0  0
  5 37  1  0  0  0  0
  6  5  2  0  0  0  0
  7  6  1  0  0  0  0
  7 38  1  0  0  0  0
  8  7  2  0  0  0  0
  8  3  1  0  0  0  0
  8 39  1  0  0  0  0
  9  6  1  0  0  0  0
 10  9  2  0  0  0  0
 11  9  2  0  0  0  0
 12  9  1  0  0  0  0
 12 40  1  0  0  0  0
 13 12  1  0  0  0  0
 14 13  2  0  0  0  0
 14 41  1  0  0  0  0
 15 14  1  0  0  0  0
 16 15  2  0  0  0  0
 16 42  1  0  0  0  0
 17 16  1  0  0  0  0
 17 43  1  0  0  0  0
 18 17  2  0  0  0  0
 18 13  1  0  0  0  0
 19 18  1  0  0  0  0
 20 19  1  0  0  0  0
 21 20  2  0  0  0  0
 22 20  2  0  0  0  0
 23 20  1  0  0  0  0
 24 23  2  0  0  0  0
 24 44  1  0  0  0  0
 25 24  1  0  0  0  0
 25 45  1  0  0  0  0
 26 25  2  0  0  0  0
 27 26  1  0  0  0  0
 28 27  1  0  0  0  0
 28 46  1  0  0  0  0
 28 47  1  0  0  0  0
 28 48  1  0  0  0  0
 29 26  1  0  0  0  0
 29 49  1  0  0  0  0
 30 29  2  0  0  0  0
 30 23  1  0  0  0  0
 30 50  1  0  0  0  0
 31 15  1  0  0  0  0
 32 31  3  0  0  0  0
M  END
>  <MOL Chiral Flag>
0

>  <energy>
69.653646823726604

$$$$
> 128_AKC_j.parint.2021.102342
>126.sdf
 OpenBabel10052218403D

 40 43  0  0  0  0  0  0  0  0999 V2000
   -4.9446    4.7582   -0.4323 Cl  0  0  0  0  0  0  0  0  0  0  0  0
   -3.6540    3.5732   -0.3475 C   0  0  0  0  0  0  0  0  0  0  0  0
   -2.4207    3.9209    0.2070 C   0  0  0  0  0  0  0  0  0  0  0  0
   -1.3906    2.9784    0.2778 C   0  0  0  0  0  0  0  0  0  0  0  0
   -1.5775    1.6725   -0.2202 C   0  0  0  0  0  0  0  0  0  0  0  0
   -2.8370    1.3295   -0.7515 C   0  0  0  0  0  0  0  0  0  0  0  0
   -3.8627    2.2767   -0.8216 C   0  0  0  0  0  0  0  0  0  0  0  0
   -0.5073    0.6321   -0.1301 C   0  0  0  0  0  0  0  0  0  0  0  0
    0.8659    0.7843   -0.0687 N   0  3  0  0  0  0  0  0  0  0  0  0
    1.5212   -0.3780    0.1529 N   0  0  0  0  0  0  0  0  0  0  0  0
    0.7185   -1.4701    0.2511 C   0  0  0  0  0  0  0  0  0  0  0  0
    1.2468   -2.7866    0.4299 N   0  0  0  0  0  0  0  0  0  0  0  0
    0.5303   -4.0233    0.5899 C   0  0  0  0  0  0  0  0  0  0  0  0
    1.2687   -5.2230    0.5413 C   0  0  0  0  0  0  0  0  0  0  0  0
    0.6403   -6.4617    0.6915 C   0  0  0  0  0  0  0  0  0  0  0  0
   -0.7356   -6.5266    0.8999 C   0  0  0  0  0  0  0  0  0  0  0  0
   -1.4849   -5.3527    0.9631 C   0  0  0  0  0  0  0  0  0  0  0  0
   -0.8647   -4.1074    0.8122 C   0  0  0  0  0  0  0  0  0  0  0  0
   -0.8407   -0.9802    0.0444 S   0  0  0  0  0  0  0  0  0  0  0  0
    1.6408    1.9867   -0.2985 C   0  0  0  0  0  0  0  0  0  0  0  0
    2.9074    2.1229    0.3032 C   0  0  0  0  0  0  0  0  0  0  0  0
    3.6882    3.2587    0.0696 C   0  0  0  0  0  0  0  0  0  0  0  0
    3.2262    4.2638   -0.7812 C   0  0  0  0  0  0  0  0  0  0  0  0
    1.9869    4.1308   -1.4086 C   0  0  0  0  0  0  0  0  0  0  0  0
    1.1999    2.9986   -1.1777 C   0  0  0  0  0  0  0  0  0  0  0  0
   -2.2611    4.9201    0.5920 H   0  0  0  0  0  0  0  0  0  0  0  0
   -0.4609    3.2689    0.7433 H   0  0  0  0  0  0  0  0  0  0  0  0
   -3.0245    0.3309   -1.1248 H   0  0  0  0  0  0  0  0  0  0  0  0
   -4.8209    2.0002   -1.2428 H   0  0  0  0  0  0  0  0  0  0  0  0
    2.2761   -2.8517    0.4078 H   0  0  0  0  0  0  0  0  0  0  0  0
    2.3392   -5.1959    0.3800 H   0  0  0  0  0  0  0  0  0  0  0  0
    1.2234   -7.3726    0.6465 H   0  0  0  0  0  0  0  0  0  0  0  0
   -1.2213   -7.4867    1.0178 H   0  0  0  0  0  0  0  0  0  0  0  0
   -2.5526   -5.4057    1.1342 H   0  0  0  0  0  0  0  0  0  0  0  0
   -1.4913   -3.2455    0.8903 H   0  0  0  0  0  0  0  0  0  0  0  0
    3.2847    1.3527    0.9638 H   0  0  0  0  0  0  0  0  0  0  0  0
    4.6546    3.3574    0.5468 H   0  0  0  0  0  0  0  0  0  0  0  0
    3.8341    5.1405   -0.9637 H   0  0  0  0  0  0  0  0  0  0  0  0
    1.6381    4.9021   -2.0832 H   0  0  0  0  0  0  0  0  0  0  0  0
    0.2614    2.9074   -1.7038 H   0  0  0  0  0  0  0  0  0  0  0  0
  2  1  1  0  0  0  0
  3  2  2  0  0  0  0
  3 26  1  0  0  0  0
  4  3  1  0  0  0  0
  4 27  1  0  0  0  0
  5  4  2  0  0  0  0
  6  5  1  0  0  0  0
  6 28  1  0  0  0  0
  7  6  2  0  0  0  0
  7  2  1  0  0  0  0
  7 29  1  0  0  0  0
  8  5  1  0  0  0  0
  9  8  2  0  0  0  0
 10  9  1  0  0  0  0
 11 10  2  0  0  0  0
 12 11  1  0  0  0  0
 12 30  1  0  0  0  0
 13 12  1  0  0  0  0
 14 13  2  0  0  0  0
 14 31  1  0  0  0  0
 15 14  1  0  0  0  0
 15 32  1  0  0  0  0
 16 15  2  0  0  0  0
 16 33  1  0  0  0  0
 17 16  1  0  0  0  0
 17 34  1  0  0  0  0
 18 17  2  0  0  0  0
 18 13  1  0  0  0  0
 18 35  1  0  0  0  0
 19 11  1  0  0  0  0
 19  8  1  0  0  0  0
 20  9  1  0  0  0  0
 21 20  2  0  0  0  0
 21 36  1  0  0  0  0
 22 21  1  0  0  0  0
 22 37  1  0  0  0  0
 23 22  2  0  0  0  0
 23 38  1  0  0  0  0
 24 23  1  0  0  0  0
 24 39  1  0  0  0  0
 25 24  2  0  0  0  0
 25 20  1  0  0  0  0
 25 40  1  0  0  0  0
M  CHG  1   9   1
M  END
>  <MOL Chiral Flag>
0

>  <energy>
102.41857072861723

$$$$
> 129_AKC_acsinfecdis.0c00855
>127.sdf
 OpenBabel10052218413D

 69 71  0  0  0  0  0  0  0  0999 V2000
    1.9811   -2.1574   -2.4249 C   0  0  0  0  0  0  0  0  0  0  0  0
    0.9564   -1.0631   -2.0883 C   0  0  0  0  0  0  0  0  0  0  0  0
    0.4672   -0.4019   -3.3758 C   0  0  0  0  0  0  0  0  0  0  0  0
    1.5218   -0.0880   -1.2799 O   0  0  0  0  0  0  0  0  0  0  0  0
    1.9291   -0.2232    0.0150 C   0  0  0  0  0  0  0  0  0  0  0  0
    2.6729    0.8217    0.6098 C   0  0  0  0  0  0  0  0  0  0  0  0
    2.8977    2.0244   -0.1438 N   0  0  0  0  0  0  0  0  0  0  0  0
    3.7002    3.1371    0.2768 C   0  3  0  0  0  0  0  0  0  0  0  0
    4.8291    2.9414    0.8772 N   0  0  0  0  0  0  0  0  0  0  0  0
    3.2485    4.5347   -0.0299 C   0  0  0  0  0  0  0  0  0  0  0  0
    1.9813    4.7955   -0.5941 C   0  0  0  0  0  0  0  0  0  0  0  0
    1.5919    6.1127   -0.8389 C   0  0  0  0  0  0  0  0  0  0  0  0
    2.4525    7.1610   -0.5230 C   0  0  0  0  0  0  0  0  0  0  0  0
    3.6971    6.8770    0.0383 C   0  0  0  0  0  0  0  0  0  0  0  0
    4.0630    5.5878    0.2723 N   0  0  0  0  0  0  0  0  0  0  0  0
    3.0939    0.6821    1.9542 C   0  0  0  0  0  0  0  0  0  0  0  0
    2.7743   -0.4636    2.6875 C   0  0  0  0  0  0  0  0  0  0  0  0
    2.0062   -1.4731    2.1123 C   0  0  0  0  0  0  0  0  0  0  0  0
    1.6005   -2.5279    2.8651 O   0  0  0  0  0  0  0  0  0  0  0  0
    0.2483   -2.8042    3.0050 C   0  0  0  0  0  0  0  0  0  0  0  0
   -0.1465   -4.1246    2.3278 C   0  0  0  0  0  0  0  0  0  0  0  0
   -1.6825   -4.3401    2.3176 C   0  0  0  0  0  0  0  0  0  0  0  0
   -2.4814   -3.2690    1.5304 C   0  0  0  0  0  0  0  0  0  0  0  0
   -2.1854   -3.2764    0.0179 C   0  0  0  0  0  0  0  0  0  0  0  0
   -2.6806   -2.0165   -0.7089 C   0  0  0  0  0  0  0  0  0  0  0  0
   -4.1777   -1.7188   -0.5502 C   0  0  0  0  0  0  0  0  0  0  0  0
   -4.5812   -0.4770   -1.3633 C   0  0  0  0  0  0  0  0  0  0  0  0
   -3.7975    0.7000   -0.9779 N   0  0  0  0  0  0  0  0  0  0  0  0
   -3.7463    1.2869    0.2294 C   0  0  0  0  0  0  0  0  0  0  0  0
   -2.8790    2.3539    0.1476 C   0  0  0  0  0  0  0  0  0  0  0  0
   -2.3939    2.4316   -1.1091 N   0  0  0  0  0  0  0  0  0  0  0  0
   -2.9734    1.4099   -1.7736 C   0  0  0  0  0  0  0  0  0  0  0  0
    1.5979   -1.3586    0.7769 C   0  0  0  0  0  0  0  0  0  0  0  0
    1.5201   -2.9236   -3.0841 H   0  0  0  0  0  0  0  0  0  0  0  0
    2.3418   -2.6699   -1.5109 H   0  0  0  0  0  0  0  0  0  0  0  0
    2.8590   -1.7175   -2.9452 H   0  0  0  0  0  0  0  0  0  0  0  0
    0.0706   -1.5075   -1.5901 H   0  0  0  0  0  0  0  0  0  0  0  0
    1.3138    0.0709   -3.9187 H   0  0  0  0  0  0  0  0  0  0  0  0
   -0.2820    0.3814   -3.1343 H   0  0  0  0  0  0  0  0  0  0  0  0
   -0.0131   -1.1539   -4.0381 H   0  0  0  0  0  0  0  0  0  0  0  0
    2.3377    2.1488   -0.9971 H   0  0  0  0  0  0  0  0  0  0  0  0
    5.1854    1.9905    1.0442 H   0  0  0  0  0  0  0  0  0  0  0  0
    1.2870    4.0047   -0.8348 H   0  0  0  0  0  0  0  0  0  0  0  0
    0.6200    6.3195   -1.2690 H   0  0  0  0  0  0  0  0  0  0  0  0
    2.1556    8.1853   -0.7078 H   0  0  0  0  0  0  0  0  0  0  0  0
    4.3725    7.6827    0.2919 H   0  0  0  0  0  0  0  0  0  0  0  0
    3.6280    1.4657    2.4660 H   0  0  0  0  0  0  0  0  0  0  0  0
    3.0782   -0.5401    3.7239 H   0  0  0  0  0  0  0  0  0  0  0  0
   -0.3283   -1.9666    2.5683 H   0  0  0  0  0  0  0  0  0  0  0  0
   -0.0137   -2.8363    4.0838 H   0  0  0  0  0  0  0  0  0  0  0  0
    0.3425   -4.9594    2.8744 H   0  0  0  0  0  0  0  0  0  0  0  0
    0.2411   -4.1536    1.2923 H   0  0  0  0  0  0  0  0  0  0  0  0
   -2.0375   -4.3389    3.3711 H   0  0  0  0  0  0  0  0  0  0  0  0
   -1.9068   -5.3392    1.8856 H   0  0  0  0  0  0  0  0  0  0  0  0
   -2.2912   -2.2660    1.9535 H   0  0  0  0  0  0  0  0  0  0  0  0
   -3.5679   -3.4545    1.6705 H   0  0  0  0  0  0  0  0  0  0  0  0
   -2.6192   -4.1956   -0.4318 H   0  0  0  0  0  0  0  0  0  0  0  0
   -1.0955   -3.2918   -0.1673 H   0  0  0  0  0  0  0  0  0  0  0  0
   -2.4413   -2.1301   -1.7891 H   0  0  0  0  0  0  0  0  0  0  0  0
   -2.1024   -1.1504   -0.3182 H   0  0  0  0  0  0  0  0  0  0  0  0
   -4.4141   -1.5408    0.5202 H   0  0  0  0  0  0  0  0  0  0  0  0
   -4.7736   -2.5871   -0.9045 H   0  0  0  0  0  0  0  0  0  0  0  0
   -5.6614   -0.2678   -1.2094 H   0  0  0  0  0  0  0  0  0  0  0  0
   -4.4240   -0.6916   -2.4436 H   0  0  0  0  0  0  0  0  0  0  0  0
   -4.2945    0.9626    1.1041 H   0  0  0  0  0  0  0  0  0  0  0  0
   -2.6140    3.0321    0.9476 H   0  0  0  0  0  0  0  0  0  0  0  0
   -2.7912    1.1890   -2.8174 H   0  0  0  0  0  0  0  0  0  0  0  0
    1.0014   -2.1474    0.3496 H   0  0  0  0  0  0  0  0  0  0  0  0
    5.4217    3.7307    1.1725 H   0  0  0  0  0  0  0  0  0  0  0  0
  1 34  1  0  0  0  0
  1 35  1  0  0  0  0
  1 36  1  0  0  0  0
  2  1  1  0  0  0  0
  2 37  1  0  0  0  0
  3  2  1  0  0  0  0
  3 38  1  0  0  0  0
  3 39  1  0  0  0  0
  3 40  1  0  0  0  0
  4  2  1  0  0  0  0
  5  4  1  0  0  0  0
  6  5  2  0  0  0  0
  7  6  1  0  0  0  0
  7 41  1  0  0  0  0
  8  7  1  0  0  0  0
  9  8  2  0  0  0  0
  9 42  1  0  0  0  0
  9 69  1  0  0  0  0
 10  8  1  0  0  0  0
 11 10  2  0  0  0  0
 11 43  1  0  0  0  0
 12 11  1  0  0  0  0
 12 44  1  0  0  0  0
 13 12  2  0  0  0  0
 13 45  1  0  0  0  0
 14 13  1  0  0  0  0
 14 46  1  0  0  0  0
 15 14  2  0  0  0  0
 15 10  1  0  0  0  0
 16  6  1  0  0  0  0
 16 47  1  0  0  0  0
 17 16  2  0  0  0  0
 17 48  1  0  0  0  0
 18 17  1  0  0  0  0
 19 18  1  0  0  0  0
 20 19  1  0  0  0  0
 20 49  1  0  0  0  0
 20 50  1  0  0  0  0
 21 20  1  0  0  0  0
 21 51  1  0  0  0  0
 21 52  1  0  0  0  0
 22 21  1  0  0  0  0
 22 53  1  0  0  0  0
 22 54  1  0  0  0  0
 23 22  1  0  0  0  0
 23 55  1  0  0  0  0
 23 56  1  0  0  0  0
 24 23  1  0  0  0  0
 24 57  1  0  0  0  0
 24 58  1  0  0  0  0
 25 24  1  0  0  0  0
 25 59  1  0  0  0  0
 25 60  1  0  0  0  0
 26 25  1  0  0  0  0
 26 61  1  0  0  0  0
 26 62  1  0  0  0  0
 27 26  1  0  0  0  0
 27 63  1  0  0  0  0
 27 64  1  0  0  0  0
 28 27  1  0  0  0  0
 29 28  1  0  0  0  0
 29 65  1  0  0  0  0
 30 29  2  0  0  0  0
 30 66  1  0  0  0  0
 31 30  1  0  0  0  0
 32 31  2  0  0  0  0
 32 28  1  0  0  0  0
 32 67  1  0  0  0  0
 33 18  2  0  0  0  0
 33  5  1  0  0  0  0
 33 68  1  0  0  0  0
M  CHG  1   8   1
M  END
>  <MOL Chiral Flag>
0

>  <energy>
91.097602741656104

$$$$
> 130_AKC_AAC.01513-20
>128.sdf
 OpenBabel10052218413D

 55 58  0  0  0  0  0  0  0  0999 V2000
    3.7130   -3.9355    1.1910 C   0  0  0  0  0  0  0  0  0  0  0  0
    4.4758   -2.7315    0.6188 C   0  0  0  0  0  0  0  0  0  0  0  0
    3.6827   -1.4895    0.4046 N   0  0  0  0  0  0  0  0  0  0  0  0
    2.3367   -1.4743    0.6603 C   0  0  0  0  0  0  0  0  0  0  0  0
    1.5824   -0.3251    0.5110 C   0  0  0  0  0  0  0  0  0  0  0  0
    2.1765    0.8823    0.1042 C   0  0  0  0  0  0  0  0  0  0  0  0
    1.4939    1.9889    0.0081 N   0  0  0  0  0  0  0  0  0  0  0  0
    0.1494    2.1839    0.4565 C   0  0  0  0  0  0  0  0  0  0  0  0
   -0.7533    2.9105   -0.3315 C   0  0  0  0  0  0  0  0  0  0  0  0
   -2.0834    3.0686    0.0837 C   0  0  0  0  0  0  0  0  0  0  0  0
   -2.5234    2.4899    1.2897 C   0  0  0  0  0  0  0  0  0  0  0  0
   -3.9720    2.5588    1.7194 C   0  0  0  0  0  0  0  0  0  0  0  0
   -4.9321    2.0374    0.6343 C   0  0  0  0  0  0  0  0  0  0  0  0
   -4.5194    0.7077    0.0380 C   0  0  0  0  0  0  0  0  0  0  0  0
   -4.1904    0.6392   -1.3255 C   0  0  0  0  0  0  0  0  0  0  0  0
   -3.8005   -0.5680   -1.9038 C   0  0  0  0  0  0  0  0  0  0  0  0
   -3.7353   -1.7406   -1.1259 C   0  0  0  0  0  0  0  0  0  0  0  0
   -3.3637   -2.9416   -1.6499 O   0  0  0  0  0  0  0  0  0  0  0  0
   -2.9987   -3.1781   -2.9639 C   0  0  0  0  0  0  0  0  0  0  0  0
   -4.0418   -2.8647   -3.8186 F   0  0  0  0  0  0  0  0  0  0  0  0
   -2.6967   -4.5177   -3.1120 F   0  0  0  0  0  0  0  0  0  0  0  0
   -1.8789   -2.4337   -3.2928 F   0  0  0  0  0  0  0  0  0  0  0  0
   -4.0650   -1.6726    0.2360 C   0  0  0  0  0  0  0  0  0  0  0  0
   -4.4536   -0.4577    0.8179 C   0  0  0  0  0  0  0  0  0  0  0  0
   -1.6036    1.8110    2.0983 C   0  0  0  0  0  0  0  0  0  0  0  0
   -0.2800    1.6777    1.6981 C   0  0  0  0  0  0  0  0  0  0  0  0
    3.5520    0.8693   -0.2136 C   0  0  0  0  0  0  0  0  0  0  0  0
    4.3026   -0.3357   -0.0519 C   0  0  0  0  0  0  0  0  0  0  0  0
    5.6870   -0.3139   -0.3576 C   0  0  0  0  0  0  0  0  0  0  0  0
    6.3027    0.8533   -0.8115 C   0  0  0  0  0  0  0  0  0  0  0  0
    8.0176    0.8475   -1.1843 Cl  0  0  0  0  0  0  0  0  0  0  0  0
    5.5630    2.0220   -0.9679 C   0  0  0  0  0  0  0  0  0  0  0  0
    4.2017    2.0372   -0.6702 C   0  0  0  0  0  0  0  0  0  0  0  0
    4.4136   -4.7842    1.3347 H   0  0  0  0  0  0  0  0  0  0  0  0
    3.2772   -3.6833    2.1826 H   0  0  0  0  0  0  0  0  0  0  0  0
    2.9139   -4.2658    0.4941 H   0  0  0  0  0  0  0  0  0  0  0  0
    5.2868   -2.5098    1.3469 H   0  0  0  0  0  0  0  0  0  0  0  0
    4.9264   -3.0498   -0.3458 H   0  0  0  0  0  0  0  0  0  0  0  0
    1.8099   -2.3546    0.9932 H   0  0  0  0  0  0  0  0  0  0  0  0
    0.5276   -0.4092    0.7142 H   0  0  0  0  0  0  0  0  0  0  0  0
   -0.4340    3.3297   -1.2776 H   0  0  0  0  0  0  0  0  0  0  0  0
   -2.7751    3.6078   -0.5499 H   0  0  0  0  0  0  0  0  0  0  0  0
   -4.2501    3.6066    1.9610 H   0  0  0  0  0  0  0  0  0  0  0  0
   -4.1136    1.9556    2.6436 H   0  0  0  0  0  0  0  0  0  0  0  0
   -5.9601    1.9695    1.0504 H   0  0  0  0  0  0  0  0  0  0  0  0
   -4.9633    2.8002   -0.1726 H   0  0  0  0  0  0  0  0  0  0  0  0
   -4.2312    1.5271   -1.9439 H   0  0  0  0  0  0  0  0  0  0  0  0
   -3.5530   -0.5766   -2.9555 H   0  0  0  0  0  0  0  0  0  0  0  0
   -4.0190   -2.5669    0.8452 H   0  0  0  0  0  0  0  0  0  0  0  0
   -4.7031   -0.4265    1.8709 H   0  0  0  0  0  0  0  0  0  0  0  0
   -1.9124    1.3755    3.0405 H   0  0  0  0  0  0  0  0  0  0  0  0
    0.4092    1.1556    2.3493 H   0  0  0  0  0  0  0  0  0  0  0  0
    6.3025   -1.1948   -0.2510 H   0  0  0  0  0  0  0  0  0  0  0  0
    6.0461    2.9248   -1.3198 H   0  0  0  0  0  0  0  0  0  0  0  0
    3.6569    2.9640   -0.7998 H   0  0  0  0  0  0  0  0  0  0  0  0
  1 34  1  0  0  0  0
  1 35  1  0  0  0  0
  1 36  1  0  0  0  0
  2  1  1  0  0  0  0
  2 37  1  0  0  0  0
  2 38  1  0  0  0  0
  3  2  1  0  0  0  0
  4  3  1  0  0  0  0
  4 39  1  0  0  0  0
  5  4  2  0  0  0  0
  5 40  1  0  0  0  0
  6  5  1  0  0  0  0
  7  6  2  0  0  0  0
  8  7  1  0  0  0  0
  9  8  2  0  0  0  0
  9 41  1  0  0  0  0
 10  9  1  0  0  0  0
 10 42  1  0  0  0  0
 11 10  2  0  0  0  0
 12 11  1  0  0  0  0
 12 43  1  0  0  0  0
 12 44  1  0  0  0  0
 13 12  1  0  0  0  0
 13 45  1  0  0  0  0
 13 46  1  0  0  0  0
 14 13  1  0  0  0  0
 15 14  2  0  0  0  0
 15 47  1  0  0  0  0
 16 15  1  0  0  0  0
 16 48  1  0  0  0  0
 17 16  2  0  0  0  0
 18 17  1  0  0  0  0
 19 18  1  0  0  0  0
 20 19  1  0  0  0  0
 21 19  1  0  0  0  0
 22 19  1  0  0  0  0
 23 17  1  0  0  0  0
 23 49  1  0  0  0  0
 24 23  2  0  0  0  0
 24 14  1  0  0  0  0
 24 50  1  0  0  0  0
 25 11  1  0  0  0  0
 25 51  1  0  0  0  0
 26 25  2  0  0  0  0
 26  8  1  0  0  0  0
 26 52  1  0  0  0  0
 27  6  1  0  0  0  0
 28 27  2  0  0  0  0
 28  3  1  0  0  0  0
 29 28  1  0  0  0  0
 29 53  1  0  0  0  0
 30 29  2  0  0  0  0
 31 30  1  0  0  0  0
 32 30  1  0  0  0  0
 32 54  1  0  0  0  0
 33 32  2  0  0  0  0
 33 27  1  0  0  0  0
 33 55  1  0  0  0  0
M  END
>  <MOL Chiral Flag>
0

>  <energy>
104.24068025623711

$$$$
> 131_AKC_s00436-021-07169-w
>129.sdf
 OpenBabel10102212413D

 42 43  0  0  0  0  0  0  0  0999 V2000
    2.7390    4.2594   -0.2564 C   0  0  0  0  0  0  0  0  0  0  0  0
    3.3551    3.0522    0.0069 O   0  0  0  0  0  0  0  0  0  0  0  0
    2.7438    1.8375    0.0752 C   0  0  0  0  0  0  0  0  0  0  0  0
    1.3610    1.7077   -0.1771 C   0  0  0  0  0  0  0  0  0  0  0  0
    0.7180    0.4588   -0.0823 C   0  0  0  0  0  0  0  0  0  0  0  0
   -0.7518    0.2803   -0.3109 C   0  0  0  0  0  0  0  0  0  0  0  0
   -1.5539    1.2194   -0.8626 C   0  0  0  0  0  0  0  0  0  0  0  0
   -3.0445    1.1299   -1.0372 C   0  0  0  0  0  0  0  0  0  0  0  0
   -3.6236    2.2073   -1.0524 O   0  0  0  0  0  0  0  0  0  0  0  0
   -3.8018   -0.0317   -1.1369 N   0  0  0  0  0  0  0  0  0  0  0  0
   -5.2692    0.0701   -1.0287 C   0  0  0  0  0  0  0  0  0  0  0  0
   -5.7927   -1.0392   -0.1193 C   0  0  0  0  0  0  0  0  0  0  0  0
   -5.3731   -2.3626   -0.7086 C   0  0  0  0  0  0  0  0  0  0  0  0
   -4.1740   -2.4781   -1.3019 C   0  0  0  0  0  0  0  0  0  0  0  0
   -3.2945   -1.2852   -1.4216 C   0  0  0  0  0  0  0  0  0  0  0  0
   -2.1603   -1.4390   -1.8445 O   0  0  0  0  0  0  0  0  0  0  0  0
    1.4774   -0.6669    0.2606 C   0  0  0  0  0  0  0  0  0  0  0  0
    2.8629   -0.5652    0.4966 C   0  0  0  0  0  0  0  0  0  0  0  0
    3.6187   -1.6539    0.8105 O   0  0  0  0  0  0  0  0  0  0  0  0
    3.1626   -2.9544    0.8841 C   0  0  0  0  0  0  0  0  0  0  0  0
    3.5012    0.6829    0.4120 C   0  0  0  0  0  0  0  0  0  0  0  0
    4.8420    0.7149    0.6697 O   0  0  0  0  0  0  0  0  0  0  0  0
    5.6747    1.8148    0.6794 C   0  0  0  0  0  0  0  0  0  0  0  0
    1.9745    4.4780    0.5200 H   0  0  0  0  0  0  0  0  0  0  0  0
    2.2737    4.2459   -1.2648 H   0  0  0  0  0  0  0  0  0  0  0  0
    3.5006    5.0654   -0.2323 H   0  0  0  0  0  0  0  0  0  0  0  0
    0.7952    2.5881   -0.4213 H   0  0  0  0  0  0  0  0  0  0  0  0
   -1.1769   -0.6529    0.0296 H   0  0  0  0  0  0  0  0  0  0  0  0
   -1.1270    2.1738   -1.1352 H   0  0  0  0  0  0  0  0  0  0  0  0
   -5.6113    1.0564   -0.6493 H   0  0  0  0  0  0  0  0  0  0  0  0
   -5.7192   -0.0699   -2.0379 H   0  0  0  0  0  0  0  0  0  0  0  0
   -6.8964   -0.9977    0.0067 H   0  0  0  0  0  0  0  0  0  0  0  0
   -5.3210   -0.9132    0.8793 H   0  0  0  0  0  0  0  0  0  0  0  0
   -6.0370   -3.2199   -0.6538 H   0  0  0  0  0  0  0  0  0  0  0  0
   -3.8523   -3.4387   -1.6927 H   0  0  0  0  0  0  0  0  0  0  0  0
    0.9841   -1.6275    0.3325 H   0  0  0  0  0  0  0  0  0  0  0  0
    2.7608   -3.2757   -0.1008 H   0  0  0  0  0  0  0  0  0  0  0  0
    4.0095   -3.6198    1.1503 H   0  0  0  0  0  0  0  0  0  0  0  0
    2.3821   -3.0467    1.6685 H   0  0  0  0  0  0  0  0  0  0  0  0
    5.3485    2.5407    1.4546 H   0  0  0  0  0  0  0  0  0  0  0  0
    6.7020    1.4824    0.9327 H   0  0  0  0  0  0  0  0  0  0  0  0
    5.7058    2.2888   -0.3244 H   0  0  0  0  0  0  0  0  0  0  0  0
  1 24  1  0  0  0  0
  1 25  1  0  0  0  0
  1 26  1  0  0  0  0
  2  1  1  0  0  0  0
  3  2  1  0  0  0  0
  4  3  2  0  0  0  0
  4 27  1  0  0  0  0
  5  4  1  0  0  0  0
  6  5  1  0  0  0  0
  6 28  1  0  0  0  0
  7  6  2  0  0  0  0
  7 29  1  0  0  0  0
  8  7  1  0  0  0  0
  9  8  2  0  0  0  0
 10  8  1  0  0  0  0
 11 10  1  0  0  0  0
 11 30  1  0  0  0  0
 11 31  1  0  0  0  0
 12 11  1  0  0  0  0
 12 32  1  0  0  0  0
 12 33  1  0  0  0  0
 13 12  1  0  0  0  0
 13 34  1  0  0  0  0
 14 13  2  0  0  0  0
 14 35  1  0  0  0  0
 15 14  1  0  0  0  0
 15 10  1  0  0  0  0
 16 15  2  0  0  0  0
 17  5  2  0  0  0  0
 17 36  1  0  0  0  0
 18 17  1  0  0  0  0
 19 18  1  0  0  0  0
 20 19  1  0  0  0  0
 20 37  1  0  0  0  0
 20 38  1  0  0  0  0
 20 39  1  0  0  0  0
 21 18  2  0  0  0  0
 21  3  1  0  0  0  0
 22 21  1  0  0  0  0
 23 22  1  0  0  0  0
 23 40  1  0  0  0  0
 23 41  1  0  0  0  0
 23 42  1  0  0  0  0
M  END
>  <MOL Chiral Flag>
0

>  <energy>
53.043196436536817

$$$$
> 132_AKC_s00436-021-07169-w
>130.sdf
 OpenBabel10052218423D

 68 70  0  0  0  0  0  0  0  0999 V2000
   -7.5733    0.8068    2.8043 C   0  0  0  0  0  0  0  0  0  0  0  0
   -6.9421    1.9619    2.3888 O   0  0  0  0  0  0  0  0  0  0  0  0
   -5.6748    2.0389    1.8958 C   0  0  0  0  0  0  0  0  0  0  0  0
   -4.8637    0.8969    1.7587 C   0  0  0  0  0  0  0  0  0  0  0  0
   -3.5617    0.9892    1.2517 C   0  0  0  0  0  0  0  0  0  0  0  0
   -2.7644   -0.2735    1.1374 C   0  0  0  0  0  0  0  0  0  0  0  0
   -1.4903   -0.3515    0.6858 C   0  0  0  0  0  0  0  0  0  0  0  0
   -0.7683   -1.6808    0.6304 C   0  0  0  0  0  0  0  0  0  0  0  0
   -1.3571   -2.6175    1.1500 O   0  0  0  0  0  0  0  0  0  0  0  0
    0.5154   -1.8962    0.0941 N   0  0  0  0  0  0  0  0  0  0  0  0
    1.1115   -3.2590    0.2497 C   0  0  0  0  0  0  0  0  0  0  0  0
    0.2748   -4.3672   -0.4515 C   0  0  0  0  0  0  0  0  0  0  0  0
    0.9634   -5.7334   -0.3033 C   0  0  0  0  0  0  0  0  0  0  0  0
    1.1731   -6.0701    1.1802 C   0  0  0  0  0  0  0  0  0  0  0  0
    2.0371   -4.9933    1.8524 C   0  0  0  0  0  0  0  0  0  0  0  0
    1.3730   -3.6123    1.7353 C   0  0  0  0  0  0  0  0  0  0  0  0
    1.2169   -0.8883   -0.5916 C   0  0  0  0  0  0  0  0  0  0  0  0
    0.6459    0.1420   -0.8998 O   0  0  0  0  0  0  0  0  0  0  0  0
    2.5428   -1.0066   -0.9554 N   0  0  0  0  0  0  0  0  0  0  0  0
    3.2445    0.0349   -1.7003 C   0  0  0  0  0  0  0  0  0  0  0  0
    3.7791   -0.5477   -3.0231 C   0  0  0  0  0  0  0  0  0  0  0  0
    4.5630    0.5181   -3.8029 C   0  0  0  0  0  0  0  0  0  0  0  0
    5.7238    1.0552   -2.9540 C   0  0  0  0  0  0  0  0  0  0  0  0
    5.1945    1.6434   -1.6386 C   0  0  0  0  0  0  0  0  0  0  0  0
    4.4121    0.5799   -0.8544 C   0  0  0  0  0  0  0  0  0  0  0  0
   -3.0685    2.2532    0.8750 C   0  0  0  0  0  0  0  0  0  0  0  0
   -3.8642    3.4130    1.0023 C   0  0  0  0  0  0  0  0  0  0  0  0
   -3.3842    4.6332    0.6358 O   0  0  0  0  0  0  0  0  0  0  0  0
   -2.1308    4.8922    0.1181 C   0  0  0  0  0  0  0  0  0  0  0  0
   -5.1835    3.2993    1.5203 C   0  0  0  0  0  0  0  0  0  0  0  0
   -6.0221    4.3653    1.6785 O   0  0  0  0  0  0  0  0  0  0  0  0
   -5.7711    5.6890    1.3833 C   0  0  0  0  0  0  0  0  0  0  0  0
   -7.0167    0.3456    3.6480 H   0  0  0  0  0  0  0  0  0  0  0  0
   -7.6584    0.0891    1.9606 H   0  0  0  0  0  0  0  0  0  0  0  0
   -8.5951    1.0594    3.1546 H   0  0  0  0  0  0  0  0  0  0  0  0
   -5.2439   -0.0739    2.0483 H   0  0  0  0  0  0  0  0  0  0  0  0
   -3.2619   -1.1897    1.4438 H   0  0  0  0  0  0  0  0  0  0  0  0
   -1.0141    0.5592    0.4080 H   0  0  0  0  0  0  0  0  0  0  0  0
    2.0755   -3.3629   -0.2483 H   0  0  0  0  0  0  0  0  0  0  0  0
   -0.7412   -4.4734   -0.0295 H   0  0  0  0  0  0  0  0  0  0  0  0
    0.1690   -4.1274   -1.5317 H   0  0  0  0  0  0  0  0  0  0  0  0
    1.9497   -5.7133   -0.8178 H   0  0  0  0  0  0  0  0  0  0  0  0
    0.3415   -6.5187   -0.7844 H   0  0  0  0  0  0  0  0  0  0  0  0
    0.1883   -6.1353    1.6933 H   0  0  0  0  0  0  0  0  0  0  0  0
    1.6775   -7.0563    1.2677 H   0  0  0  0  0  0  0  0  0  0  0  0
    2.1874   -5.2446    2.9242 H   0  0  0  0  0  0  0  0  0  0  0  0
    3.0352   -4.9675    1.3615 H   0  0  0  0  0  0  0  0  0  0  0  0
    2.0422   -2.8489    2.1876 H   0  0  0  0  0  0  0  0  0  0  0  0
    0.4334   -3.6329    2.3219 H   0  0  0  0  0  0  0  0  0  0  0  0
    3.1226   -1.8034   -0.6891 H   0  0  0  0  0  0  0  0  0  0  0  0
    2.5755    0.8881   -1.9501 H   0  0  0  0  0  0  0  0  0  0  0  0
    2.9315   -0.9108   -3.6438 H   0  0  0  0  0  0  0  0  0  0  0  0
    4.4492   -1.4106   -2.8107 H   0  0  0  0  0  0  0  0  0  0  0  0
    3.8822    1.3559   -4.0715 H   0  0  0  0  0  0  0  0  0  0  0  0
    4.9590    0.0779   -4.7431 H   0  0  0  0  0  0  0  0  0  0  0  0
    6.2705    1.8388   -3.5210 H   0  0  0  0  0  0  0  0  0  0  0  0
    6.4338    0.2281   -2.7312 H   0  0  0  0  0  0  0  0  0  0  0  0
    6.0441    2.0114   -1.0243 H   0  0  0  0  0  0  0  0  0  0  0  0
    4.5273    2.5054   -1.8605 H   0  0  0  0  0  0  0  0  0  0  0  0
    5.1001   -0.2515   -0.5820 H   0  0  0  0  0  0  0  0  0  0  0  0
    4.0194    1.0274    0.0842 H   0  0  0  0  0  0  0  0  0  0  0  0
   -2.0735    2.3505    0.4812 H   0  0  0  0  0  0  0  0  0  0  0  0
   -1.3445    4.6024    0.8474 H   0  0  0  0  0  0  0  0  0  0  0  0
   -1.9893    4.3483   -0.8403 H   0  0  0  0  0  0  0  0  0  0  0  0
   -2.0407    5.9798   -0.0802 H   0  0  0  0  0  0  0  0  0  0  0  0
   -4.9248    6.0689    1.9940 H   0  0  0  0  0  0  0  0  0  0  0  0
   -5.5696    5.8129    0.2982 H   0  0  0  0  0  0  0  0  0  0  0  0
   -6.6703    6.2877    1.6349 H   0  0  0  0  0  0  0  0  0  0  0  0
  1 33  1  0  0  0  0
  1 34  1  0  0  0  0
  1 35  1  0  0  0  0
  2  1  1  0  0  0  0
  3  2  1  0  0  0  0
  4  3  2  0  0  0  0
  4 36  1  0  0  0  0
  5  4  1  0  0  0  0
  6  5  1  0  0  0  0
  6 37  1  0  0  0  0
  7  6  2  0  0  0  0
  7 38  1  0  0  0  0
  8  7  1  0  0  0  0
  9  8  2  0  0  0  0
 10  8  1  0  0  0  0
 11 10  1  0  0  0  0
 11 39  1  0  0  0  0
 12 11  1  0  0  0  0
 12 40  1  0  0  0  0
 12 41  1  0  0  0  0
 13 12  1  0  0  0  0
 13 42  1  0  0  0  0
 13 43  1  0  0  0  0
 14 13  1  0  0  0  0
 14 44  1  0  0  0  0
 14 45  1  0  0  0  0
 15 14  1  0  0  0  0
 15 46  1  0  0  0  0
 15 47  1  0  0  0  0
 16 15  1  0  0  0  0
 16 11  1  0  0  0  0
 16 48  1  0  0  0  0
 16 49  1  0  0  0  0
 17 10  1  0  0  0  0
 18 17  2  0  0  0  0
 19 17  1  0  0  0  0
 19 50  1  0  0  0  0
 20 19  1  0  0  0  0
 20 51  1  0  0  0  0
 21 20  1  0  0  0  0
 21 52  1  0  0  0  0
 21 53  1  0  0  0  0
 22 21  1  0  0  0  0
 22 54  1  0  0  0  0
 22 55  1  0  0  0  0
 23 22  1  0  0  0  0
 23 56  1  0  0  0  0
 23 57  1  0  0  0  0
 24 23  1  0  0  0  0
 24 58  1  0  0  0  0
 24 59  1  0  0  0  0
 25 24  1  0  0  0  0
 25 20  1  0  0  0  0
 25 60  1  0  0  0  0
 25 61  1  0  0  0  0
 26  5  2  0  0  0  0
 26 62  1  0  0  0  0
 27 26  1  0  0  0  0
 28 27  1  0  0  0  0
 29 28  1  0  0  0  0
 29 63  1  0  0  0  0
 29 64  1  0  0  0  0
 29 65  1  0  0  0  0
 30 27  2  0  0  0  0
 30  3  1  0  0  0  0
 31 30  1  0  0  0  0
 32 31  1  0  0  0  0
 32 66  1  0  0  0  0
 32 67  1  0  0  0  0
 32 68  1  0  0  0  0
M  END
>  <MOL Chiral Flag>
0

>  <energy>
10.991687554583478

$$$$
> 133_AKC_acs.jmedchem.1c00047
>131.sdf
 OpenBabel10102212433D

 53 57  0  0  0  0  0  0  0  0999 V2000
   -0.0421   -4.1333   -0.0193 F   0  0  0  0  0  0  0  0  0  0  0  0
   -1.0082   -3.1953   -0.1878 C   0  0  0  0  0  0  0  0  0  0  0  0
   -0.7010   -1.8164   -0.1896 C   0  0  0  0  0  0  0  0  0  0  0  0
   -1.7636   -0.9016   -0.3650 C   0  0  0  0  0  0  0  0  0  0  0  0
   -3.0961   -1.3213   -0.5290 C   0  0  0  0  0  0  0  0  0  0  0  0
   -4.0990   -0.2937   -0.6759 N   0  0  0  0  0  0  0  0  0  0  0  0
   -5.4524   -0.4583   -0.8449 C   0  0  0  0  0  0  0  0  0  0  0  0
   -5.9428   -1.5741   -0.8953 O   0  0  0  0  0  0  0  0  0  0  0  0
   -6.2788    0.6322   -0.9550 N   0  0  0  0  0  0  0  0  0  0  0  0
   -7.7113    0.5125   -1.1100 C   0  0  0  0  0  0  0  0  0  0  0  0
   -8.1970    1.9308   -0.8114 C   0  0  0  0  0  0  0  0  0  0  0  0
   -7.0723    2.7755   -1.3762 C   0  0  0  0  0  0  0  0  0  0  0  0
   -5.8344    2.0101   -0.9127 C   0  0  0  0  0  0  0  0  0  0  0  0
   -3.3648   -2.7085   -0.5241 C   0  0  0  0  0  0  0  0  0  0  0  0
   -2.3257   -3.6252   -0.3565 C   0  0  0  0  0  0  0  0  0  0  0  0
    0.7131   -1.3401    0.0303 C   0  0  0  0  0  0  0  0  0  0  0  0
    1.6892   -2.2495    0.3398 N   0  0  0  0  0  0  0  0  0  0  0  0
    2.9494   -1.8267    0.6113 C   0  0  0  0  0  0  0  0  0  0  0  0
    3.9640   -2.6246    0.9982 N   0  0  0  0  0  0  0  0  0  0  0  0
    4.9920   -1.7745    1.2350 C   0  0  0  0  0  0  0  0  0  0  0  0
    4.5763   -0.4768    0.9640 C   0  0  0  0  0  0  0  0  0  0  0  0
    3.2817   -0.5277    0.5815 N   0  0  0  0  0  0  0  0  0  0  0  0
    2.3709    0.4292    0.2752 C   0  0  0  0  0  0  0  0  0  0  0  0
    1.0615    0.0398   -0.0133 C   0  0  0  0  0  0  0  0  0  0  0  0
    5.3603    0.7123    1.1356 N   0  0  0  0  0  0  0  0  0  0  0  0
    5.2166    1.8749    0.2780 C   0  0  0  0  0  0  0  0  0  0  0  0
    6.6047    2.2200   -0.2817 C   0  0  0  0  0  0  0  0  0  0  0  0
    7.5377    2.4091    0.7709 O   0  0  0  0  0  0  0  0  0  0  0  0
    7.7067    1.1946    1.4865 C   0  0  0  0  0  0  0  0  0  0  0  0
    6.3918    0.7884    2.1549 C   0  0  0  0  0  0  0  0  0  0  0  0
   -1.5843    0.1571   -0.3609 H   0  0  0  0  0  0  0  0  0  0  0  0
   -3.7458    0.6714   -0.6365 H   0  0  0  0  0  0  0  0  0  0  0  0
   -8.1753   -0.1885   -0.3824 H   0  0  0  0  0  0  0  0  0  0  0  0
   -7.9271    0.1961   -2.1540 H   0  0  0  0  0  0  0  0  0  0  0  0
   -9.2141    2.1615   -1.1923 H   0  0  0  0  0  0  0  0  0  0  0  0
   -8.1865    2.0794    0.2931 H   0  0  0  0  0  0  0  0  0  0  0  0
   -7.0813    3.8502   -1.0963 H   0  0  0  0  0  0  0  0  0  0  0  0
   -7.1369    2.6956   -2.4859 H   0  0  0  0  0  0  0  0  0  0  0  0
   -5.5478    2.2568    0.1335 H   0  0  0  0  0  0  0  0  0  0  0  0
   -5.0043    2.2339   -1.6175 H   0  0  0  0  0  0  0  0  0  0  0  0
   -4.3508   -3.1157   -0.6384 H   0  0  0  0  0  0  0  0  0  0  0  0
   -2.5467   -4.6854   -0.3499 H   0  0  0  0  0  0  0  0  0  0  0  0
    5.9694   -2.0894    1.5743 H   0  0  0  0  0  0  0  0  0  0  0  0
    2.6136    1.4785    0.2841 H   0  0  0  0  0  0  0  0  0  0  0  0
    0.3553    0.8179   -0.2394 H   0  0  0  0  0  0  0  0  0  0  0  0
    4.8472    2.7324    0.8811 H   0  0  0  0  0  0  0  0  0  0  0  0
    4.5449    1.6926   -0.5835 H   0  0  0  0  0  0  0  0  0  0  0  0
    6.9620    1.4269   -0.9775 H   0  0  0  0  0  0  0  0  0  0  0  0
    6.5330    3.1574   -0.8727 H   0  0  0  0  0  0  0  0  0  0  0  0
    8.4731    1.3477    2.2755 H   0  0  0  0  0  0  0  0  0  0  0  0
    8.0819    0.3894    0.8160 H   0  0  0  0  0  0  0  0  0  0  0  0
    6.1099    1.5849    2.8782 H   0  0  0  0  0  0  0  0  0  0  0  0
    6.5061   -0.1560    2.7258 H   0  0  0  0  0  0  0  0  0  0  0  0
  2  1  1  0  0  0  0
  3  2  2  0  0  0  0
  4  3  1  0  0  0  0
  4 31  1  0  0  0  0
  5  4  2  0  0  0  0
  6  5  1  0  0  0  0
  6 32  1  0  0  0  0
  7  6  1  0  0  0  0
  8  7  2  0  0  0  0
  9  7  1  0  0  0  0
 10  9  1  0  0  0  0
 10 33  1  0  0  0  0
 10 34  1  0  0  0  0
 11 10  1  0  0  0  0
 11 35  1  0  0  0  0
 11 36  1  0  0  0  0
 12 11  1  0  0  0  0
 12 37  1  0  0  0  0
 12 38  1  0  0  0  0
 13 12  1  0  0  0  0
 13  9  1  0  0  0  0
 13 39  1  0  0  0  0
 13 40  1  0  0  0  0
 14  5  1  0  0  0  0
 14 41  1  0  0  0  0
 15 14  2  0  0  0  0
 15  2  1  0  0  0  0
 15 42  1  0  0  0  0
 16  3  1  0  0  0  0
 17 16  2  0  0  0  0
 18 17  1  0  0  0  0
 19 18  2  0  0  0  0
 20 19  1  0  0  0  0
 20 43  1  0  0  0  0
 21 20  2  0  0  0  0
 22 21  1  0  0  0  0
 22 18  1  0  0  0  0
 23 22  1  0  0  0  0
 23 44  1  0  0  0  0
 24 23  2  0  0  0  0
 24 16  1  0  0  0  0
 24 45  1  0  0  0  0
 25 21  1  0  0  0  0
 26 25  1  0  0  0  0
 26 46  1  0  0  0  0
 26 47  1  0  0  0  0
 27 26  1  0  0  0  0
 27 48  1  0  0  0  0
 27 49  1  0  0  0  0
 28 27  1  0  0  0  0
 29 28  1  0  0  0  0
 29 50  1  0  0  0  0
 29 51  1  0  0  0  0
 30 29  1  0  0  0  0
 30 25  1  0  0  0  0
 30 52  1  0  0  0  0
 30 53  1  0  0  0  0
M  END
>  <MOL Chiral Flag>
0

>  <energy>
2.38043208864039

$$$$
> 134_AKC_j.bioorg.2021.104816
>132.sdf
 OpenBabel10052218433D

 56 60  0  0  0  0  0  0  0  0999 V2000
    0.0704    1.2156    1.6779 O   0  0  0  0  0  0  0  0  0  0  0  0
   -0.2606    1.8212    0.4530 C   0  0  1  0  0  0  0  0  0  0  0  0
   -1.4333    2.7811    0.6427 C   0  0  0  0  0  0  0  0  0  0  0  0
   -2.5439    2.0031    0.9205 O   0  0  0  0  0  0  0  0  0  0  0  0
   -3.5783    1.8371    0.0557 C   0  0  0  0  0  0  0  0  0  0  0  0
   -4.1064    2.9106   -0.6777 C   0  0  0  0  0  0  0  0  0  0  0  0
   -5.1401    2.6728   -1.5887 C   0  0  0  0  0  0  0  0  0  0  0  0
   -5.6051    3.5962   -2.2319 O   0  0  0  0  0  0  0  0  0  0  0  0
   -5.6151    1.4427   -1.7657 O   0  0  0  0  0  0  0  0  0  0  0  0
   -5.1471    0.3931   -1.0945 C   0  0  0  0  0  0  0  0  0  0  0  0
   -5.6722   -0.8802   -1.3415 C   0  0  0  0  0  0  0  0  0  0  0  0
   -5.1755   -1.9908   -0.6524 C   0  0  0  0  0  0  0  0  0  0  0  0
   -4.1533   -1.8353    0.2884 C   0  0  0  0  0  0  0  0  0  0  0  0
   -3.6191   -0.5690    0.5432 C   0  0  0  0  0  0  0  0  0  0  0  0
   -4.1113    0.5549   -0.1467 C   0  0  0  0  0  0  0  0  0  0  0  0
    0.9788    2.4937   -0.1591 C   0  0  0  0  0  0  0  0  0  0  0  0
    2.0350    1.5121   -0.3746 N   0  0  0  0  0  0  0  0  0  0  0  0
    1.9248    0.3855   -1.1262 C   0  0  0  0  0  0  0  0  0  0  0  0
    0.9279    0.0689   -1.7561 O   0  0  0  0  0  0  0  0  0  0  0  0
    3.1728   -0.3792   -1.0532 C   0  0  0  0  0  0  0  0  0  0  0  0
    3.4335   -1.5401   -1.5543 N   0  0  0  0  0  0  0  0  0  0  0  0
    2.4902   -2.2482   -2.2593 N   0  0  0  0  0  0  0  0  0  0  0  0
    1.4718   -2.9583   -1.6745 C   0  0  0  0  0  0  0  0  0  0  0  0
    0.6406   -3.4643   -2.4148 O   0  0  0  0  0  0  0  0  0  0  0  0
    1.2891   -3.1585   -0.1819 C   0  0  0  0  0  0  0  0  0  0  0  0
    2.2708   -2.8645    0.7926 C   0  0  0  0  0  0  0  0  0  0  0  0
    2.0064   -3.0957    2.1460 C   0  0  0  0  0  0  0  0  0  0  0  0
    0.8131   -3.6103    2.5361 N   0  0  0  0  0  0  0  0  0  0  0  0
   -0.1509   -3.9184    1.6336 C   0  0  0  0  0  0  0  0  0  0  0  0
    0.0668   -3.7038    0.2713 C   0  0  0  0  0  0  0  0  0  0  0  0
    4.0626    0.4271   -0.2275 C   0  0  0  0  0  0  0  0  0  0  0  0
    5.3807    0.2204    0.1664 C   0  0  0  0  0  0  0  0  0  0  0  0
    5.9901    1.1931    0.9772 C   0  0  0  0  0  0  0  0  0  0  0  0
    5.2715    2.3415    1.3775 C   0  0  0  0  0  0  0  0  0  0  0  0
    3.9366    2.5261    0.9725 C   0  0  0  0  0  0  0  0  0  0  0  0
    3.3494    1.5472    0.1646 C   0  0  0  0  0  0  0  0  0  0  0  0
   -0.3229    0.3034    1.6740 H   0  0  0  0  0  0  0  0  0  0  0  0
   -0.6116    1.0612   -0.2804 H   0  0  0  0  0  0  0  0  0  0  0  0
   -1.2453    3.5126    1.4576 H   0  0  0  0  0  0  0  0  0  0  0  0
   -1.5608    3.3398   -0.3092 H   0  0  0  0  0  0  0  0  0  0  0  0
   -3.7248    3.9156   -0.5457 H   0  0  0  0  0  0  0  0  0  0  0  0
   -6.4597   -1.0096   -2.0729 H   0  0  0  0  0  0  0  0  0  0  0  0
   -5.5811   -2.9745   -0.8502 H   0  0  0  0  0  0  0  0  0  0  0  0
   -3.7703   -2.6987    0.8175 H   0  0  0  0  0  0  0  0  0  0  0  0
   -2.8222   -0.4711    1.2700 H   0  0  0  0  0  0  0  0  0  0  0  0
    0.7067    2.9481   -1.1366 H   0  0  0  0  0  0  0  0  0  0  0  0
    1.3190    3.3074    0.5117 H   0  0  0  0  0  0  0  0  0  0  0  0
    2.5261   -2.2043   -3.2896 H   0  0  0  0  0  0  0  0  0  0  0  0
    3.2421   -2.4840    0.5481 H   0  0  0  0  0  0  0  0  0  0  0  0
    2.7607   -2.8722    2.8889 H   0  0  0  0  0  0  0  0  0  0  0  0
   -1.0907   -4.3341    1.9730 H   0  0  0  0  0  0  0  0  0  0  0  0
   -0.7220   -3.9602   -0.4248 H   0  0  0  0  0  0  0  0  0  0  0  0
    5.9229   -0.6622   -0.1466 H   0  0  0  0  0  0  0  0  0  0  0  0
    7.0160    1.0619    1.2950 H   0  0  0  0  0  0  0  0  0  0  0  0
    5.7515    3.0855    1.9997 H   0  0  0  0  0  0  0  0  0  0  0  0
    3.3963    3.4087    1.2820 H   0  0  0  0  0  0  0  0  0  0  0  0
  1 37  1  0  0  0  0
  2  1  1  0  0  0  0
  2 38  1  6  0  0  0
  3  2  1  0  0  0  0
  3 39  1  0  0  0  0
  3 40  1  0  0  0  0
  4  3  1  0  0  0  0
  5  4  1  0  0  0  0
  6  5  2  0  0  0  0
  6 41  1  0  0  0  0
  7  6  1  0  0  0  0
  8  7  2  0  0  0  0
  9  7  1  0  0  0  0
 10  9  1  0  0  0  0
 11 10  2  0  0  0  0
 11 42  1  0  0  0  0
 12 11  1  0  0  0  0
 12 43  1  0  0  0  0
 13 12  2  0  0  0  0
 13 44  1  0  0  0  0
 14 13  1  0  0  0  0
 14 45  1  0  0  0  0
 15 14  2  0  0  0  0
 15  5  1  0  0  0  0
 15 10  1  0  0  0  0
 16  2  1  0  0  0  0
 16 46  1  0  0  0  0
 16 47  1  0  0  0  0
 17 16  1  0  0  0  0
 18 17  1  0  0  0  0
 19 18  2  0  0  0  0
 20 18  1  0  0  0  0
 21 20  2  0  0  0  0
 22 21  1  0  0  0  0
 22 48  1  0  0  0  0
 23 22  1  0  0  0  0
 24 23  2  0  0  0  0
 25 23  1  0  0  0  0
 26 25  2  0  0  0  0
 26 49  1  0  0  0  0
 27 26  1  0  0  0  0
 27 50  1  0  0  0  0
 28 27  2  0  0  0  0
 29 28  1  0  0  0  0
 29 51  1  0  0  0  0
 30 29  2  0  0  0  0
 30 25  1  0  0  0  0
 30 52  1  0  0  0  0
 31 20  1  0  0  0  0
 32 31  2  0  0  0  0
 32 53  1  0  0  0  0
 33 32  1  0  0  0  0
 33 54  1  0  0  0  0
 34 33  2  0  0  0  0
 34 55  1  0  0  0  0
 35 34  1  0  0  0  0
 35 56  1  0  0  0  0
 36 35  2  0  0  0  0
 36 17  1  0  0  0  0
 36 31  1  0  0  0  0
M  END
>  <MOL Chiral Flag>
0

>  <energy>
185.47965871128943

$$$$
> 135_AKC_j.bioorg.2021.104816
>132_2.sdf
 OpenBabel10102212443D

 56 60  0  0  0  0  0  0  0  0999 V2000
    0.2415    1.1823    1.7575 O   0  0  0  0  0  0  0  0  0  0  0  0
    0.1623    2.4124    1.0747 C   0  0  2  0  0  0  0  0  0  0  0  0
   -1.2993    2.9217    1.1004 C   0  0  0  0  0  0  0  0  0  0  0  0
   -2.1532    1.8730    0.7827 O   0  0  0  0  0  0  0  0  0  0  0  0
   -3.2199    1.7990   -0.0616 C   0  0  0  0  0  0  0  0  0  0  0  0
   -3.7369    2.9120   -0.7459 C   0  0  0  0  0  0  0  0  0  0  0  0
   -4.8596    2.7472   -1.5715 C   0  0  0  0  0  0  0  0  0  0  0  0
   -5.3215    3.7050   -2.1650 O   0  0  0  0  0  0  0  0  0  0  0  0
   -5.4322    1.5539   -1.7091 O   0  0  0  0  0  0  0  0  0  0  0  0
   -4.9825    0.4705   -1.0838 C   0  0  0  0  0  0  0  0  0  0  0  0
   -5.6330   -0.7580   -1.2632 C   0  0  0  0  0  0  0  0  0  0  0  0
   -5.1692   -1.9016   -0.6056 C   0  0  0  0  0  0  0  0  0  0  0  0
   -4.0549   -1.8250    0.2338 C   0  0  0  0  0  0  0  0  0  0  0  0
   -3.3984   -0.6053    0.4222 C   0  0  0  0  0  0  0  0  0  0  0  0
   -3.8555    0.5540   -0.2344 C   0  0  0  0  0  0  0  0  0  0  0  0
    0.7116    2.3068   -0.3640 C   0  0  0  0  0  0  0  0  0  0  0  0
    1.8571    1.4069   -0.4647 N   0  0  0  0  0  0  0  0  0  0  0  0
    1.8303    0.2461   -1.1621 C   0  0  0  0  0  0  0  0  0  0  0  0
    0.8575   -0.1557   -1.7848 O   0  0  0  0  0  0  0  0  0  0  0  0
    3.1179   -0.4396   -1.0447 C   0  0  0  0  0  0  0  0  0  0  0  0
    3.4643   -1.5806   -1.5355 N   0  0  0  0  0  0  0  0  0  0  0  0
    2.5774   -2.3477   -2.2575 N   0  0  0  0  0  0  0  0  0  0  0  0
    1.5436   -3.0439   -1.6880 C   0  0  0  0  0  0  0  0  0  0  0  0
    0.7378   -3.5759   -2.4408 O   0  0  0  0  0  0  0  0  0  0  0  0
    1.3157   -3.1952   -0.1997 C   0  0  0  0  0  0  0  0  0  0  0  0
    2.2931   -2.9183    0.7844 C   0  0  0  0  0  0  0  0  0  0  0  0
    1.9965   -3.1051    2.1373 C   0  0  0  0  0  0  0  0  0  0  0  0
    0.7755   -3.5589    2.5172 N   0  0  0  0  0  0  0  0  0  0  0  0
   -0.1856   -3.8478    1.6044 C   0  0  0  0  0  0  0  0  0  0  0  0
    0.0648   -3.6768    0.2416 C   0  0  0  0  0  0  0  0  0  0  0  0
    3.9374    0.4345   -0.2175 C   0  0  0  0  0  0  0  0  0  0  0  0
    5.2507    0.2969    0.2207 C   0  0  0  0  0  0  0  0  0  0  0  0
    5.7888    1.3127    1.0255 C   0  0  0  0  0  0  0  0  0  0  0  0
    5.0058    2.4371    1.3729 C   0  0  0  0  0  0  0  0  0  0  0  0
    3.6738    2.5550    0.9172 C   0  0  0  0  0  0  0  0  0  0  0  0
    3.1555    1.5307    0.1179 C   0  0  0  0  0  0  0  0  0  0  0  0
   -0.1329    0.4765    1.1664 H   0  0  0  0  0  0  0  0  0  0  0  0
    0.8151    3.1304    1.6126 H   0  0  0  0  0  0  0  0  0  0  0  0
   -1.5299    3.2078    2.1474 H   0  0  0  0  0  0  0  0  0  0  0  0
   -1.4250    3.8219    0.4649 H   0  0  0  0  0  0  0  0  0  0  0  0
   -3.2984    3.8933   -0.6435 H   0  0  0  0  0  0  0  0  0  0  0  0
   -6.4988   -0.8269   -1.9103 H   0  0  0  0  0  0  0  0  0  0  0  0
   -5.6745   -2.8491   -0.7456 H   0  0  0  0  0  0  0  0  0  0  0  0
   -3.6992   -2.7128    0.7413 H   0  0  0  0  0  0  0  0  0  0  0  0
   -2.5384   -0.5702    1.0786 H   0  0  0  0  0  0  0  0  0  0  0  0
   -0.1069    1.9055   -0.9984 H   0  0  0  0  0  0  0  0  0  0  0  0
    0.9586    3.3150   -0.7633 H   0  0  0  0  0  0  0  0  0  0  0  0
    2.6575   -2.3357   -3.2849 H   0  0  0  0  0  0  0  0  0  0  0  0
    3.2852   -2.5877    0.5440 H   0  0  0  0  0  0  0  0  0  0  0  0
    2.7480   -2.8975    2.8877 H   0  0  0  0  0  0  0  0  0  0  0  0
   -1.1478   -4.2149    1.9362 H   0  0  0  0  0  0  0  0  0  0  0  0
   -0.7204   -3.9158   -0.4648 H   0  0  0  0  0  0  0  0  0  0  0  0
    5.8414   -0.5691   -0.0516 H   0  0  0  0  0  0  0  0  0  0  0  0
    6.8094    1.2314    1.3797 H   0  0  0  0  0  0  0  0  0  0  0  0
    5.4362    3.2125    1.9937 H   0  0  0  0  0  0  0  0  0  0  0  0
    3.0827    3.4183    1.1838 H   0  0  0  0  0  0  0  0  0  0  0  0
  1 37  1  0  0  0  0
  2  1  1  0  0  0  0
  2 38  1  1  0  0  0
  3  2  1  0  0  0  0
  3 39  1  0  0  0  0
  3 40  1  0  0  0  0
  4  3  1  0  0  0  0
  5  4  1  0  0  0  0
  6  5  2  0  0  0  0
  6 41  1  0  0  0  0
  7  6  1  0  0  0  0
  8  7  2  0  0  0  0
  9  7  1  0  0  0  0
 10  9  1  0  0  0  0
 11 10  2  0  0  0  0
 11 42  1  0  0  0  0
 12 11  1  0  0  0  0
 12 43  1  0  0  0  0
 13 12  2  0  0  0  0
 13 44  1  0  0  0  0
 14 13  1  0  0  0  0
 14 45  1  0  0  0  0
 15 14  2  0  0  0  0
 15  5  1  0  0  0  0
 15 10  1  0  0  0  0
 16  2  1  0  0  0  0
 16 46  1  0  0  0  0
 16 47  1  0  0  0  0
 17 16  1  0  0  0  0
 18 17  1  0  0  0  0
 19 18  2  0  0  0  0
 20 18  1  0  0  0  0
 21 20  2  0  0  0  0
 22 21  1  0  0  0  0
 22 48  1  0  0  0  0
 23 22  1  0  0  0  0
 24 23  2  0  0  0  0
 25 23  1  0  0  0  0
 26 25  2  0  0  0  0
 26 49  1  0  0  0  0
 27 26  1  0  0  0  0
 27 50  1  0  0  0  0
 28 27  2  0  0  0  0
 29 28  1  0  0  0  0
 29 51  1  0  0  0  0
 30 29  2  0  0  0  0
 30 25  1  0  0  0  0
 30 52  1  0  0  0  0
 31 20  1  0  0  0  0
 32 31  2  0  0  0  0
 32 53  1  0  0  0  0
 33 32  1  0  0  0  0
 33 54  1  0  0  0  0
 34 33  2  0  0  0  0
 34 55  1  0  0  0  0
 35 34  1  0  0  0  0
 35 56  1  0  0  0  0
 36 35  2  0  0  0  0
 36 17  1  0  0  0  0
 36 31  1  0  0  0  0
M  END
>  <MOL Chiral Flag>
0

>  <energy>
185.47965871128943

$$$$
> 136_AKC_jhet.4217
>133.sdf
 OpenBabel10052218433D

 33 35  0  0  0  0  0  0  0  0999 V2000
   -0.6007    4.7052    0.8978 O   0  0  0  0  0  0  0  0  0  0  0  0
    0.6723    4.3174    0.6793 C   0  0  0  0  0  0  0  0  0  0  0  0
    1.5442    5.1658    0.7005 O   0  0  0  0  0  0  0  0  0  0  0  0
    0.9740    2.8690    0.4064 C   0  0  0  0  0  0  0  0  0  0  0  0
   -0.1231    1.9851    0.3961 C   0  0  0  0  0  0  0  0  0  0  0  0
    0.0503    0.6241    0.1382 C   0  0  0  0  0  0  0  0  0  0  0  0
   -1.1243   -0.2805    0.1469 C   0  0  0  0  0  0  0  0  0  0  0  0
   -1.0365   -1.5706   -0.2311 C   0  0  0  0  0  0  0  0  0  0  0  0
   -2.1724   -2.5470   -0.2559 C   0  0  0  0  0  0  0  0  0  0  0  0
   -3.3427   -2.4737    0.5610 C   0  0  0  0  0  0  0  0  0  0  0  0
   -3.6093   -1.2520    1.8020 Cl  0  0  0  0  0  0  0  0  0  0  0  0
   -4.3337   -3.4581    0.4408 C   0  0  0  0  0  0  0  0  0  0  0  0
   -4.1933   -4.5055   -0.4668 C   0  0  0  0  0  0  0  0  0  0  0  0
   -3.0520   -4.5930   -1.2576 C   0  0  0  0  0  0  0  0  0  0  0  0
   -2.0477   -3.6303   -1.1482 C   0  0  0  0  0  0  0  0  0  0  0  0
    1.2932    0.1387   -0.1022 N   0  0  0  0  0  0  0  0  0  0  0  0
    2.3945    0.9301   -0.0932 C   0  0  0  0  0  0  0  0  0  0  0  0
    3.6447    0.3481   -0.3315 C   0  0  0  0  0  0  0  0  0  0  0  0
    4.7975    1.1274   -0.3235 C   0  0  0  0  0  0  0  0  0  0  0  0
    4.7115    2.4948   -0.0804 C   0  0  0  0  0  0  0  0  0  0  0  0
    3.4730    3.0974    0.1586 C   0  0  0  0  0  0  0  0  0  0  0  0
    2.2809    2.3272    0.1606 C   0  0  0  0  0  0  0  0  0  0  0  0
   -1.1242    2.3542    0.5843 H   0  0  0  0  0  0  0  0  0  0  0  0
   -2.0702    0.1466    0.4326 H   0  0  0  0  0  0  0  0  0  0  0  0
   -0.0793   -1.9277   -0.6026 H   0  0  0  0  0  0  0  0  0  0  0  0
   -5.2173   -3.4147    1.0655 H   0  0  0  0  0  0  0  0  0  0  0  0
   -4.9679   -5.2570   -0.5490 H   0  0  0  0  0  0  0  0  0  0  0  0
   -2.9431   -5.4107   -1.9585 H   0  0  0  0  0  0  0  0  0  0  0  0
   -1.1705   -3.7204   -1.7781 H   0  0  0  0  0  0  0  0  0  0  0  0
    3.7217   -0.7158   -0.5202 H   0  0  0  0  0  0  0  0  0  0  0  0
    5.7614    0.6699   -0.5053 H   0  0  0  0  0  0  0  0  0  0  0  0
    5.6120    3.0958   -0.0747 H   0  0  0  0  0  0  0  0  0  0  0  0
    3.4888    4.1529    0.3403 H   0  0  0  0  0  0  0  0  0  0  0  0
  2  1  1  0  0  0  0
  3  2  2  0  0  0  0
  4  2  1  0  0  0  0
  5  4  2  0  0  0  0
  5 23  1  0  0  0  0
  6  5  1  0  0  0  0
  7  6  1  0  0  0  0
  7 24  1  0  0  0  0
  8  7  2  0  0  0  0
  8 25  1  0  0  0  0
  9  8  1  0  0  0  0
 10  9  2  0  0  0  0
 11 10  1  0  0  0  0
 12 10  1  0  0  0  0
 12 26  1  0  0  0  0
 13 12  2  0  0  0  0
 13 27  1  0  0  0  0
 14 13  1  0  0  0  0
 14 28  1  0  0  0  0
 15 14  2  0  0  0  0
 15  9  1  0  0  0  0
 15 29  1  0  0  0  0
 16  6  2  0  0  0  0
 17 16  1  0  0  0  0
 18 17  2  0  0  0  0
 18 30  1  0  0  0  0
 19 18  1  0  0  0  0
 19 31  1  0  0  0  0
 20 19  2  0  0  0  0
 20 32  1  0  0  0  0
 21 20  1  0  0  0  0
 21 33  1  0  0  0  0
 22 21  2  0  0  0  0
 22  4  1  0  0  0  0
 22 17  1  0  0  0  0
M  END
>  <MOL Chiral Flag>
0

>  <energy>
39.968096212190495

$$$$
> 137_AKC_jhet.4217
>134.sdf
 OpenBabel10052218433D

 33 35  0  0  0  0  0  0  0  0999 V2000
    3.4029   -2.5548   -0.8373 O   0  0  0  0  0  0  0  0  0  0  0  0
    3.7852   -1.2833   -0.5996 C   0  0  0  0  0  0  0  0  0  0  0  0
    4.9605   -1.0001   -0.7345 O   0  0  0  0  0  0  0  0  0  0  0  0
    2.7721   -0.2756   -0.1308 C   0  0  0  0  0  0  0  0  0  0  0  0
    1.4640   -0.7465    0.1064 C   0  0  0  0  0  0  0  0  0  0  0  0
    0.4654    0.1159    0.5798 C   0  0  0  0  0  0  0  0  0  0  0  0
   -0.9419   -0.2982    0.7529 C   0  0  0  0  0  0  0  0  0  0  0  0
   -1.5064   -1.2564   -0.0048 C   0  0  0  0  0  0  0  0  0  0  0  0
   -2.9709   -1.4862    0.0028 C   0  0  0  0  0  0  0  0  0  0  0  0
   -3.5798   -1.9153   -1.1865 C   0  0  0  0  0  0  0  0  0  0  0  0
   -4.9680   -2.0456   -1.2628 C   0  0  0  0  0  0  0  0  0  0  0  0
   -5.7600   -1.7779   -0.1430 C   0  0  0  0  0  0  0  0  0  0  0  0
   -7.5043   -1.9251   -0.2486 Cl  0  0  0  0  0  0  0  0  0  0  0  0
   -5.1614   -1.3816    1.0572 C   0  0  0  0  0  0  0  0  0  0  0  0
   -3.7737   -1.2246    1.1314 C   0  0  0  0  0  0  0  0  0  0  0  0
    0.7624    1.4143    0.8154 N   0  0  0  0  0  0  0  0  0  0  0  0
    1.9805    1.9408    0.5604 C   0  0  0  0  0  0  0  0  0  0  0  0
    2.1696    3.3137    0.7510 C   0  0  0  0  0  0  0  0  0  0  0  0
    3.3938    3.9023    0.4572 C   0  0  0  0  0  0  0  0  0  0  0  0
    4.4438    3.1226   -0.0191 C   0  0  0  0  0  0  0  0  0  0  0  0
    4.2788    1.7461   -0.2071 C   0  0  0  0  0  0  0  0  0  0  0  0
    3.0365    1.1221    0.0726 C   0  0  0  0  0  0  0  0  0  0  0  0
    1.2254   -1.7880   -0.0662 H   0  0  0  0  0  0  0  0  0  0  0  0
   -1.5687    0.3134    1.3933 H   0  0  0  0  0  0  0  0  0  0  0  0
   -0.9116   -1.7607   -0.7599 H   0  0  0  0  0  0  0  0  0  0  0  0
   -2.9806   -2.1021   -2.0698 H   0  0  0  0  0  0  0  0  0  0  0  0
   -5.4274   -2.3399   -2.1976 H   0  0  0  0  0  0  0  0  0  0  0  0
   -5.7720   -1.1801    1.9280 H   0  0  0  0  0  0  0  0  0  0  0  0
   -3.3333   -0.9061    2.0671 H   0  0  0  0  0  0  0  0  0  0  0  0
    1.3530    3.9285    1.1110 H   0  0  0  0  0  0  0  0  0  0  0  0
    3.5266    4.9680    0.5914 H   0  0  0  0  0  0  0  0  0  0  0  0
    5.3920    3.5881   -0.2537 H   0  0  0  0  0  0  0  0  0  0  0  0
    5.1268    1.2156   -0.5909 H   0  0  0  0  0  0  0  0  0  0  0  0
  2  1  1  0  0  0  0
  3  2  2  0  0  0  0
  4  2  1  0  0  0  0
  5  4  2  0  0  0  0
  5 23  1  0  0  0  0
  6  5  1  0  0  0  0
  7  6  1  0  0  0  0
  7 24  1  0  0  0  0
  8  7  2  0  0  0  0
  8 25  1  0  0  0  0
  9  8  1  0  0  0  0
 10  9  2  0  0  0  0
 10 26  1  0  0  0  0
 11 10  1  0  0  0  0
 11 27  1  0  0  0  0
 12 11  2  0  0  0  0
 13 12  1  0  0  0  0
 14 12  1  0  0  0  0
 14 28  1  0  0  0  0
 15 14  2  0  0  0  0
 15  9  1  0  0  0  0
 15 29  1  0  0  0  0
 16  6  2  0  0  0  0
 17 16  1  0  0  0  0
 18 17  2  0  0  0  0
 18 30  1  0  0  0  0
 19 18  1  0  0  0  0
 19 31  1  0  0  0  0
 20 19  2  0  0  0  0
 20 32  1  0  0  0  0
 21 20  1  0  0  0  0
 21 33  1  0  0  0  0
 22 21  2  0  0  0  0
 22  4  1  0  0  0  0
 22 17  1  0  0  0  0
M  END
>  <MOL Chiral Flag>
0

>  <energy>
33.733410830711485

$$$$
> 138_AKC_j.ejmech.2020.113101
>135.sdf
 OpenBabel10052218443D

 31 33  0  0  0  0  0  0  0  0999 V2000
   -1.5718    3.3973    0.0433 O   0  0  0  0  0  0  0  0  0  0  0  0
   -1.9392    2.2692    0.7856 C   0  0  0  0  0  0  0  0  0  0  0  0
   -2.1519    1.0771   -0.1517 C   0  0  1  0  0  0  0  0  0  0  0  0
   -0.9827    0.7835   -0.9061 O   0  0  0  0  0  0  0  0  0  0  0  0
   -0.8106   -0.6280   -0.8804 C   0  0  2  0  0  0  0  0  0  0  0  0
   -2.1242   -1.2426   -0.3576 C   0  0  2  0  0  0  0  0  0  0  0  0
   -3.1055   -1.3372   -1.3739 O   0  0  0  0  0  0  0  0  0  0  0  0
   -2.5044   -0.1861    0.6381 C   0  0  2  0  0  0  0  0  0  0  0  0
   -3.8378   -0.2515    1.0830 O   0  0  0  0  0  0  0  0  0  0  0  0
    0.4180   -0.9358   -0.0614 C   0  0  0  0  0  0  0  0  0  0  0  0
    0.4591   -1.6023    1.1219 N   0  0  0  0  0  0  0  0  0  0  0  0
    1.7331   -1.6821    1.5059 N   0  0  0  0  0  0  0  0  0  0  0  0
    2.4971   -1.0867    0.5726 C   0  0  0  0  0  0  0  0  0  0  0  0
    1.7060   -0.6096   -0.4100 C   0  0  0  0  0  0  0  0  0  0  0  0
    2.1956    0.0265   -1.5001 N   0  0  0  0  0  0  0  0  0  0  0  0
    3.5509    0.1885   -1.6000 C   0  0  0  0  0  0  0  0  0  0  0  0
    4.3854   -0.2832   -0.6134 N   0  0  0  0  0  0  0  0  0  0  0  0
    3.8722   -0.9291    0.4948 C   0  0  0  0  0  0  0  0  0  0  0  0
    4.6088   -1.3531    1.3681 O   0  0  0  0  0  0  0  0  0  0  0  0
   -1.3167    4.0898    0.7075 H   0  0  0  0  0  0  0  0  0  0  0  0
   -2.8869    2.4762    1.3317 H   0  0  0  0  0  0  0  0  0  0  0  0
   -1.1333    2.0196    1.5135 H   0  0  0  0  0  0  0  0  0  0  0  0
   -2.9573    1.3177   -0.8823 H   0  0  0  0  0  0  0  0  0  0  0  0
   -0.6156   -1.0401   -1.8942 H   0  0  0  0  0  0  0  0  0  0  0  0
   -1.9976   -2.2617    0.0673 H   0  0  0  0  0  0  0  0  0  0  0  0
   -2.9059   -0.7058   -2.1135 H   0  0  0  0  0  0  0  0  0  0  0  0
   -1.8233   -0.2758    1.5135 H   0  0  0  0  0  0  0  0  0  0  0  0
   -4.4306   -0.0387    0.3150 H   0  0  0  0  0  0  0  0  0  0  0  0
    2.0610   -2.1451    2.3826 H   0  0  0  0  0  0  0  0  0  0  0  0
    3.9661    0.6878   -2.4657 H   0  0  0  0  0  0  0  0  0  0  0  0
    5.4176   -0.1526   -0.7111 H   0  0  0  0  0  0  0  0  0  0  0  0
  1 20  1  0  0  0  0
  2  1  1  0  0  0  0
  2 21  1  0  0  0  0
  2 22  1  0  0  0  0
  3  2  1  0  0  0  0
  3 23  1  6  0  0  0
  4  3  1  0  0  0  0
  5  4  1  0  0  0  0
  5 24  1  6  0  0  0
  6  5  1  0  0  0  0
  6 25  1  1  0  0  0
  7  6  1  0  0  0  0
  7 26  1  0  0  0  0
  8  6  1  0  0  0  0
  8  3  1  0  0  0  0
  8 27  1  1  0  0  0
  9  8  1  0  0  0  0
  9 28  1  0  0  0  0
 10  5  1  0  0  0  0
 11 10  2  0  0  0  0
 12 11  1  0  0  0  0
 12 29  1  0  0  0  0
 13 12  1  0  0  0  0
 14 13  2  0  0  0  0
 14 10  1  0  0  0  0
 15 14  1  0  0  0  0
 16 15  2  0  0  0  0
 16 30  1  0  0  0  0
 17 16  1  0  0  0  0
 17 31  1  0  0  0  0
 18 17  1  0  0  0  0
 18 13  1  0  0  0  0
 19 18  2  0  0  0  0
M  END
>  <MOL Chiral Flag>
0

>  <energy>
40.873778119395602

$$$$
> 139_AKC_j.jddst.2020.101988
>136.sdf
 OpenBabel10052218443D

 50 51  0  0  0  0  0  0  0  0999 V2000
   -1.5744   -2.7048   -0.1698 C   0  0  0  0  0  0  0  0  0  0  0  0
   -2.8526   -2.0773    0.2755 N   0  3  0  0  0  0  0  0  0  0  0  0
   -2.7516   -1.7583    1.7200 C   0  0  0  0  0  0  0  0  0  0  0  0
   -3.9491   -3.0717    0.1039 C   0  0  0  0  0  0  0  0  0  0  0  0
   -4.2725   -3.7763   -1.9172 I   0  0  0  0  0  0  0  0  0  0  0  0
   -3.1663   -0.8513   -0.5319 C   0  0  0  0  0  0  0  0  0  0  0  0
   -2.1458    0.3030   -0.3737 C   0  0  0  0  0  0  0  0  0  0  0  0
   -2.0117    1.1571   -1.6571 C   0  0  0  0  0  0  0  0  0  0  0  0
   -0.6952    1.9692   -1.7089 C   0  0  0  0  0  0  0  0  0  0  0  0
    0.4780    1.0081   -1.5603 C   0  0  0  0  0  0  0  0  0  0  0  0
    1.4656    1.0422   -0.6126 C   0  0  0  0  0  0  0  0  0  0  0  0
    1.5539    2.1228    0.4248 C   0  0  0  0  0  0  0  0  0  0  0  0
    2.8039    2.7350    0.6531 C   0  0  0  0  0  0  0  0  0  0  0  0
    2.9364    3.7575    1.5927 C   0  0  0  0  0  0  0  0  0  0  0  0
    1.8299    4.1774    2.3312 C   0  0  0  0  0  0  0  0  0  0  0  0
    0.5891    3.5678    2.1335 C   0  0  0  0  0  0  0  0  0  0  0  0
    0.4495    2.5476    1.1893 C   0  0  0  0  0  0  0  0  0  0  0  0
    2.5074   -0.0596   -0.5835 C   0  0  0  0  0  0  0  0  0  0  0  0
    2.8161   -0.8495   -1.7146 C   0  0  0  0  0  0  0  0  0  0  0  0
    3.7514   -1.8872   -1.6273 C   0  0  0  0  0  0  0  0  0  0  0  0
    4.3846   -2.1638   -0.4151 C   0  0  0  0  0  0  0  0  0  0  0  0
    4.0914   -1.4020    0.7120 C   0  0  0  0  0  0  0  0  0  0  0  0
    3.1670   -0.3574    0.6351 C   0  0  0  0  0  0  0  0  0  0  0  0
   -0.6762   -2.1322    0.1400 H   0  0  0  0  0  0  0  0  0  0  0  0
   -1.4373   -3.7121    0.2789 H   0  0  0  0  0  0  0  0  0  0  0  0
   -1.5346   -2.8106   -1.2763 H   0  0  0  0  0  0  0  0  0  0  0  0
   -1.9318   -1.0368    1.9267 H   0  0  0  0  0  0  0  0  0  0  0  0
   -2.5256   -2.6736    2.3136 H   0  0  0  0  0  0  0  0  0  0  0  0
   -3.7007   -1.3228    2.1021 H   0  0  0  0  0  0  0  0  0  0  0  0
   -3.7459   -3.9861    0.7067 H   0  0  0  0  0  0  0  0  0  0  0  0
   -4.9173   -2.6562    0.4591 H   0  0  0  0  0  0  0  0  0  0  0  0
   -3.1733   -1.1512   -1.5998 H   0  0  0  0  0  0  0  0  0  0  0  0
   -4.1856   -0.4552   -0.3177 H   0  0  0  0  0  0  0  0  0  0  0  0
   -1.1683   -0.1522   -0.2112 H   0  0  0  0  0  0  0  0  0  0  0  0
   -2.3608    0.9132    0.5289 H   0  0  0  0  0  0  0  0  0  0  0  0
   -1.9575    0.4663   -2.5279 H   0  0  0  0  0  0  0  0  0  0  0  0
   -2.9045    1.8026   -1.8004 H   0  0  0  0  0  0  0  0  0  0  0  0
   -0.7150    2.7931   -0.9810 H   0  0  0  0  0  0  0  0  0  0  0  0
   -0.6255    2.4487   -2.7083 H   0  0  0  0  0  0  0  0  0  0  0  0
    0.4688    0.1966   -2.2748 H   0  0  0  0  0  0  0  0  0  0  0  0
    3.6724    2.4289    0.0820 H   0  0  0  0  0  0  0  0  0  0  0  0
    3.8994    4.2278    1.7457 H   0  0  0  0  0  0  0  0  0  0  0  0
    1.9346    4.9706    3.0588 H   0  0  0  0  0  0  0  0  0  0  0  0
   -0.2661    3.8865    2.7153 H   0  0  0  0  0  0  0  0  0  0  0  0
   -0.5137    2.0818    1.0736 H   0  0  0  0  0  0  0  0  0  0  0  0
    2.3547   -0.6712   -2.6743 H   0  0  0  0  0  0  0  0  0  0  0  0
    3.9826   -2.4814   -2.5010 H   0  0  0  0  0  0  0  0  0  0  0  0
    5.1005   -2.9733   -0.3500 H   0  0  0  0  0  0  0  0  0  0  0  0
    4.5749   -1.6248    1.6556 H   0  0  0  0  0  0  0  0  0  0  0  0
    2.9468    0.1956    1.5371 H   0  0  0  0  0  0  0  0  0  0  0  0
  1 24  1  0  0  0  0
  1 25  1  0  0  0  0
  1 26  1  0  0  0  0
  2  1  1  0  0  0  0
  3  2  1  0  0  0  0
  3 27  1  0  0  0  0
  3 28  1  0  0  0  0
  3 29  1  0  0  0  0
  4  2  1  0  0  0  0
  4 30  1  0  0  0  0
  4 31  1  0  0  0  0
  5  4  1  0  0  0  0
  6  2  1  0  0  0  0
  6 32  1  0  0  0  0
  6 33  1  0  0  0  0
  7  6  1  0  0  0  0
  7 34  1  0  0  0  0
  7 35  1  0  0  0  0
  8  7  1  0  0  0  0
  8 36  1  0  0  0  0
  8 37  1  0  0  0  0
  9  8  1  0  0  0  0
  9 38  1  0  0  0  0
  9 39  1  0  0  0  0
 10  9  1  0  0  0  0
 10 40  1  0  0  0  0
 11 10  2  0  0  0  0
 12 11  1  0  0  0  0
 13 12  2  0  0  0  0
 13 41  1  0  0  0  0
 14 13  1  0  0  0  0
 14 42  1  0  0  0  0
 15 14  2  0  0  0  0
 15 43  1  0  0  0  0
 16 15  1  0  0  0  0
 16 44  1  0  0  0  0
 17 16  2  0  0  0  0
 17 12  1  0  0  0  0
 17 45  1  0  0  0  0
 18 11  1  0  0  0  0
 19 18  2  0  0  0  0
 19 46  1  0  0  0  0
 20 19  1  0  0  0  0
 20 47  1  0  0  0  0
 21 20  2  0  0  0  0
 21 48  1  0  0  0  0
 22 21  1  0  0  0  0
 22 49  1  0  0  0  0
 23 22  2  0  0  0  0
 23 18  1  0  0  0  0
 23 50  1  0  0  0  0
M  CHG  1   2   1
M  END
>  <MOL Chiral Flag>
0

>  <energy>
59.473445373788024

$$$$
> 140_AKC_fchem.2020.624678
>137.sdf
 OpenBabel10052218443D

 30 31  0  0  0  0  0  0  0  0999 V2000
   -6.5391   -3.7837   -2.9881 Br  0  0  0  0  0  0  0  0  0  0  0  0
   -5.3145   -2.6860   -2.0163 C   0  0  0  0  0  0  0  0  0  0  0  0
   -4.0903   -2.3236   -2.5846 C   0  0  0  0  0  0  0  0  0  0  0  0
   -3.1835   -1.5316   -1.8679 C   0  0  0  0  0  0  0  0  0  0  0  0
   -3.4972   -1.0927   -0.5637 C   0  0  0  0  0  0  0  0  0  0  0  0
   -4.7435   -1.4616   -0.0113 C   0  0  0  0  0  0  0  0  0  0  0  0
   -5.6405   -2.2510   -0.7324 C   0  0  0  0  0  0  0  0  0  0  0  0
   -2.5507   -0.2812    0.2674 C   0  0  0  0  0  0  0  0  0  0  0  0
   -2.8940    0.0183    1.4036 O   0  0  0  0  0  0  0  0  0  0  0  0
   -1.1961    0.1534   -0.2031 C   0  0  0  0  0  0  0  0  0  0  0  0
   -0.3350    0.7272    0.6663 C   0  0  0  0  0  0  0  0  0  0  0  0
    1.0360    1.2184    0.3477 C   0  0  0  0  0  0  0  0  0  0  0  0
    1.8149    1.7042    1.4105 C   0  0  0  0  0  0  0  0  0  0  0  0
    3.0961    2.2076    1.1899 C   0  0  0  0  0  0  0  0  0  0  0  0
    3.6353    2.2428   -0.1067 C   0  0  0  0  0  0  0  0  0  0  0  0
    2.8636    1.7457   -1.1766 C   0  0  0  0  0  0  0  0  0  0  0  0
    1.5764    1.2360   -0.9538 C   0  0  0  0  0  0  0  0  0  0  0  0
    4.9408    2.7818   -0.3335 N   0  0  0  0  0  0  0  0  0  0  0  0
    5.5736    3.2319    0.5751 O   0  0  0  0  0  0  0  0  0  0  0  0
    5.3991    2.8124   -1.4352 O   0  0  0  0  0  0  0  0  0  0  0  0
   -3.8378   -2.6631   -3.5808 H   0  0  0  0  0  0  0  0  0  0  0  0
   -2.2456   -1.2821   -2.3373 H   0  0  0  0  0  0  0  0  0  0  0  0
   -5.0209   -1.1459    0.9868 H   0  0  0  0  0  0  0  0  0  0  0  0
   -6.5873   -2.5300   -0.2869 H   0  0  0  0  0  0  0  0  0  0  0  0
   -0.9046   -0.0023   -1.2304 H   0  0  0  0  0  0  0  0  0  0  0  0
   -0.6536    0.8433    1.6983 H   0  0  0  0  0  0  0  0  0  0  0  0
    1.4244    1.6961    2.4211 H   0  0  0  0  0  0  0  0  0  0  0  0
    3.6647    2.5766    2.0342 H   0  0  0  0  0  0  0  0  0  0  0  0
    3.2550    1.7608   -2.1859 H   0  0  0  0  0  0  0  0  0  0  0  0
    1.0135    0.8755   -1.8016 H   0  0  0  0  0  0  0  0  0  0  0  0
  2  1  1  0  0  0  0
  3  2  2  0  0  0  0
  3 21  1  0  0  0  0
  4  3  1  0  0  0  0
  4 22  1  0  0  0  0
  5  4  2  0  0  0  0
  6  5  1  0  0  0  0
  6 23  1  0  0  0  0
  7  6  2  0  0  0  0
  7  2  1  0  0  0  0
  7 24  1  0  0  0  0
  8  5  1  0  0  0  0
  9  8  2  0  0  0  0
 10  8  1  0  0  0  0
 10 25  1  0  0  0  0
 11 10  2  0  0  0  0
 11 26  1  0  0  0  0
 12 11  1  0  0  0  0
 13 12  2  0  0  0  0
 13 27  1  0  0  0  0
 14 13  1  0  0  0  0
 14 28  1  0  0  0  0
 15 14  2  0  0  0  0
 16 15  1  0  0  0  0
 16 29  1  0  0  0  0
 17 16  2  0  0  0  0
 17 12  1  0  0  0  0
 17 30  1  0  0  0  0
 18 15  1  0  0  0  0
 19 18  2  0  0  0  0
 20 18  2  0  0  0  0
M  END
>  <MOL Chiral Flag>
0

>  <energy>
110.77812498258429

$$$$
> 141_AKC_acsinfecdis.0c00546
>138.sdf
 OpenBabel10052218453D

 51 53  0  0  0  0  0  0  0  0999 V2000
   -4.4347   -2.6406   -1.7743 C   0  0  0  0  0  0  0  0  0  0  0  0
   -3.0477   -2.2871   -2.1038 N   0  3  1  0  0  0  0  0  0  0  0  0
   -2.9072   -1.7238   -3.4499 C   0  0  0  0  0  0  0  0  0  0  0  0
   -1.5223   -1.1131   -3.4164 C   0  0  0  0  0  0  0  0  0  0  0  0
   -1.5860   -0.3650   -2.1039 C   0  0  0  0  0  0  0  0  0  0  0  0
   -2.4459   -1.2706   -1.1970 C   0  0  2  0  0  0  0  0  0  0  0  0
   -1.7105   -1.9568   -0.0155 C   0  0  0  0  0  0  0  0  0  0  0  0
   -1.1030   -1.0085    1.0333 C   0  0  0  0  0  0  0  0  0  0  0  0
    0.1340   -0.4826    0.5841 O   0  0  0  0  0  0  0  0  0  0  0  0
    0.6176    0.6383    1.3362 C   0  0  2  0  0  0  0  0  0  0  0  0
    0.5271    0.3987    2.8774 C   0  0  0  0  0  0  0  0  0  0  0  0
   -0.1351    1.8827    0.8448 C   0  0  0  0  0  0  0  0  0  0  0  0
   -0.9688    2.6528    1.6882 C   0  0  0  0  0  0  0  0  0  0  0  0
   -1.6613    3.7560    1.1800 C   0  0  0  0  0  0  0  0  0  0  0  0
   -1.5327    4.1105   -0.1636 C   0  0  0  0  0  0  0  0  0  0  0  0
   -0.7036    3.3682   -1.0039 C   0  0  0  0  0  0  0  0  0  0  0  0
   -0.0087    2.2662   -0.5051 C   0  0  0  0  0  0  0  0  0  0  0  0
    2.1155    0.8137    1.0340 C   0  0  0  0  0  0  0  0  0  0  0  0
    2.8247   -0.1366    0.2654 C   0  0  0  0  0  0  0  0  0  0  0  0
    4.1875    0.0321    0.0059 C   0  0  0  0  0  0  0  0  0  0  0  0
    4.8641    1.1492    0.4996 C   0  0  0  0  0  0  0  0  0  0  0  0
    6.5738    1.3565    0.1653 Cl  0  0  0  0  0  0  0  0  0  0  0  0
    4.1786    2.0996    1.2591 C   0  0  0  0  0  0  0  0  0  0  0  0
    2.8163    1.9356    1.5297 C   0  0  0  0  0  0  0  0  0  0  0  0
   -4.8127   -3.4019   -2.4918 H   0  0  0  0  0  0  0  0  0  0  0  0
   -5.0973   -1.7494   -1.8144 H   0  0  0  0  0  0  0  0  0  0  0  0
   -4.4851   -3.0817   -0.7557 H   0  0  0  0  0  0  0  0  0  0  0  0
   -2.4694   -3.1633   -2.0861 H   0  0  0  0  0  0  0  0  0  0  0  0
   -3.6624   -0.9182   -3.6173 H   0  0  0  0  0  0  0  0  0  0  0  0
   -3.0170   -2.4896   -4.2493 H   0  0  0  0  0  0  0  0  0  0  0  0
   -1.2680   -0.4762   -4.2912 H   0  0  0  0  0  0  0  0  0  0  0  0
   -0.7767   -1.9341   -3.3292 H   0  0  0  0  0  0  0  0  0  0  0  0
   -2.1791    0.5581   -2.3072 H   0  0  0  0  0  0  0  0  0  0  0  0
   -0.5995   -0.0682   -1.7197 H   0  0  0  0  0  0  0  0  0  0  0  0
   -3.2320   -0.6165   -0.7492 H   0  0  0  0  0  0  0  0  0  0  0  0
   -0.9281   -2.6615   -0.3709 H   0  0  0  0  0  0  0  0  0  0  0  0
   -2.4879   -2.5508    0.5123 H   0  0  0  0  0  0  0  0  0  0  0  0
   -0.8962   -1.6372    1.9265 H   0  0  0  0  0  0  0  0  0  0  0  0
   -1.8480   -0.2215    1.2906 H   0  0  0  0  0  0  0  0  0  0  0  0
   -0.5143    0.2601    3.2329 H   0  0  0  0  0  0  0  0  0  0  0  0
    0.9472    1.2552    3.4464 H   0  0  0  0  0  0  0  0  0  0  0  0
    1.1035   -0.5103    3.1555 H   0  0  0  0  0  0  0  0  0  0  0  0
   -1.1011    2.4055    2.7305 H   0  0  0  0  0  0  0  0  0  0  0  0
   -2.3046    4.3348    1.8301 H   0  0  0  0  0  0  0  0  0  0  0  0
   -2.0745    4.9616   -0.5541 H   0  0  0  0  0  0  0  0  0  0  0  0
   -0.6005    3.6442   -2.0451 H   0  0  0  0  0  0  0  0  0  0  0  0
    0.6335    1.7065   -1.1727 H   0  0  0  0  0  0  0  0  0  0  0  0
    2.3344   -1.0164   -0.1295 H   0  0  0  0  0  0  0  0  0  0  0  0
    4.7176   -0.7082   -0.5797 H   0  0  0  0  0  0  0  0  0  0  0  0
    4.7015    2.9673    1.6412 H   0  0  0  0  0  0  0  0  0  0  0  0
    2.3046    2.6855    2.1186 H   0  0  0  0  0  0  0  0  0  0  0  0
  1 25  1  0  0  0  0
  1 26  1  0  0  0  0
  1 27  1  0  0  0  0
  2  1  1  0  0  0  0
  2 28  1  1  0  0  0
  3  2  1  0  0  0  0
  3 29  1  0  0  0  0
  3 30  1  0  0  0  0
  4  3  1  0  0  0  0
  4 31  1  0  0  0  0
  4 32  1  0  0  0  0
  5  4  1  0  0  0  0
  5 33  1  0  0  0  0
  5 34  1  0  0  0  0
  6  5  1  0  0  0  0
  6  2  1  0  0  0  0
  6 35  1  1  0  0  0
  7  6  1  0  0  0  0
  7 36  1  0  0  0  0
  7 37  1  0  0  0  0
  8  7  1  0  0  0  0
  8 38  1  0  0  0  0
  8 39  1  0  0  0  0
  9  8  1  0  0  0  0
 10  9  1  6  0  0  0
 11 10  1  0  0  0  0
 11 40  1  0  0  0  0
 11 41  1  0  0  0  0
 11 42  1  0  0  0  0
 12 10  1  0  0  0  0
 13 12  2  0  0  0  0
 13 43  1  0  0  0  0
 14 13  1  0  0  0  0
 14 44  1  0  0  0  0
 15 14  2  0  0  0  0
 15 45  1  0  0  0  0
 16 15  1  0  0  0  0
 16 46  1  0  0  0  0
 17 16  2  0  0  0  0
 17 12  1  0  0  0  0
 17 47  1  0  0  0  0
 18 10  1  0  0  0  0
 19 18  2  0  0  0  0
 19 48  1  0  0  0  0
 20 19  1  0  0  0  0
 20 49  1  0  0  0  0
 21 20  2  0  0  0  0
 22 21  1  0  0  0  0
 23 21  1  0  0  0  0
 23 50  1  0  0  0  0
 24 23  2  0  0  0  0
 24 18  1  0  0  0  0
 24 51  1  0  0  0  0
M  CHG  1   2   1
M  END
>  <MOL Chiral Flag>
0

>  <energy>
82.828051247253583

$$$$
> 142_AKC_10406638.2021.2014532
>139.sdf
 OpenBabel10052218453D

 47 50  0  0  0  0  0  0  0  0999 V2000
   -0.9556    1.0899   -2.7951 O   0  0  0  0  0  0  0  0  0  0  0  0
   -1.9334    0.1144   -2.5395 C   0  0  0  0  0  0  0  0  0  0  0  0
   -2.0612   -0.1883   -1.0260 C   0  0  1  0  0  0  0  0  0  0  0  0
   -2.4316    1.0900   -0.2083 C   0  0  0  0  0  0  0  0  0  0  0  0
   -1.3915    2.1200   -0.1621 N   0  0  0  0  0  0  0  0  0  0  0  0
   -0.2244    2.0727    0.5029 C   0  0  0  0  0  0  0  0  0  0  0  0
    0.4206    3.2734    0.3189 C   0  0  0  0  0  0  0  0  0  0  0  0
   -0.3438    4.0693   -0.4575 N   0  0  0  0  0  0  0  0  0  0  0  0
   -1.4457    3.3406   -0.7303 C   0  0  0  0  0  0  0  0  0  0  0  0
   -3.1996   -1.2444   -0.7687 C   0  0  0  0  0  0  0  0  0  0  0  0
   -2.6436   -2.0979    0.3322 C   0  0  0  0  0  0  0  0  0  0  0  0
   -1.2952   -1.9187    0.4882 C   0  0  0  0  0  0  0  0  0  0  0  0
   -0.5678   -2.6615    1.4265 C   0  0  0  0  0  0  0  0  0  0  0  0
   -1.2519   -3.5987    2.2167 C   0  0  0  0  0  0  0  0  0  0  0  0
   -2.6357   -3.7920    2.0455 C   0  0  0  0  0  0  0  0  0  0  0  0
   -3.3377   -3.0453    1.0863 C   0  0  0  0  0  0  0  0  0  0  0  0
   -0.8578   -0.8905   -0.4354 C   0  0  0  0  0  0  0  0  0  0  0  0
    0.3542   -0.6476   -0.7998 N   0  0  0  0  0  0  0  0  0  0  0  0
    1.3778   -1.3723   -0.3953 O   0  0  0  0  0  0  0  0  0  0  0  0
    2.6343   -1.0996   -0.8850 C   0  0  0  0  0  0  0  0  0  0  0  0
    3.2335    0.0496   -0.1292 C   0  0  0  0  0  0  0  0  0  0  0  0
    3.4344    1.2879   -0.7595 C   0  0  0  0  0  0  0  0  0  0  0  0
    3.9835    2.3568   -0.0457 C   0  0  0  0  0  0  0  0  0  0  0  0
    4.3463    2.1925    1.2944 C   0  0  0  0  0  0  0  0  0  0  0  0
    4.8831    3.2291    1.9831 F   0  0  0  0  0  0  0  0  0  0  0  0
    4.1557    0.9596    1.9249 C   0  0  0  0  0  0  0  0  0  0  0  0
    3.5949   -0.1090    1.2201 C   0  0  0  0  0  0  0  0  0  0  0  0
    3.4182   -1.3023    1.8431 F   0  0  0  0  0  0  0  0  0  0  0  0
   -0.1079    0.6183   -3.0015 H   0  0  0  0  0  0  0  0  0  0  0  0
   -1.7121   -0.8191   -3.1090 H   0  0  0  0  0  0  0  0  0  0  0  0
   -2.9020    0.4936   -2.9289 H   0  0  0  0  0  0  0  0  0  0  0  0
   -2.6932    0.8254    0.8403 H   0  0  0  0  0  0  0  0  0  0  0  0
   -3.3490    1.5201   -0.6703 H   0  0  0  0  0  0  0  0  0  0  0  0
    0.1237    1.2389    1.0982 H   0  0  0  0  0  0  0  0  0  0  0  0
    1.3765    3.5599    0.7349 H   0  0  0  0  0  0  0  0  0  0  0  0
   -2.2729    3.6987   -1.3304 H   0  0  0  0  0  0  0  0  0  0  0  0
   -3.3340   -1.9398   -1.6269 H   0  0  0  0  0  0  0  0  0  0  0  0
   -4.1773   -0.7666   -0.5420 H   0  0  0  0  0  0  0  0  0  0  0  0
    0.4937   -2.5155    1.5653 H   0  0  0  0  0  0  0  0  0  0  0  0
   -0.7136   -4.1754    2.9575 H   0  0  0  0  0  0  0  0  0  0  0  0
   -3.1585   -4.5204    2.6512 H   0  0  0  0  0  0  0  0  0  0  0  0
   -4.3991   -3.1968    0.9396 H   0  0  0  0  0  0  0  0  0  0  0  0
    2.5552   -0.8802   -1.9741 H   0  0  0  0  0  0  0  0  0  0  0  0
    3.2887   -1.9911   -0.7818 H   0  0  0  0  0  0  0  0  0  0  0  0
    3.1535    1.4281   -1.7961 H   0  0  0  0  0  0  0  0  0  0  0  0
    4.1260    3.3129   -0.5320 H   0  0  0  0  0  0  0  0  0  0  0  0
    4.4422    0.8312    2.9607 H   0  0  0  0  0  0  0  0  0  0  0  0
  1 29  1  0  0  0  0
  2  1  1  0  0  0  0
  2 30  1  0  0  0  0
  2 31  1  0  0  0  0
  3  2  1  6  0  0  0
  4  3  1  0  0  0  0
  4 32  1  0  0  0  0
  4 33  1  0  0  0  0
  5  4  1  0  0  0  0
  6  5  1  0  0  0  0
  6 34  1  0  0  0  0
  7  6  2  0  0  0  0
  7 35  1  0  0  0  0
  8  7  1  0  0  0  0
  9  8  2  0  0  0  0
  9  5  1  0  0  0  0
  9 36  1  0  0  0  0
 10  3  1  0  0  0  0
 10 37  1  0  0  0  0
 10 38  1  0  0  0  0
 11 10  1  0  0  0  0
 12 11  2  0  0  0  0
 13 12  1  0  0  0  0
 13 39  1  0  0  0  0
 14 13  2  0  0  0  0
 14 40  1  0  0  0  0
 15 14  1  0  0  0  0
 15 41  1  0  0  0  0
 16 15  2  0  0  0  0
 16 11  1  0  0  0  0
 16 42  1  0  0  0  0
 17 12  1  0  0  0  0
 17  3  1  0  0  0  0
 18 17  2  0  0  0  0
 19 18  1  0  0  0  0
 20 19  1  0  0  0  0
 20 43  1  0  0  0  0
 20 44  1  0  0  0  0
 21 20  1  0  0  0  0
 22 21  2  0  0  0  0
 22 45  1  0  0  0  0
 23 22  1  0  0  0  0
 23 46  1  0  0  0  0
 24 23  2  0  0  0  0
 25 24  1  0  0  0  0
 26 24  1  0  0  0  0
 26 47  1  0  0  0  0
 27 26  2  0  0  0  0
 27 21  1  0  0  0  0
 28 27  1  0  0  0  0
M  END
>  <MOL Chiral Flag>
0

>  <energy>
60.448317191076754

$$$$
> 143_AKC_07391102.2021.1973564
>140.sdf
 OpenBabel10052218453D

 46 51  0  0  0  0  0  0  0  0999 V2000
   -0.1374   -5.7989    0.8969 C   0  0  0  0  0  0  0  0  0  0  0  0
   -0.2504   -4.4458    1.1577 O   0  0  0  0  0  0  0  0  0  0  0  0
   -1.4304   -3.7713    1.1845 C   0  0  0  0  0  0  0  0  0  0  0  0
   -2.4866   -4.3781    1.3064 O   0  0  0  0  0  0  0  0  0  0  0  0
   -1.4415   -2.3124    0.9201 C   0  0  0  0  0  0  0  0  0  0  0  0
   -0.2228   -1.5981    0.8029 C   0  0  0  0  0  0  0  0  0  0  0  0
   -0.1875   -0.2192    0.4425 C   0  0  0  0  0  0  0  0  0  0  0  0
   -1.4415    0.3943    0.1878 C   0  0  0  0  0  0  0  0  0  0  0  0
   -1.7157    1.6419   -0.2768 N   0  0  0  0  0  0  0  0  0  0  0  0
   -3.0580    1.6999   -0.4228 C   0  0  0  0  0  0  0  0  0  0  0  0
   -3.6409    0.5113   -0.0646 C   0  0  0  0  0  0  0  0  0  0  0  0
   -5.0143    0.3017   -0.1695 C   0  0  0  0  0  0  0  0  0  0  0  0
   -5.8052    1.3572   -0.6573 C   0  0  0  0  0  0  0  0  0  0  0  0
   -5.2081    2.5870   -1.0219 C   0  0  0  0  0  0  0  0  0  0  0  0
   -3.8152    2.7659   -0.9043 C   0  0  0  0  0  0  0  0  0  0  0  0
   -2.6207   -0.3206    0.3182 C   0  0  0  0  0  0  0  0  0  0  0  0
   -2.6591   -1.6514    0.6962 C   0  0  0  0  0  0  0  0  0  0  0  0
    1.1504    0.4495    0.2492 C   0  0  0  0  0  0  0  0  0  0  0  0
    2.2411   -0.3276   -0.2345 C   0  0  0  0  0  0  0  0  0  0  0  0
    3.5062    0.2494   -0.4924 C   0  0  0  0  0  0  0  0  0  0  0  0
    4.5538   -0.5373   -0.9928 C   0  0  0  0  0  0  0  0  0  0  0  0
    5.7958    0.0409   -1.2664 C   0  0  0  0  0  0  0  0  0  0  0  0
    6.0029    1.4062   -1.0417 C   0  0  0  0  0  0  0  0  0  0  0  0
    4.9697    2.2034   -0.5348 C   0  0  0  0  0  0  0  0  0  0  0  0
    3.7189    1.6301   -0.2590 C   0  0  0  0  0  0  0  0  0  0  0  0
    2.6501    2.3661    0.2458 C   0  0  0  0  0  0  0  0  0  0  0  0
    2.6033    3.6665    0.5757 N   0  0  0  0  0  0  0  0  0  0  0  0
    1.3746    3.8850    1.0286 N   0  0  0  0  0  0  0  0  0  0  0  0
    0.6370    2.7771    0.9999 N   0  0  0  0  0  0  0  0  0  0  0  0
    1.4239    1.8132    0.4931 C   0  0  0  0  0  0  0  0  0  0  0  0
    0.5376   -5.9339    0.0252 H   0  0  0  0  0  0  0  0  0  0  0  0
    0.2984   -6.3173    1.7734 H   0  0  0  0  0  0  0  0  0  0  0  0
   -1.1116   -6.2681    0.6373 H   0  0  0  0  0  0  0  0  0  0  0  0
    0.6987   -2.1313    0.9869 H   0  0  0  0  0  0  0  0  0  0  0  0
   -1.0633    2.4073   -0.5354 H   0  0  0  0  0  0  0  0  0  0  0  0
   -5.4599   -0.6478    0.0985 H   0  0  0  0  0  0  0  0  0  0  0  0
   -6.8740    1.2231   -0.7624 H   0  0  0  0  0  0  0  0  0  0  0  0
   -5.8243    3.3906   -1.4027 H   0  0  0  0  0  0  0  0  0  0  0  0
   -3.3480    3.6982   -1.1923 H   0  0  0  0  0  0  0  0  0  0  0  0
   -3.6039   -2.1773    0.7509 H   0  0  0  0  0  0  0  0  0  0  0  0
    2.1092   -1.3780   -0.4527 H   0  0  0  0  0  0  0  0  0  0  0  0
    4.4078   -1.5958   -1.1746 H   0  0  0  0  0  0  0  0  0  0  0  0
    6.5985   -0.5714   -1.6567 H   0  0  0  0  0  0  0  0  0  0  0  0
    6.9669    1.8458   -1.2618 H   0  0  0  0  0  0  0  0  0  0  0  0
    5.1443    3.2588   -0.3663 H   0  0  0  0  0  0  0  0  0  0  0  0
    1.0312    4.8112    1.3658 H   0  0  0  0  0  0  0  0  0  0  0  0
  1 31  1  0  0  0  0
  1 32  1  0  0  0  0
  1 33  1  0  0  0  0
  2  1  1  0  0  0  0
  3  2  1  0  0  0  0
  4  3  2  0  0  0  0
  5  3  1  0  0  0  0
  6  5  2  0  0  0  0
  6 34  1  0  0  0  0
  7  6  1  0  0  0  0
  8  7  2  0  0  0  0
  9  8  1  0  0  0  0
  9 35  1  0  0  0  0
 10  9  1  0  0  0  0
 11 10  2  0  0  0  0
 12 11  1  0  0  0  0
 12 36  1  0  0  0  0
 13 12  2  0  0  0  0
 13 37  1  0  0  0  0
 14 13  1  0  0  0  0
 14 38  1  0  0  0  0
 15 14  2  0  0  0  0
 15 10  1  0  0  0  0
 15 39  1  0  0  0  0
 16 11  1  0  0  0  0
 16  8  1  0  0  0  0
 17 16  2  0  0  0  0
 17  5  1  0  0  0  0
 17 40  1  0  0  0  0
 18  7  1  0  0  0  0
 19 18  2  0  0  0  0
 19 41  1  0  0  0  0
 20 19  1  0  0  0  0
 21 20  2  0  0  0  0
 21 42  1  0  0  0  0
 22 21  1  0  0  0  0
 22 43  1  0  0  0  0
 23 22  2  0  0  0  0
 23 44  1  0  0  0  0
 24 23  1  0  0  0  0
 24 45  1  0  0  0  0
 25 24  2  0  0  0  0
 25 20  1  0  0  0  0
 26 25  1  0  0  0  0
 27 26  2  0  0  0  0
 28 27  1  0  0  0  0
 28 46  1  0  0  0  0
 29 28  1  0  0  0  0
 30 29  2  0  0  0  0
 30 18  1  0  0  0  0
 30 26  1  0  0  0  0
M  END
>  <MOL Chiral Flag>
0

>  <energy>
102.36846450523144

$$$$
> 144_AKC_biom11010056
>141.sdf
 OpenBabel10102213113D

 91 96  0  0  0  0  0  0  0  0999 V2000
   -4.8736   -4.8035    2.5180 C   0  0  0  0  0  0  0  0  0  0  0  0
   -4.6395   -4.9623    1.0211 C   0  0  0  0  0  0  0  0  0  0  0  0
   -4.3015   -6.1630    0.4625 C   0  0  0  0  0  0  0  0  0  0  0  0
   -4.1418   -7.3044    1.1822 O   0  0  0  0  0  0  0  0  0  0  0  0
   -4.0939   -6.2582   -0.9955 C   0  0  0  0  0  0  0  0  0  0  0  0
   -3.7825   -7.3281   -1.4957 O   0  0  0  0  0  0  0  0  0  0  0  0
   -4.2906   -5.0875   -1.8615 C   0  0  0  0  0  0  0  0  0  0  0  0
   -4.6315   -3.8790   -1.3551 C   0  0  0  0  0  0  0  0  0  0  0  0
   -4.7907   -3.7473    0.1241 C   0  0  0  0  0  0  0  0  0  0  0  0
   -5.0662   -2.5418    0.6432 C   0  0  0  0  0  0  0  0  0  0  0  0
   -5.1908   -1.3343   -0.1785 C   0  0  0  0  0  0  0  0  0  0  0  0
   -5.1235   -1.3310   -1.5328 C   0  0  0  0  0  0  0  0  0  0  0  0
   -4.8942   -2.6784   -2.3064 C   0  0  2  0  0  0  0  0  0  0  0  0
   -6.1316   -3.1243   -3.1436 C   0  0  0  0  0  0  0  0  0  0  0  0
   -3.6697   -2.4645   -3.2408 C   0  0  0  0  0  0  0  0  0  0  0  0
   -3.7409   -1.1476   -4.0682 C   0  0  0  0  0  0  0  0  0  0  0  0
   -3.8623    0.1539   -3.1860 C   0  0  1  0  0  0  0  0  0  0  0  0
   -2.6068    0.1681   -2.2633 C   0  0  0  0  0  0  0  0  0  0  0  0
   -3.9607    1.4622   -4.1119 C   0  0  2  0  0  0  0  0  0  0  0  0
   -2.8317    1.7173   -5.1796 C   0  0  0  0  0  0  0  0  0  0  0  0
   -1.5780    2.5901   -4.7919 C   0  0  1  0  0  0  0  0  0  0  0  0
   -0.8905    3.0481   -6.1040 C   0  0  0  0  0  0  0  0  0  0  0  0
   -2.0577    3.8703   -4.0437 C   0  0  0  0  0  0  0  0  0  0  0  0
   -3.0290    3.5577   -2.8820 C   0  0  0  0  0  0  0  0  0  0  0  0
   -4.3236    2.8250   -3.3721 C   0  0  1  0  0  0  0  0  0  0  0  0
   -5.0670    3.7808   -4.3646 C   0  0  0  0  0  0  0  0  0  0  0  0
   -5.3423    2.6295   -2.1918 C   0  0  0  0  0  0  0  0  0  0  0  0
   -5.2370    1.3175   -1.3901 C   0  0  0  0  0  0  0  0  0  0  0  0
   -5.1896    0.0375   -2.3118 C   0  0  2  0  0  0  0  0  0  0  0  0
   -6.5213    0.0541   -3.1403 C   0  0  0  0  0  0  0  0  0  0  0  0
   -0.4781    1.8672   -4.0044 C   0  0  0  0  0  0  0  0  0  0  0  0
    0.0008    2.4065   -3.0187 O   0  0  0  0  0  0  0  0  0  0  0  0
    0.0605    0.7026   -4.4772 N   0  0  0  0  0  0  0  0  0  0  0  0
    1.2270    0.0350   -3.9054 C   0  0  0  0  0  0  0  0  0  0  0  0
    1.0024   -0.7082   -2.5580 C   0  0  0  0  0  0  0  0  0  0  0  0
    0.8844    0.1549   -1.3602 N   0  3  0  0  0  0  0  0  0  0  0  0
    2.1292    0.9053   -1.0446 C   0  0  0  0  0  0  0  0  0  0  0  0
    2.6280    0.3690    0.2893 C   0  0  0  0  0  0  0  0  0  0  0  0
    1.3162    0.0947    0.9808 C   0  0  0  0  0  0  0  0  0  0  0  0
    0.5921   -0.6298   -0.1417 C   0  0  0  0  0  0  0  0  0  0  0  0
   -4.7696   -5.7075    3.1367 H   0  0  0  0  0  0  0  0  0  0  0  0
   -5.9085   -4.4368    2.6854 H   0  0  0  0  0  0  0  0  0  0  0  0
   -4.1523   -4.0665    2.9278 H   0  0  0  0  0  0  0  0  0  0  0  0
   -4.2470   -7.3997    2.1336 H   0  0  0  0  0  0  0  0  0  0  0  0
   -4.1650   -5.2293   -2.9291 H   0  0  0  0  0  0  0  0  0  0  0  0
   -5.1806   -2.4072    1.7113 H   0  0  0  0  0  0  0  0  0  0  0  0
   -5.3360   -0.4234    0.3803 H   0  0  0  0  0  0  0  0  0  0  0  0
   -7.0419   -3.1498   -2.5070 H   0  0  0  0  0  0  0  0  0  0  0  0
   -6.0008   -4.1409   -3.5649 H   0  0  0  0  0  0  0  0  0  0  0  0
   -6.3192   -2.5735   -4.0646 H   0  0  0  0  0  0  0  0  0  0  0  0
   -3.5545   -3.3170   -3.9429 H   0  0  0  0  0  0  0  0  0  0  0  0
   -2.7427   -2.4632   -2.6344 H   0  0  0  0  0  0  0  0  0  0  0  0
   -4.5818   -1.2098   -4.7856 H   0  0  0  0  0  0  0  0  0  0  0  0
   -2.8148   -1.1119   -4.6772 H   0  0  0  0  0  0  0  0  0  0  0  0
   -1.7084    0.0508   -2.8686 H   0  0  0  0  0  0  0  0  0  0  0  0
   -2.5940   -0.6631   -1.5351 H   0  0  0  0  0  0  0  0  0  0  0  0
   -2.4863    1.0437   -1.6265 H   0  0  0  0  0  0  0  0  0  0  0  0
   -4.8373    1.2030   -4.7394 H   0  0  0  0  0  0  0  0  0  0  0  0
   -3.3457    2.3079   -5.9666 H   0  0  0  0  0  0  0  0  0  0  0  0
   -2.5443    0.7938   -5.7154 H   0  0  0  0  0  0  0  0  0  0  0  0
   -1.5889    3.6354   -6.7390 H   0  0  0  0  0  0  0  0  0  0  0  0
   -0.5426    2.1839   -6.7083 H   0  0  0  0  0  0  0  0  0  0  0  0
   -0.0136    3.6964   -5.8845 H   0  0  0  0  0  0  0  0  0  0  0  0
   -2.5630    4.5538   -4.7507 H   0  0  0  0  0  0  0  0  0  0  0  0
   -1.1914    4.4617   -3.6737 H   0  0  0  0  0  0  0  0  0  0  0  0
   -3.3151    4.5245   -2.4127 H   0  0  0  0  0  0  0  0  0  0  0  0
   -2.4887    3.0113   -2.1024 H   0  0  0  0  0  0  0  0  0  0  0  0
   -4.5192    4.0193   -5.2915 H   0  0  0  0  0  0  0  0  0  0  0  0
   -5.3177    4.7428   -3.8668 H   0  0  0  0  0  0  0  0  0  0  0  0
   -6.0175    3.3203   -4.7108 H   0  0  0  0  0  0  0  0  0  0  0  0
   -6.3778    2.6501   -2.5784 H   0  0  0  0  0  0  0  0  0  0  0  0
   -5.3344    3.5103   -1.5132 H   0  0  0  0  0  0  0  0  0  0  0  0
   -6.1273    1.2857   -0.7236 H   0  0  0  0  0  0  0  0  0  0  0  0
   -4.3584    1.3761   -0.7228 H   0  0  0  0  0  0  0  0  0  0  0  0
   -7.3906   -0.1194   -2.4704 H   0  0  0  0  0  0  0  0  0  0  0  0
   -6.5627   -0.6358   -3.9692 H   0  0  0  0  0  0  0  0  0  0  0  0
   -6.7270    0.9805   -3.6946 H   0  0  0  0  0  0  0  0  0  0  0  0
   -0.3238    0.3035   -5.3462 H   0  0  0  0  0  0  0  0  0  0  0  0
    2.0906    0.7298   -3.8747 H   0  0  0  0  0  0  0  0  0  0  0  0
    1.5060   -0.7690   -4.6224 H   0  0  0  0  0  0  0  0  0  0  0  0
    1.8801   -1.3789   -2.4111 H   0  0  0  0  0  0  0  0  0  0  0  0
    0.1111   -1.3655   -2.6588 H   0  0  0  0  0  0  0  0  0  0  0  0
    0.0878    0.8151   -1.4506 H   0  0  0  0  0  0  0  0  0  0  0  0
    1.8634    1.9782   -0.8985 H   0  0  0  0  0  0  0  0  0  0  0  0
    2.9279    0.8588   -1.8151 H   0  0  0  0  0  0  0  0  0  0  0  0
    3.3196    1.0531    0.8254 H   0  0  0  0  0  0  0  0  0  0  0  0
    3.1490   -0.6025    0.1212 H   0  0  0  0  0  0  0  0  0  0  0  0
    0.8048    1.0619    1.1954 H   0  0  0  0  0  0  0  0  0  0  0  0
    1.4013   -0.4917    1.9195 H   0  0  0  0  0  0  0  0  0  0  0  0
   -0.4984   -0.7460    0.0482 H   0  0  0  0  0  0  0  0  0  0  0  0
    1.0361   -1.6507   -0.2173 H   0  0  0  0  0  0  0  0  0  0  0  0
  1 41  1  0  0  0  0
  1 42  1  0  0  0  0
  1 43  1  0  0  0  0
  2  1  1  0  0  0  0
  3  2  2  0  0  0  0
  4  3  1  0  0  0  0
  4 44  1  0  0  0  0
  5  3  1  0  0  0  0
  6  5  2  0  0  0  0
  7  5  1  0  0  0  0
  7 45  1  0  0  0  0
  8  7  2  0  0  0  0
  9  8  1  0  0  0  0
  9  2  1  0  0  0  0
 10  9  2  0  0  0  0
 10 46  1  0  0  0  0
 11 10  1  0  0  0  0
 11 47  1  0  0  0  0
 12 11  2  0  0  0  0
 13 12  1  0  0  0  0
 13  8  1  0  0  0  0
 13 14  1  6  0  0  0
 14 48  1  0  0  0  0
 14 49  1  0  0  0  0
 14 50  1  0  0  0  0
 15 13  1  0  0  0  0
 15 51  1  0  0  0  0
 15 52  1  0  0  0  0
 16 15  1  0  0  0  0
 16 53  1  0  0  0  0
 16 54  1  0  0  0  0
 17 16  1  0  0  0  0
 17 18  1  1  0  0  0
 18 55  1  0  0  0  0
 18 56  1  0  0  0  0
 18 57  1  0  0  0  0
 19 17  1  0  0  0  0
 19 58  1  6  0  0  0
 20 19  1  0  0  0  0
 20 59  1  0  0  0  0
 20 60  1  0  0  0  0
 21 20  1  0  0  0  0
 21 22  1  6  0  0  0
 22 61  1  0  0  0  0
 22 62  1  0  0  0  0
 22 63  1  0  0  0  0
 23 21  1  0  0  0  0
 23 64  1  0  0  0  0
 23 65  1  0  0  0  0
 24 23  1  0  0  0  0
 24 66  1  0  0  0  0
 24 67  1  0  0  0  0
 25 24  1  0  0  0  0
 25 19  1  0  0  0  0
 25 26  1  6  0  0  0
 26 68  1  0  0  0  0
 26 69  1  0  0  0  0
 26 70  1  0  0  0  0
 27 25  1  0  0  0  0
 27 71  1  0  0  0  0
 27 72  1  0  0  0  0
 28 27  1  0  0  0  0
 28 73  1  0  0  0  0
 28 74  1  0  0  0  0
 29 28  1  0  0  0  0
 29 12  1  0  0  0  0
 29 17  1  0  0  0  0
 29 30  1  6  0  0  0
 30 75  1  0  0  0  0
 30 76  1  0  0  0  0
 30 77  1  0  0  0  0
 31 21  1  0  0  0  0
 32 31  2  0  0  0  0
 33 31  1  0  0  0  0
 33 78  1  0  0  0  0
 34 33  1  0  0  0  0
 34 79  1  0  0  0  0
 34 80  1  0  0  0  0
 35 34  1  0  0  0  0
 35 81  1  0  0  0  0
 35 82  1  0  0  0  0
 36 35  1  0  0  0  0
 36 83  1  0  0  0  0
 37 36  1  0  0  0  0
 37 84  1  0  0  0  0
 37 85  1  0  0  0  0
 38 37  1  0  0  0  0
 38 86  1  0  0  0  0
 38 87  1  0  0  0  0
 39 38  1  0  0  0  0
 39 88  1  0  0  0  0
 39 89  1  0  0  0  0
 40 39  1  0  0  0  0
 40 36  1  0  0  0  0
 40 90  1  0  0  0  0
 40 91  1  0  0  0  0
M  CHG  1  36   1
M  END
>  <MOL Chiral Flag>
0

>  <energy>
528.79970171264949

$$$$
> 145_AKC_cbdv.202000839
>142.sdf
 OpenBabel10052220023D

 45 48  0  0  0  0  0  0  0  0999 V2000
   -5.7822    0.3508   -0.1659 C   0  0  0  0  0  0  0  0  0  0  0  0
   -4.7382    0.5409    0.7221 O   0  0  0  0  0  0  0  0  0  0  0  0
   -3.5333    0.7111    0.1671 C   0  0  0  0  0  0  0  0  0  0  0  0
   -3.2561    1.8938   -0.5362 C   0  0  0  0  0  0  0  0  0  0  0  0
   -4.0289    2.9899   -0.4315 O   0  0  0  0  0  0  0  0  0  0  0  0
   -3.8968    3.7907    0.6783 C   0  0  0  0  0  0  0  0  0  0  0  0
   -2.1645    1.9462   -1.3623 C   0  0  0  0  0  0  0  0  0  0  0  0
   -1.7700    3.4251   -2.2338 Cl  0  0  0  0  0  0  0  0  0  0  0  0
   -1.3279    0.8553   -1.4732 C   0  0  0  0  0  0  0  0  0  0  0  0
   -1.4135   -0.2330   -0.5726 C   0  0  0  0  0  0  0  0  0  0  0  0
   -2.5841   -0.3208    0.2128 C   0  0  0  0  0  0  0  0  0  0  0  0
   -0.2555   -1.2480   -0.3212 C   0  0  1  0  0  0  0  0  0  0  0  0
   -0.4512   -2.7463   -0.4108 C   0  0  0  0  0  0  0  0  0  0  0  0
   -1.5391   -3.3316   -1.1451 C   0  0  0  0  0  0  0  0  0  0  0  0
   -2.3917   -3.7504   -1.8035 N   0  0  0  0  0  0  0  0  0  0  0  0
    0.3951   -3.5242    0.3327 C   0  0  0  0  0  0  0  0  0  0  0  0
    0.2277   -4.9252    0.4701 N   0  0  0  0  0  0  0  0  0  0  0  0
    1.4711   -2.9542    0.9340 O   0  0  0  0  0  0  0  0  0  0  0  0
    1.9960   -1.7749    0.5055 C   0  0  0  0  0  0  0  0  0  0  0  0
    1.2443   -0.9109   -0.2367 C   0  0  0  0  0  0  0  0  0  0  0  0
    1.8799    0.3577   -0.7140 C   0  0  0  0  0  0  0  0  0  0  0  0
    1.2235    1.2287   -1.2173 O   0  0  0  0  0  0  0  0  0  0  0  0
    3.2585    0.7002   -0.3440 C   0  0  0  0  0  0  0  0  0  0  0  0
    3.9438   -0.1400    0.5347 C   0  0  0  0  0  0  0  0  0  0  0  0
    5.1372    0.2893    1.1135 C   0  0  0  0  0  0  0  0  0  0  0  0
    5.6686    1.5318    0.7909 C   0  0  0  0  0  0  0  0  0  0  0  0
    5.0488    2.3313   -0.1703 C   0  0  0  0  0  0  0  0  0  0  0  0
    3.8439    1.9208   -0.7508 C   0  0  0  0  0  0  0  0  0  0  0  0
    3.3669   -1.4376    0.9080 C   0  0  0  0  0  0  0  0  0  0  0  0
    3.9940   -2.2080    1.6178 O   0  0  0  0  0  0  0  0  0  0  0  0
   -5.8451    1.1954   -0.8933 H   0  0  0  0  0  0  0  0  0  0  0  0
   -5.5922   -0.5724   -0.7674 H   0  0  0  0  0  0  0  0  0  0  0  0
   -6.7354    0.2582    0.3748 H   0  0  0  0  0  0  0  0  0  0  0  0
   -2.8150    3.9872    0.8822 H   0  0  0  0  0  0  0  0  0  0  0  0
   -4.3896    4.7644    0.4895 H   0  0  0  0  0  0  0  0  0  0  0  0
   -4.3389    3.2727    1.5513 H   0  0  0  0  0  0  0  0  0  0  0  0
   -0.5915    0.9510   -2.2226 H   0  0  0  0  0  0  0  0  0  0  0  0
   -2.7580   -1.1942    0.8364 H   0  0  0  0  0  0  0  0  0  0  0  0
   -0.3545   -1.1371    0.7919 H   0  0  0  0  0  0  0  0  0  0  0  0
    0.8774   -5.4506    1.0786 H   0  0  0  0  0  0  0  0  0  0  0  0
   -0.5426   -5.4289    0.0143 H   0  0  0  0  0  0  0  0  0  0  0  0
    5.6281   -0.3219    1.8550 H   0  0  0  0  0  0  0  0  0  0  0  0
    6.5632    1.8691    1.2937 H   0  0  0  0  0  0  0  0  0  0  0  0
    5.4858    3.2858   -0.4272 H   0  0  0  0  0  0  0  0  0  0  0  0
    3.3549    2.5742   -1.4717 H   0  0  0  0  0  0  0  0  0  0  0  0
  1 31  1  0  0  0  0
  1 32  1  0  0  0  0
  1 33  1  0  0  0  0
  2  1  1  0  0  0  0
  3  2  1  0  0  0  0
  4  3  2  0  0  0  0
  5  4  1  0  0  0  0
  6  5  1  0  0  0  0
  6 34  1  0  0  0  0
  6 35  1  0  0  0  0
  6 36  1  0  0  0  0
  7  4  1  0  0  0  0
  8  7  1  0  0  0  0
  9  7  2  0  0  0  0
  9 37  1  0  0  0  0
 10  9  1  0  0  0  0
 11 10  2  0  0  0  0
 11  3  1  0  0  0  0
 11 38  1  0  0  0  0
 12 10  1  0  0  0  0
 12 39  1  1  0  0  0
 13 12  1  0  0  0  0
 14 13  1  0  0  0  0
 15 14  3  0  0  0  0
 16 13  2  0  0  0  0
 17 16  1  0  0  0  0
 17 40  1  0  0  0  0
 17 41  1  0  0  0  0
 18 16  1  0  0  0  0
 19 18  1  0  0  0  0
 20 19  2  0  0  0  0
 20 12  1  0  0  0  0
 21 20  1  0  0  0  0
 22 21  2  0  0  0  0
 23 21  1  0  0  0  0
 24 23  2  0  0  0  0
 25 24  1  0  0  0  0
 25 42  1  0  0  0  0
 26 25  2  0  0  0  0
 26 43  1  0  0  0  0
 27 26  1  0  0  0  0
 27 44  1  0  0  0  0
 28 27  2  0  0  0  0
 28 23  1  0  0  0  0
 28 45  1  0  0  0  0
 29 24  1  0  0  0  0
 29 19  1  0  0  0  0
 30 29  2  0  0  0  0
M  END
>  <MOL Chiral Flag>
0

>  <energy>
111.10239027283049

$$$$
> 146_AKC_cbdv.202000839
>142_2.sdf
 OpenBabel10102213123D

 45 48  0  0  0  0  0  0  0  0999 V2000
   -5.9350    0.3569    0.0481 C   0  0  0  0  0  0  0  0  0  0  0  0
   -4.7539    0.6307    0.7302 O   0  0  0  0  0  0  0  0  0  0  0  0
   -3.6504    0.8972   -0.0013 C   0  0  0  0  0  0  0  0  0  0  0  0
   -3.5706    2.1043   -0.7061 C   0  0  0  0  0  0  0  0  0  0  0  0
   -4.3865    3.1438   -0.4047 O   0  0  0  0  0  0  0  0  0  0  0  0
   -4.1131    3.8726    0.7502 C   0  0  0  0  0  0  0  0  0  0  0  0
   -2.5923    2.2665   -1.6772 C   0  0  0  0  0  0  0  0  0  0  0  0
   -2.5866    3.7378   -2.6516 Cl  0  0  0  0  0  0  0  0  0  0  0  0
   -1.6015    1.2822   -1.8517 C   0  0  0  0  0  0  0  0  0  0  0  0
   -1.5231    0.1419   -0.9881 C   0  0  0  0  0  0  0  0  0  0  0  0
   -2.6136   -0.0576   -0.1040 C   0  0  0  0  0  0  0  0  0  0  0  0
   -0.3274   -0.8885   -1.1038 C   0  0  2  0  0  0  0  0  0  0  0  0
   -0.6876   -2.3720   -0.7813 C   0  0  0  0  0  0  0  0  0  0  0  0
   -1.8069   -3.0121   -1.4344 C   0  0  0  0  0  0  0  0  0  0  0  0
   -2.6828   -3.5882   -1.9242 N   0  0  0  0  0  0  0  0  0  0  0  0
    0.0951   -3.1315    0.0446 C   0  0  0  0  0  0  0  0  0  0  0  0
   -0.1457   -4.5156    0.2833 N   0  0  0  0  0  0  0  0  0  0  0  0
    1.1720   -2.6059    0.6410 O   0  0  0  0  0  0  0  0  0  0  0  0
    1.7025   -1.4087    0.3649 C   0  0  0  0  0  0  0  0  0  0  0  0
    1.0554   -0.5156   -0.4464 C   0  0  0  0  0  0  0  0  0  0  0  0
    1.7842    0.7437   -0.7922 C   0  0  0  0  0  0  0  0  0  0  0  0
    1.2748    1.5499   -1.5493 O   0  0  0  0  0  0  0  0  0  0  0  0
    3.1649    0.9986   -0.2676 C   0  0  0  0  0  0  0  0  0  0  0  0
    3.7831    0.0699    0.5868 C   0  0  0  0  0  0  0  0  0  0  0  0
    5.0788    0.3211    1.0928 C   0  0  0  0  0  0  0  0  0  0  0  0
    5.7465    1.4965    0.7429 C   0  0  0  0  0  0  0  0  0  0  0  0
    5.1413    2.4081   -0.1234 C   0  0  0  0  0  0  0  0  0  0  0  0
    3.8623    2.1597   -0.6289 C   0  0  0  0  0  0  0  0  0  0  0  0
    3.0595   -1.1609    0.9215 C   0  0  0  0  0  0  0  0  0  0  0  0
    3.5997   -2.0241    1.6011 O   0  0  0  0  0  0  0  0  0  0  0  0
   -6.2048    1.1819   -0.6516 H   0  0  0  0  0  0  0  0  0  0  0  0
   -5.8031   -0.5634   -0.5674 H   0  0  0  0  0  0  0  0  0  0  0  0
   -6.7784    0.1970    0.7476 H   0  0  0  0  0  0  0  0  0  0  0  0
   -3.0207    4.1021    0.8044 H   0  0  0  0  0  0  0  0  0  0  0  0
   -4.6451    4.8460    0.7529 H   0  0  0  0  0  0  0  0  0  0  0  0
   -4.3774    3.2978    1.6647 H   0  0  0  0  0  0  0  0  0  0  0  0
   -0.8824    1.4429   -2.6402 H   0  0  0  0  0  0  0  0  0  0  0  0
   -2.6734   -0.9499    0.4979 H   0  0  0  0  0  0  0  0  0  0  0  0
   -0.0893   -0.8595   -2.1854 H   0  0  0  0  0  0  0  0  0  0  0  0
    0.5271   -5.0402    0.8675 H   0  0  0  0  0  0  0  0  0  0  0  0
   -0.8993   -5.0428   -0.1748 H   0  0  0  0  0  0  0  0  0  0  0  0
    5.5709   -0.3842    1.7569 H   0  0  0  0  0  0  0  0  0  0  0  0
    6.7350    1.7015    1.1382 H   0  0  0  0  0  0  0  0  0  0  0  0
    5.6604    3.3135   -0.4039 H   0  0  0  0  0  0  0  0  0  0  0  0
    3.4122    2.8739   -1.3012 H   0  0  0  0  0  0  0  0  0  0  0  0
  1 31  1  0  0  0  0
  1 32  1  0  0  0  0
  1 33  1  0  0  0  0
  2  1  1  0  0  0  0
  3  2  1  0  0  0  0
  4  3  2  0  0  0  0
  5  4  1  0  0  0  0
  6  5  1  0  0  0  0
  6 34  1  0  0  0  0
  6 35  1  0  0  0  0
  6 36  1  0  0  0  0
  7  4  1  0  0  0  0
  8  7  1  0  0  0  0
  9  7  2  0  0  0  0
  9 37  1  0  0  0  0
 10  9  1  0  0  0  0
 11 10  2  0  0  0  0
 11  3  1  0  0  0  0
 11 38  1  0  0  0  0
 12 10  1  0  0  0  0
 12 39  1  6  0  0  0
 13 12  1  0  0  0  0
 14 13  1  0  0  0  0
 15 14  3  0  0  0  0
 16 13  2  0  0  0  0
 17 16  1  0  0  0  0
 17 40  1  0  0  0  0
 17 41  1  0  0  0  0
 18 16  1  0  0  0  0
 19 18  1  0  0  0  0
 20 19  2  0  0  0  0
 20 12  1  0  0  0  0
 21 20  1  0  0  0  0
 22 21  2  0  0  0  0
 23 21  1  0  0  0  0
 24 23  2  0  0  0  0
 25 24  1  0  0  0  0
 25 42  1  0  0  0  0
 26 25  2  0  0  0  0
 26 43  1  0  0  0  0
 27 26  1  0  0  0  0
 27 44  1  0  0  0  0
 28 27  2  0  0  0  0
 28 23  1  0  0  0  0
 28 45  1  0  0  0  0
 29 24  1  0  0  0  0
 29 19  1  0  0  0  0
 30 29  2  0  0  0  0
M  END
>  <MOL Chiral Flag>
0

>  <energy>
111.10239027283049

$$$$
> 147_AKC_j.biopha.2020.111049
>143.sdf
 OpenBabel10052220033D

 34 36  0  0  0  0  0  0  0  0999 V2000
    4.4472   -3.0839   -0.2626 O   0  0  0  0  0  0  0  0  0  0  0  0
    4.5406   -1.7029   -0.7295 B   0  0  0  0  0  0  0  0  0  0  0  0
    5.7638   -1.1106   -1.2993 O   0  0  0  0  0  0  0  0  0  0  0  0
    5.3723    0.2298   -1.6329 C   0  0  0  0  0  0  0  0  0  0  0  0
    3.9248    0.4068   -1.2545 C   0  0  0  0  0  0  0  0  0  0  0  0
    3.1354    1.5434   -1.4148 C   0  0  0  0  0  0  0  0  0  0  0  0
    1.7873    1.4931   -1.0172 C   0  0  0  0  0  0  0  0  0  0  0  0
    1.2336    0.3108   -0.4536 C   0  0  0  0  0  0  0  0  0  0  0  0
   -0.1716    0.3087   -0.1176 N   0  0  0  0  0  0  0  0  0  0  0  0
   -0.8424   -0.6781    0.5635 C   0  0  0  0  0  0  0  0  0  0  0  0
   -0.1979   -1.5929    1.0488 O   0  0  0  0  0  0  0  0  0  0  0  0
   -2.3646   -0.7353    0.7639 C   0  0  0  0  0  0  0  0  0  0  0  0
   -3.3848    0.1818    0.2783 C   0  0  0  0  0  0  0  0  0  0  0  0
   -4.7456   -0.1144    0.5499 C   0  0  0  0  0  0  0  0  0  0  0  0
   -5.1210   -1.2443    1.2616 C   0  0  0  0  0  0  0  0  0  0  0  0
   -4.1619   -2.1154    1.7340 C   0  0  0  0  0  0  0  0  0  0  0  0
   -2.8171   -1.8713    1.4944 C   0  0  0  0  0  0  0  0  0  0  0  0
   -3.1217    1.4523   -0.5186 C   0  0  0  0  0  0  0  0  0  0  0  0
   -2.3803    2.3413    0.2406 F   0  0  0  0  0  0  0  0  0  0  0  0
   -2.4944    1.1453   -1.7135 F   0  0  0  0  0  0  0  0  0  0  0  0
   -4.2909    2.1157   -0.8545 F   0  0  0  0  0  0  0  0  0  0  0  0
    2.0879   -0.8214   -0.3092 C   0  0  0  0  0  0  0  0  0  0  0  0
    3.4116   -0.7167   -0.7220 C   0  0  0  0  0  0  0  0  0  0  0  0
    4.0004   -3.5698   -1.0014 H   0  0  0  0  0  0  0  0  0  0  0  0
    5.4876    0.3891   -2.7266 H   0  0  0  0  0  0  0  0  0  0  0  0
    5.9974    0.9547   -1.0703 H   0  0  0  0  0  0  0  0  0  0  0  0
    3.5490    2.4446   -1.8488 H   0  0  0  0  0  0  0  0  0  0  0  0
    1.1688    2.3715   -1.1539 H   0  0  0  0  0  0  0  0  0  0  0  0
   -0.6791    1.1180   -0.4431 H   0  0  0  0  0  0  0  0  0  0  0  0
   -5.5400    0.5323    0.2036 H   0  0  0  0  0  0  0  0  0  0  0  0
   -6.1686   -1.4451    1.4463 H   0  0  0  0  0  0  0  0  0  0  0  0
   -4.4595   -2.9969    2.2879 H   0  0  0  0  0  0  0  0  0  0  0  0
   -2.1176   -2.5994    1.8846 H   0  0  0  0  0  0  0  0  0  0  0  0
    1.7721   -1.7729    0.0729 H   0  0  0  0  0  0  0  0  0  0  0  0
  1 24  1  0  0  0  0
  2  1  1  0  0  0  0
  3  2  1  0  0  0  0
  4  3  1  0  0  0  0
  4 25  1  0  0  0  0
  4 26  1  0  0  0  0
  5  4  1  0  0  0  0
  6  5  2  0  0  0  0
  6 27  1  0  0  0  0
  7  6  1  0  0  0  0
  7 28  1  0  0  0  0
  8  7  2  0  0  0  0
  9  8  1  0  0  0  0
  9 29  1  0  0  0  0
 10  9  1  0  0  0  0
 11 10  2  0  0  0  0
 12 10  1  0  0  0  0
 13 12  2  0  0  0  0
 14 13  1  0  0  0  0
 14 30  1  0  0  0  0
 15 14  2  0  0  0  0
 15 31  1  0  0  0  0
 16 15  1  0  0  0  0
 16 32  1  0  0  0  0
 17 16  2  0  0  0  0
 17 12  1  0  0  0  0
 17 33  1  0  0  0  0
 18 13  1  0  0  0  0
 19 18  1  0  0  0  0
 20 18  1  0  0  0  0
 21 18  1  0  0  0  0
 22  8  1  0  0  0  0
 22 34  1  0  0  0  0
 23 22  2  0  0  0  0
 23  2  1  0  0  0  0
 23  5  1  0  0  0  0
M  END
>  <MOL Chiral Flag>
0

>  <energy>
18.097959610491671

$$$$
> 148_AKC_j.biopha.2020.111049
>144.sdf
 OpenBabel10052220033D

 50 54  0  0  0  0  0  0  0  0999 V2000
    2.2228   -5.3292   -0.5423 F   0  0  0  0  0  0  0  0  0  0  0  0
    0.9658   -4.8184   -0.5616 C   0  0  0  0  0  0  0  0  0  0  0  0
    0.7576   -3.4504   -0.7908 C   0  0  0  0  0  0  0  0  0  0  0  0
   -0.5215   -2.9656   -0.8156 C   0  0  0  0  0  0  0  0  0  0  0  0
   -1.6303   -3.7638   -0.5662 C   0  0  0  0  0  0  0  0  0  0  0  0
   -2.8471   -3.0381   -0.5018 N   0  0  0  0  0  0  0  0  0  0  0  0
   -4.0742   -3.3713   -0.0230 C   0  0  0  0  0  0  0  0  0  0  0  0
   -4.3442   -4.5202    0.2870 O   0  0  0  0  0  0  0  0  0  0  0  0
   -4.9830   -2.3541    0.1682 N   0  0  0  0  0  0  0  0  0  0  0  0
   -4.6280   -0.9504    0.0160 C   0  0  0  0  0  0  0  0  0  0  0  0
   -5.9234   -0.2199    0.2450 C   0  0  0  0  0  0  0  0  0  0  0  0
   -6.6020   -1.1221    1.2576 C   0  0  0  0  0  0  0  0  0  0  0  0
   -6.3057   -2.5278    0.7107 C   0  0  0  0  0  0  0  0  0  0  0  0
   -1.4458   -5.1404   -0.3239 C   0  0  0  0  0  0  0  0  0  0  0  0
   -0.1352   -5.6647   -0.3436 C   0  0  0  0  0  0  0  0  0  0  0  0
    1.8551   -2.4851   -0.9259 C   0  0  0  0  0  0  0  0  0  0  0  0
    3.1218   -2.7753   -0.5571 N   0  0  0  0  0  0  0  0  0  0  0  0
    3.7790   -1.6356   -0.7754 C   0  0  0  0  0  0  0  0  0  0  0  0
    2.9514   -0.6904   -1.2756 C   0  0  0  0  0  0  0  0  0  0  0  0
    1.7206   -1.1948   -1.3614 N   0  0  0  0  0  0  0  0  0  0  0  0
    3.4154    0.5642   -1.6332 C   0  0  0  0  0  0  0  0  0  0  0  0
    4.7999    0.8154   -1.4478 C   0  0  0  0  0  0  0  0  0  0  0  0
    5.6128   -0.2078   -0.8691 C   0  0  0  0  0  0  0  0  0  0  0  0
    5.0866   -1.4215   -0.5519 N   0  0  0  0  0  0  0  0  0  0  0  0
    5.4209    2.0867   -1.9001 C   0  0  0  0  0  0  0  0  0  0  0  0
    4.8659    2.8047   -2.9784 C   0  0  0  0  0  0  0  0  0  0  0  0
    5.4885    3.9604   -3.4502 C   0  0  0  0  0  0  0  0  0  0  0  0
    6.6578    4.4236   -2.8452 C   0  0  0  0  0  0  0  0  0  0  0  0
    7.2117    3.7281   -1.7700 C   0  0  0  0  0  0  0  0  0  0  0  0
    6.6054    2.5632   -1.3030 C   0  0  0  0  0  0  0  0  0  0  0  0
   -0.6757   -1.9089   -0.9618 H   0  0  0  0  0  0  0  0  0  0  0  0
   -2.7329   -2.0660   -0.7779 H   0  0  0  0  0  0  0  0  0  0  0  0
   -4.2506   -0.6695   -0.9924 H   0  0  0  0  0  0  0  0  0  0  0  0
   -3.8722   -0.7038    0.8008 H   0  0  0  0  0  0  0  0  0  0  0  0
   -6.5040   -0.2639   -0.7023 H   0  0  0  0  0  0  0  0  0  0  0  0
   -5.7738    0.8429    0.5356 H   0  0  0  0  0  0  0  0  0  0  0  0
   -7.6723   -0.8960    1.4297 H   0  0  0  0  0  0  0  0  0  0  0  0
   -6.0456   -0.9991    2.2167 H   0  0  0  0  0  0  0  0  0  0  0  0
   -6.9857   -2.7998   -0.1252 H   0  0  0  0  0  0  0  0  0  0  0  0
   -6.3594   -3.2658    1.5382 H   0  0  0  0  0  0  0  0  0  0  0  0
   -2.2734   -5.8022   -0.1144 H   0  0  0  0  0  0  0  0  0  0  0  0
    0.0374   -6.7180   -0.1632 H   0  0  0  0  0  0  0  0  0  0  0  0
    0.8756   -0.6819   -1.7049 H   0  0  0  0  0  0  0  0  0  0  0  0
    2.7367    1.3029   -2.0455 H   0  0  0  0  0  0  0  0  0  0  0  0
    6.6703   -0.0681   -0.7284 H   0  0  0  0  0  0  0  0  0  0  0  0
    3.9766    2.4544   -3.4850 H   0  0  0  0  0  0  0  0  0  0  0  0
    5.0675    4.4904   -4.2939 H   0  0  0  0  0  0  0  0  0  0  0  0
    7.1379    5.3192   -3.2126 H   0  0  0  0  0  0  0  0  0  0  0  0
    8.1174    4.0857   -1.2994 H   0  0  0  0  0  0  0  0  0  0  0  0
    7.0589    2.0469   -0.4685 H   0  0  0  0  0  0  0  0  0  0  0  0
  2  1  1  0  0  0  0
  3  2  2  0  0  0  0
  4  3  1  0  0  0  0
  4 31  1  0  0  0  0
  5  4  2  0  0  0  0
  6  5  1  0  0  0  0
  6 32  1  0  0  0  0
  7  6  1  0  0  0  0
  8  7  2  0  0  0  0
  9  7  1  0  0  0  0
 10  9  1  0  0  0  0
 10 33  1  0  0  0  0
 10 34  1  0  0  0  0
 11 10  1  0  0  0  0
 11 35  1  0  0  0  0
 11 36  1  0  0  0  0
 12 11  1  0  0  0  0
 12 37  1  0  0  0  0
 12 38  1  0  0  0  0
 13 12  1  0  0  0  0
 13  9  1  0  0  0  0
 13 39  1  0  0  0  0
 13 40  1  0  0  0  0
 14  5  1  0  0  0  0
 14 41  1  0  0  0  0
 15 14  2  0  0  0  0
 15  2  1  0  0  0  0
 15 42  1  0  0  0  0
 16  3  1  0  0  0  0
 17 16  2  0  0  0  0
 18 17  1  0  0  0  0
 19 18  2  0  0  0  0
 20 19  1  0  0  0  0
 20 16  1  0  0  0  0
 20 43  1  0  0  0  0
 21 19  1  0  0  0  0
 21 44  1  0  0  0  0
 22 21  2  0  0  0  0
 23 22  1  0  0  0  0
 23 45  1  0  0  0  0
 24 23  2  0  0  0  0
 24 18  1  0  0  0  0
 25 22  1  0  0  0  0
 26 25  2  0  0  0  0
 26 46  1  0  0  0  0
 27 26  1  0  0  0  0
 27 47  1  0  0  0  0
 28 27  2  0  0  0  0
 28 48  1  0  0  0  0
 29 28  1  0  0  0  0
 29 49  1  0  0  0  0
 30 29  2  0  0  0  0
 30 25  1  0  0  0  0
 30 50  1  0  0  0  0
M  END
>  <MOL Chiral Flag>
0

>  <energy>
21.519682240749432

$$$$
> 149_AKC_j.biopha.2020.111049
>145.sdf
 OpenBabel10052220043D

 47 49  0  0  0  0  0  0  0  0999 V2000
   -3.1001   -0.5980    0.1519 C   0  0  0  0  0  0  0  0  0  0  0  0
   -3.5758    0.4572   -0.8612 C   0  0  0  0  0  0  0  0  0  0  0  0
   -2.7605    0.4957   -2.1624 C   0  0  0  0  0  0  0  0  0  0  0  0
   -3.7338    1.7970   -0.2318 N   0  0  0  0  0  0  0  0  0  0  0  0
   -4.9001    2.5063   -0.1655 C   0  0  0  0  0  0  0  0  0  0  0  0
   -6.2314    2.1322   -0.7636 C   0  0  0  0  0  0  0  0  0  0  0  0
   -4.7602    3.6542    0.5259 N   0  0  0  0  0  0  0  0  0  0  0  0
   -3.4782    3.6877    0.9193 C   0  0  0  0  0  0  0  0  0  0  0  0
   -2.8272    2.5618    0.4538 C   0  0  0  0  0  0  0  0  0  0  0  0
   -1.3849    2.2765    0.7190 C   0  0  0  0  0  0  0  0  0  0  0  0
   -0.7068    1.4113   -0.0664 N   0  0  0  0  0  0  0  0  0  0  0  0
    0.5921    1.0888    0.1493 C   0  0  0  0  0  0  0  0  0  0  0  0
    1.2300    0.1946   -0.7568 N   0  0  0  0  0  0  0  0  0  0  0  0
    2.4005   -0.5882   -0.5046 C   0  0  0  0  0  0  0  0  0  0  0  0
    2.9588   -0.7438    0.7829 C   0  0  0  0  0  0  0  0  0  0  0  0
    4.0515   -1.5943    0.9777 C   0  0  0  0  0  0  0  0  0  0  0  0
    4.6031   -2.2964   -0.0979 C   0  0  0  0  0  0  0  0  0  0  0  0
    4.0654   -2.1376   -1.3783 C   0  0  0  0  0  0  0  0  0  0  0  0
    2.9721   -1.2942   -1.5779 C   0  0  0  0  0  0  0  0  0  0  0  0
    5.9573   -3.4360    0.1919 S   0  0  0  0  0  0  0  0  0  0  0  0
    5.7981   -4.9181    1.2284 C   0  0  0  0  0  0  0  0  0  0  0  0
    6.5160   -3.8753   -1.1708 O   0  0  0  0  0  0  0  0  0  0  0  0
    7.1576   -2.6198    0.6937 O   0  0  0  0  0  0  0  0  0  0  0  0
    1.2602    1.6645    1.1840 N   0  0  0  0  0  0  0  0  0  0  0  0
    0.6398    2.5607    1.9961 C   0  0  0  0  0  0  0  0  0  0  0  0
   -0.6986    2.8945    1.7772 C   0  0  0  0  0  0  0  0  0  0  0  0
   -2.0944   -0.4120    0.5598 H   0  0  0  0  0  0  0  0  0  0  0  0
   -3.0845   -1.6019   -0.3230 H   0  0  0  0  0  0  0  0  0  0  0  0
   -3.8071   -0.6322    1.0082 H   0  0  0  0  0  0  0  0  0  0  0  0
   -4.5554    0.0753   -1.1862 H   0  0  0  0  0  0  0  0  0  0  0  0
   -3.2509    1.1875   -2.8789 H   0  0  0  0  0  0  0  0  0  0  0  0
   -1.7178    0.8187   -2.0570 H   0  0  0  0  0  0  0  0  0  0  0  0
   -2.7451   -0.5171   -2.6200 H   0  0  0  0  0  0  0  0  0  0  0  0
   -6.5453    2.9373   -1.4600 H   0  0  0  0  0  0  0  0  0  0  0  0
   -6.9828    2.0546    0.0490 H   0  0  0  0  0  0  0  0  0  0  0  0
   -6.2589    1.1920   -1.3361 H   0  0  0  0  0  0  0  0  0  0  0  0
   -3.0542    4.4965    1.4977 H   0  0  0  0  0  0  0  0  0  0  0  0
    0.7535    0.0437   -1.6595 H   0  0  0  0  0  0  0  0  0  0  0  0
    2.5454   -0.2563    1.6482 H   0  0  0  0  0  0  0  0  0  0  0  0
    4.4553   -1.7256    1.9737 H   0  0  0  0  0  0  0  0  0  0  0  0
    4.4772   -2.6799   -2.2191 H   0  0  0  0  0  0  0  0  0  0  0  0
    2.5561   -1.1990   -2.5735 H   0  0  0  0  0  0  0  0  0  0  0  0
    4.7389   -5.2500    1.2210 H   0  0  0  0  0  0  0  0  0  0  0  0
    6.4243   -5.7369    0.8190 H   0  0  0  0  0  0  0  0  0  0  0  0
    6.1038   -4.6857    2.2691 H   0  0  0  0  0  0  0  0  0  0  0  0
    1.1837    3.0119    2.8154 H   0  0  0  0  0  0  0  0  0  0  0  0
   -1.1864    3.5973    2.4383 H   0  0  0  0  0  0  0  0  0  0  0  0
  1 27  1  0  0  0  0
  1 28  1  0  0  0  0
  1 29  1  0  0  0  0
  2  1  1  0  0  0  0
  2 30  1  0  0  0  0
  3  2  1  0  0  0  0
  3 31  1  0  0  0  0
  3 32  1  0  0  0  0
  3 33  1  0  0  0  0
  4  2  1  0  0  0  0
  5  4  1  0  0  0  0
  6  5  1  0  0  0  0
  6 34  1  0  0  0  0
  6 35  1  0  0  0  0
  6 36  1  0  0  0  0
  7  5  2  0  0  0  0
  8  7  1  0  0  0  0
  8 37  1  0  0  0  0
  9  8  2  0  0  0  0
  9  4  1  0  0  0  0
 10  9  1  0  0  0  0
 11 10  2  0  0  0  0
 12 11  1  0  0  0  0
 13 12  1  0  0  0  0
 13 38  1  0  0  0  0
 14 13  1  0  0  0  0
 15 14  2  0  0  0  0
 15 39  1  0  0  0  0
 16 15  1  0  0  0  0
 16 40  1  0  0  0  0
 17 16  2  0  0  0  0
 18 17  1  0  0  0  0
 18 41  1  0  0  0  0
 19 18  2  0  0  0  0
 19 14  1  0  0  0  0
 19 42  1  0  0  0  0
 20 17  1  0  0  0  0
 21 20  1  0  0  0  0
 21 43  1  0  0  0  0
 21 44  1  0  0  0  0
 21 45  1  0  0  0  0
 22 20  2  0  0  0  0
 23 20  2  0  0  0  0
 24 12  2  0  0  0  0
 25 24  1  0  0  0  0
 25 46  1  0  0  0  0
 26 25  2  0  0  0  0
 26 10  1  0  0  0  0
 26 47  1  0  0  0  0
M  END
>  <MOL Chiral Flag>
0

>  <energy>
-12.549618383981752

$$$$
> 150_AKC_j.biopha.2020.111049
>146.sdf
 OpenBabel10052220043D

 39 41  0  0  0  0  0  0  0  0999 V2000
    3.6484   -1.3532    0.7809 C   0  0  0  0  0  0  0  0  0  0  0  0
    2.2224   -0.7833    0.6314 C   0  0  2  0  0  0  0  0  0  0  0  0
    1.3047   -1.6497   -0.1297 N   0  0  0  0  0  0  0  0  0  0  0  0
    1.7995   -2.8395   -0.8198 C   0  0  0  0  0  0  0  0  0  0  0  0
   -0.1035   -1.3612   -0.1298 C   0  0  0  0  0  0  0  0  0  0  0  0
   -0.9917   -2.2716   -0.6171 N   0  0  0  0  0  0  0  0  0  0  0  0
   -2.3318   -2.0624   -0.5656 C   0  0  0  0  0  0  0  0  0  0  0  0
   -2.8318   -0.8739   -0.0094 C   0  0  0  0  0  0  0  0  0  0  0  0
   -4.2093   -0.5633    0.1001 C   0  0  0  0  0  0  0  0  0  0  0  0
   -5.2304   -1.4556   -0.3228 N   0  0  0  0  0  0  0  0  0  0  0  0
   -4.5737    0.6313    0.6391 N   0  0  0  0  0  0  0  0  0  0  0  0
   -3.6528    1.5286    1.0783 C   0  0  0  0  0  0  0  0  0  0  0  0
   -4.0745    2.7647    1.6150 N   0  0  0  0  0  0  0  0  0  0  0  0
   -2.3281    1.2391    0.9997 N   0  0  0  0  0  0  0  0  0  0  0  0
   -1.8999    0.0652    0.4710 C   0  0  0  0  0  0  0  0  0  0  0  0
   -0.5698   -0.2026    0.4131 N   0  0  0  0  0  0  0  0  0  0  0  0
    2.3079    0.6046    0.0224 C   0  0  0  0  0  0  0  0  0  0  0  0
    2.8053    0.7872   -1.2812 C   0  0  0  0  0  0  0  0  0  0  0  0
    2.9143    2.0735   -1.8211 C   0  0  0  0  0  0  0  0  0  0  0  0
    3.5516    2.2933   -3.4405 Cl  0  0  0  0  0  0  0  0  0  0  0  0
    2.5237    3.1848   -1.0680 C   0  0  0  0  0  0  0  0  0  0  0  0
    2.0217    3.0127    0.2253 C   0  0  0  0  0  0  0  0  0  0  0  0
    1.5344    4.4085    1.1693 Cl  0  0  0  0  0  0  0  0  0  0  0  0
    1.9148    1.7290    0.7704 C   0  0  0  0  0  0  0  0  0  0  0  0
    3.6203   -2.3333    1.3015 H   0  0  0  0  0  0  0  0  0  0  0  0
    4.1534   -1.4767   -0.1996 H   0  0  0  0  0  0  0  0  0  0  0  0
    4.2633   -0.6673    1.4024 H   0  0  0  0  0  0  0  0  0  0  0  0
    1.8307   -0.7171    1.6717 H   0  0  0  0  0  0  0  0  0  0  0  0
    2.2586   -3.5447   -0.0980 H   0  0  0  0  0  0  0  0  0  0  0  0
    1.0015   -3.3937   -1.3535 H   0  0  0  0  0  0  0  0  0  0  0  0
    2.5471   -2.5452   -1.5857 H   0  0  0  0  0  0  0  0  0  0  0  0
   -2.9808   -2.8273   -0.9584 H   0  0  0  0  0  0  0  0  0  0  0  0
   -6.2182   -1.1856   -0.2084 H   0  0  0  0  0  0  0  0  0  0  0  0
   -5.0289   -2.3821   -0.7164 H   0  0  0  0  0  0  0  0  0  0  0  0
   -3.3813    3.4540    1.9399 H   0  0  0  0  0  0  0  0  0  0  0  0
   -5.0782    2.9901    1.6731 H   0  0  0  0  0  0  0  0  0  0  0  0
    3.1162   -0.0654   -1.8709 H   0  0  0  0  0  0  0  0  0  0  0  0
    2.6126    4.1799   -1.4857 H   0  0  0  0  0  0  0  0  0  0  0  0
    1.5326    1.6085    1.7765 H   0  0  0  0  0  0  0  0  0  0  0  0
  1 25  1  0  0  0  0
  1 26  1  0  0  0  0
  1 27  1  0  0  0  0
  2  1  1  0  0  0  0
  2 28  1  1  0  0  0
  3  2  1  0  0  0  0
  4  3  1  0  0  0  0
  4 29  1  0  0  0  0
  4 30  1  0  0  0  0
  4 31  1  0  0  0  0
  5  3  1  0  0  0  0
  6  5  2  0  0  0  0
  7  6  1  0  0  0  0
  7 32  1  0  0  0  0
  8  7  2  0  0  0  0
  9  8  1  0  0  0  0
 10  9  1  0  0  0  0
 10 33  1  0  0  0  0
 10 34  1  0  0  0  0
 11  9  2  0  0  0  0
 12 11  1  0  0  0  0
 13 12  1  0  0  0  0
 13 35  1  0  0  0  0
 13 36  1  0  0  0  0
 14 12  2  0  0  0  0
 15 14  1  0  0  0  0
 15  8  1  0  0  0  0
 16 15  2  0  0  0  0
 16  5  1  0  0  0  0
 17  2  1  0  0  0  0
 18 17  2  0  0  0  0
 18 37  1  0  0  0  0
 19 18  1  0  0  0  0
 20 19  1  0  0  0  0
 21 19  2  0  0  0  0
 21 38  1  0  0  0  0
 22 21  1  0  0  0  0
 23 22  1  0  0  0  0
 24 22  2  0  0  0  0
 24 17  1  0  0  0  0
 24 39  1  0  0  0  0
M  END
>  <MOL Chiral Flag>
0

>  <energy>
-213.7313027610945

$$$$
> 151_AKC_j.biopha.2020.111049
>147.sdf
 OpenBabel10052220053D

 48 51  0  0  0  0  0  0  0  0999 V2000
   -3.7090   -4.6438   -2.3989 C   0  0  0  0  0  0  0  0  0  0  0  0
   -2.7360   -3.7824   -1.7065 N   0  3  2  0  0  0  0  0  0  0  0  0
   -3.4273   -2.6234   -1.1002 C   0  0  0  0  0  0  0  0  0  0  0  0
   -2.4342   -1.7283   -0.3439 C   0  0  0  0  0  0  0  0  0  0  0  0
   -1.3385   -1.2280   -1.3021 C   0  0  2  0  0  0  0  0  0  0  0  0
   -0.6518   -2.4489   -1.9474 C   0  0  0  0  0  0  0  0  0  0  0  0
   -1.6912   -3.3326   -2.6541 C   0  0  0  0  0  0  0  0  0  0  0  0
   -0.3685   -0.3199   -0.5715 C   0  0  0  0  0  0  0  0  0  0  0  0
    1.0021   -0.4713   -0.4688 C   0  0  0  0  0  0  0  0  0  0  0  0
    1.4712    0.5885    0.2951 C   0  0  0  0  0  0  0  0  0  0  0  0
    0.3449    1.3694    0.6112 C   0  0  0  0  0  0  0  0  0  0  0  0
   -0.7565    0.7908    0.0824 N   0  0  0  0  0  0  0  0  0  0  0  0
    0.2657    2.6714    1.3404 C   0  0  0  0  0  0  0  0  0  0  0  0
   -0.9166    3.0219    2.0226 C   0  0  0  0  0  0  0  0  0  0  0  0
   -1.0126    4.2419    2.6985 C   0  0  0  0  0  0  0  0  0  0  0  0
    0.0602    5.1344    2.6905 C   0  0  0  0  0  0  0  0  0  0  0  0
   -0.0368    6.3177    3.3451 F   0  0  0  0  0  0  0  0  0  0  0  0
    1.2287    4.8123    1.9991 C   0  0  0  0  0  0  0  0  0  0  0  0
    1.3323    3.5927    1.3237 C   0  0  0  0  0  0  0  0  0  0  0  0
    2.9025    0.7321    0.6980 C   0  0  0  0  0  0  0  0  0  0  0  0
    3.2677    1.3384    1.9134 C   0  0  0  0  0  0  0  0  0  0  0  0
    4.6157    1.4380    2.2648 C   0  0  0  0  0  0  0  0  0  0  0  0
    5.5758    0.9439    1.4407 N   0  0  0  0  0  0  0  0  0  0  0  0
    5.2579    0.3351    0.2685 C   0  0  0  0  0  0  0  0  0  0  0  0
    3.9217    0.2095   -0.1190 C   0  0  0  0  0  0  0  0  0  0  0  0
   -4.4849   -5.0042   -1.6880 H   0  0  0  0  0  0  0  0  0  0  0  0
   -3.2030   -5.5395   -2.8215 H   0  0  0  0  0  0  0  0  0  0  0  0
   -4.2133   -4.0963   -3.2265 H   0  0  0  0  0  0  0  0  0  0  0  0
   -2.2902   -4.3503   -0.9462 H   0  0  0  0  0  0  0  0  0  0  0  0
   -4.2022   -2.9710   -0.3807 H   0  0  0  0  0  0  0  0  0  0  0  0
   -3.9366   -2.0200   -1.8872 H   0  0  0  0  0  0  0  0  0  0  0  0
   -1.9750   -2.3077    0.4877 H   0  0  0  0  0  0  0  0  0  0  0  0
   -2.9901   -0.8714    0.0933 H   0  0  0  0  0  0  0  0  0  0  0  0
   -1.8191   -0.6251   -2.1047 H   0  0  0  0  0  0  0  0  0  0  0  0
   -0.1446   -3.0534   -1.1623 H   0  0  0  0  0  0  0  0  0  0  0  0
    0.1091   -2.1177   -2.6869 H   0  0  0  0  0  0  0  0  0  0  0  0
   -1.1645   -4.2118   -3.0890 H   0  0  0  0  0  0  0  0  0  0  0  0
   -2.1486   -2.7571   -3.4914 H   0  0  0  0  0  0  0  0  0  0  0  0
    1.5927   -1.2788   -0.8792 H   0  0  0  0  0  0  0  0  0  0  0  0
   -1.7351    1.1473    0.1363 H   0  0  0  0  0  0  0  0  0  0  0  0
   -1.7611    2.3466    2.0504 H   0  0  0  0  0  0  0  0  0  0  0  0
   -1.9217    4.4939    3.2293 H   0  0  0  0  0  0  0  0  0  0  0  0
    2.0554    5.5108    1.9798 H   0  0  0  0  0  0  0  0  0  0  0  0
    2.2370    3.3844    0.7726 H   0  0  0  0  0  0  0  0  0  0  0  0
    2.5215    1.7120    2.5988 H   0  0  0  0  0  0  0  0  0  0  0  0
    4.8975    1.9024    3.2004 H   0  0  0  0  0  0  0  0  0  0  0  0
    6.0438   -0.0531   -0.3654 H   0  0  0  0  0  0  0  0  0  0  0  0
    3.6902   -0.2754   -1.0581 H   0  0  0  0  0  0  0  0  0  0  0  0
  1 26  1  0  0  0  0
  1 27  1  0  0  0  0
  1 28  1  0  0  0  0
  2  1  1  0  0  0  0
  2 29  1  1  0  0  0
  3  2  1  0  0  0  0
  3 30  1  0  0  0  0
  3 31  1  0  0  0  0
  4  3  1  0  0  0  0
  4 32  1  0  0  0  0
  4 33  1  0  0  0  0
  5  4  1  0  0  0  0
  5 34  1  6  0  0  0
  6  5  1  0  0  0  0
  6 35  1  0  0  0  0
  6 36  1  0  0  0  0
  7  6  1  0  0  0  0
  7  2  1  0  0  0  0
  7 37  1  0  0  0  0
  7 38  1  0  0  0  0
  8  5  1  0  0  0  0
  9  8  2  0  0  0  0
  9 39  1  0  0  0  0
 10  9  1  0  0  0  0
 11 10  2  0  0  0  0
 12 11  1  0  0  0  0
 12  8  1  0  0  0  0
 12 40  1  0  0  0  0
 13 11  1  0  0  0  0
 14 13  2  0  0  0  0
 14 41  1  0  0  0  0
 15 14  1  0  0  0  0
 15 42  1  0  0  0  0
 16 15  2  0  0  0  0
 17 16  1  0  0  0  0
 18 16  1  0  0  0  0
 18 43  1  0  0  0  0
 19 18  2  0  0  0  0
 19 13  1  0  0  0  0
 19 44  1  0  0  0  0
 20 10  1  0  0  0  0
 21 20  2  0  0  0  0
 21 45  1  0  0  0  0
 22 21  1  0  0  0  0
 22 46  1  0  0  0  0
 23 22  2  0  0  0  0
 24 23  1  0  0  0  0
 24 47  1  0  0  0  0
 25 24  2  0  0  0  0
 25 20  1  0  0  0  0
 25 48  1  0  0  0  0
M  CHG  1   2   1
M  END
>  <MOL Chiral Flag>
0

>  <energy>
33.21822984082327

$$$$
> 152_AKC_j.biopha.2020.111049
>148.sdf
 OpenBabel10052220053D

 48 50  0  0  0  0  0  0  0  0999 V2000
   -4.9659    1.9741   -1.1916 C   0  0  0  0  0  0  0  0  0  0  0  0
   -4.4871    1.7967    0.2504 C   0  0  0  0  0  0  0  0  0  0  0  0
   -3.3780    0.7600    0.3642 C   0  0  0  0  0  0  0  0  0  0  0  0
   -3.6150   -0.6296    0.2326 C   0  0  0  0  0  0  0  0  0  0  0  0
   -4.9762   -1.2167   -0.0240 C   0  0  0  0  0  0  0  0  0  0  0  0
   -2.5766   -1.4961    0.3600 N   0  0  0  0  0  0  0  0  0  0  0  0
   -1.2991   -1.0906    0.5939 C   0  0  0  0  0  0  0  0  0  0  0  0
   -1.0467    0.2464    0.7017 N   0  0  0  0  0  0  0  0  0  0  0  0
   -2.0550    1.1716    0.6090 C   0  0  0  0  0  0  0  0  0  0  0  0
   -1.7884    2.3569    0.7235 O   0  0  0  0  0  0  0  0  0  0  0  0
   -0.2639   -2.1124    0.6775 N   0  0  0  0  0  0  0  0  0  0  0  0
   -0.6097   -3.3916    0.5937 N   0  0  0  0  0  0  0  0  0  0  0  0
    0.5034   -4.1480    0.6046 C   0  0  0  0  0  0  0  0  0  0  0  0
    0.4998   -5.6389    0.5320 C   0  0  0  0  0  0  0  0  0  0  0  0
    1.6100   -3.3373    0.6851 C   0  0  0  0  0  0  0  0  0  0  0  0
    1.1024   -2.0531    0.7440 C   0  0  0  0  0  0  0  0  0  0  0  0
    1.9101   -0.8798    0.8148 N   0  0  0  0  0  0  0  0  0  0  0  0
    2.9893   -0.7052   -0.0047 C   0  0  0  0  0  0  0  0  0  0  0  0
    3.2530   -1.5603   -0.8409 O   0  0  0  0  0  0  0  0  0  0  0  0
    3.7502    0.5875   -0.0443 C   0  0  0  0  0  0  0  0  0  0  0  0
    4.2673    0.9871   -1.2957 C   0  0  0  0  0  0  0  0  0  0  0  0
    4.9423    2.1975   -1.4433 C   0  0  0  0  0  0  0  0  0  0  0  0
    5.1314    3.0300   -0.3458 C   0  0  0  0  0  0  0  0  0  0  0  0
    4.6546    2.6512    0.9075 C   0  0  0  0  0  0  0  0  0  0  0  0
    3.9663    1.4398    1.0798 C   0  0  0  0  0  0  0  0  0  0  0  0
    3.4732    1.0134    2.7600 S   0  0  0  0  0  0  0  0  0  0  0  0
    5.1063    0.3298    3.1887 C   0  0  0  0  0  0  0  0  0  0  0  0
   -5.7612    2.7489   -1.2202 H   0  0  0  0  0  0  0  0  0  0  0  0
   -4.1208    2.3166   -1.8265 H   0  0  0  0  0  0  0  0  0  0  0  0
   -5.3721    1.0413   -1.6262 H   0  0  0  0  0  0  0  0  0  0  0  0
   -4.1301    2.7973    0.5745 H   0  0  0  0  0  0  0  0  0  0  0  0
   -5.3222    1.5332    0.9331 H   0  0  0  0  0  0  0  0  0  0  0  0
   -5.7942   -0.4760   -0.0652 H   0  0  0  0  0  0  0  0  0  0  0  0
   -5.2231   -1.9304    0.7883 H   0  0  0  0  0  0  0  0  0  0  0  0
   -4.9560   -1.7679   -0.9884 H   0  0  0  0  0  0  0  0  0  0  0  0
   -0.1026    0.6201    0.8531 H   0  0  0  0  0  0  0  0  0  0  0  0
    0.0179   -5.9637   -0.4134 H   0  0  0  0  0  0  0  0  0  0  0  0
    1.5369   -6.0352    0.5636 H   0  0  0  0  0  0  0  0  0  0  0  0
   -0.0684   -6.0508    1.3921 H   0  0  0  0  0  0  0  0  0  0  0  0
    2.6481   -3.6434    0.7104 H   0  0  0  0  0  0  0  0  0  0  0  0
    1.6192   -0.1175    1.4212 H   0  0  0  0  0  0  0  0  0  0  0  0
    4.1212    0.3685   -2.1730 H   0  0  0  0  0  0  0  0  0  0  0  0
    5.3145    2.4920   -2.4161 H   0  0  0  0  0  0  0  0  0  0  0  0
    5.6574    3.9683   -0.4645 H   0  0  0  0  0  0  0  0  0  0  0  0
    4.8290    3.3003    1.7564 H   0  0  0  0  0  0  0  0  0  0  0  0
    5.8983    1.0973    3.0577 H   0  0  0  0  0  0  0  0  0  0  0  0
    5.0985    0.0438    4.2603 H   0  0  0  0  0  0  0  0  0  0  0  0
    5.3157   -0.5792    2.5872 H   0  0  0  0  0  0  0  0  0  0  0  0
  1 28  1  0  0  0  0
  1 29  1  0  0  0  0
  1 30  1  0  0  0  0
  2  1  1  0  0  0  0
  2 31  1  0  0  0  0
  2 32  1  0  0  0  0
  3  2  1  0  0  0  0
  4  3  2  0  0  0  0
  5  4  1  0  0  0  0
  5 33  1  0  0  0  0
  5 34  1  0  0  0  0
  5 35  1  0  0  0  0
  6  4  1  0  0  0  0
  7  6  2  0  0  0  0
  8  7  1  0  0  0  0
  8 36  1  0  0  0  0
  9  8  1  0  0  0  0
  9  3  1  0  0  0  0
 10  9  2  0  0  0  0
 11  7  1  0  0  0  0
 12 11  1  0  0  0  0
 13 12  2  0  0  0  0
 14 13  1  0  0  0  0
 14 37  1  0  0  0  0
 14 38  1  0  0  0  0
 14 39  1  0  0  0  0
 15 13  1  0  0  0  0
 15 40  1  0  0  0  0
 16 15  2  0  0  0  0
 16 11  1  0  0  0  0
 17 16  1  0  0  0  0
 17 41  1  0  0  0  0
 18 17  1  0  0  0  0
 19 18  2  0  0  0  0
 20 18  1  0  0  0  0
 21 20  2  0  0  0  0
 21 42  1  0  0  0  0
 22 21  1  0  0  0  0
 22 43  1  0  0  0  0
 23 22  2  0  0  0  0
 23 44  1  0  0  0  0
 24 23  1  0  0  0  0
 24 45  1  0  0  0  0
 25 24  2  0  0  0  0
 25 20  1  0  0  0  0
 26 25  1  0  0  0  0
 27 26  1  0  0  0  0
 27 46  1  0  0  0  0
 27 47  1  0  0  0  0
 27 48  1  0  0  0  0
M  END
>  <MOL Chiral Flag>
0

>  <energy>
77.497434893327039

$$$$
> 153_AKC_j.intimp.2020.107124
>149.sdf
 OpenBabel10052220063D

 48 51  0  0  0  0  0  0  0  0999 V2000
   -0.6869    1.5401   -1.8079 C   0  0  0  0  0  0  0  0  0  0  0  0
    0.4916    1.4247   -0.8190 C   0  0  2  0  0  0  0  0  0  0  0  0
    1.0973    2.8190   -0.6100 C   0  0  0  0  0  0  0  0  0  0  0  0
    2.0651    2.8068    0.5694 C   0  0  0  0  0  0  0  0  0  0  0  0
    3.1669    1.7684    0.3886 C   0  0  2  0  0  0  0  0  0  0  0  0
    2.8963    0.5025   -0.3678 C   0  0  2  0  0  0  0  0  0  0  0  0
    1.5778    0.3447   -1.2204 C   0  0  2  0  0  0  0  0  0  0  0  0
    1.9800    0.5267   -2.7114 C   0  0  0  0  0  0  0  0  0  0  0  0
    1.0308   -1.1325   -1.0768 C   0  0  0  0  0  0  0  0  0  0  0  0
    0.3356   -1.5803    0.2520 C   0  0  0  0  0  0  0  0  0  0  0  0
   -1.0912   -1.0745    0.3677 C   0  0  0  0  0  0  0  0  0  0  0  0
   -2.0193   -1.3915   -0.6383 C   0  0  0  0  0  0  0  0  0  0  0  0
   -3.3072   -0.8399   -0.6233 C   0  0  0  0  0  0  0  0  0  0  0  0
   -3.6925    0.0073    0.4306 C   0  0  0  0  0  0  0  0  0  0  0  0
   -2.7887    0.2728    1.4750 C   0  0  0  0  0  0  0  0  0  0  0  0
   -1.4967   -0.2662    1.4444 C   0  0  0  0  0  0  0  0  0  0  0  0
   -5.0453    0.6238    0.4047 C   0  0  0  0  0  0  0  0  0  0  0  0
   -5.4077    1.3685    1.3014 O   0  0  0  0  0  0  0  0  0  0  0  0
   -5.9524    0.3598   -0.7380 C   0  0  0  0  0  0  0  0  0  0  0  0
   -5.5821   -0.4513   -1.7395 C   0  0  0  0  0  0  0  0  0  0  0  0
   -4.2561   -1.1053   -1.7349 C   0  0  0  0  0  0  0  0  0  0  0  0
   -3.9425   -1.8366   -2.6611 O   0  0  0  0  0  0  0  0  0  0  0  0
    2.6888    0.5589    0.9962 O   0  0  0  0  0  0  0  0  0  0  0  0
    4.1902   -0.2317   -0.7706 C   0  0  0  0  0  0  0  0  0  0  0  0
   -0.3600    1.9708   -2.7764 H   0  0  0  0  0  0  0  0  0  0  0  0
   -1.4674    2.2121   -1.3910 H   0  0  0  0  0  0  0  0  0  0  0  0
   -1.1515    0.5629   -2.0126 H   0  0  0  0  0  0  0  0  0  0  0  0
    0.0876    1.1618    0.1663 H   0  0  0  0  0  0  0  0  0  0  0  0
    0.2984    3.5545   -0.3668 H   0  0  0  0  0  0  0  0  0  0  0  0
    1.6096    3.1637   -1.5317 H   0  0  0  0  0  0  0  0  0  0  0  0
    2.5244    3.8143    0.6479 H   0  0  0  0  0  0  0  0  0  0  0  0
    1.5216    2.6170    1.5238 H   0  0  0  0  0  0  0  0  0  0  0  0
    4.1082    1.9530    0.9489 H   0  0  0  0  0  0  0  0  0  0  0  0
    1.1114    0.3797   -3.3868 H   0  0  0  0  0  0  0  0  0  0  0  0
    2.4116    1.5291   -2.9036 H   0  0  0  0  0  0  0  0  0  0  0  0
    2.7188   -0.2384   -3.0283 H   0  0  0  0  0  0  0  0  0  0  0  0
    1.8858   -1.8197   -1.2386 H   0  0  0  0  0  0  0  0  0  0  0  0
    0.3374   -1.3561   -1.9107 H   0  0  0  0  0  0  0  0  0  0  0  0
    0.2630   -2.6895    0.2453 H   0  0  0  0  0  0  0  0  0  0  0  0
    0.9576   -1.2999    1.1276 H   0  0  0  0  0  0  0  0  0  0  0  0
   -1.7235   -2.0285   -1.4608 H   0  0  0  0  0  0  0  0  0  0  0  0
   -3.0724    0.9198    2.2955 H   0  0  0  0  0  0  0  0  0  0  0  0
   -0.8013   -0.0212    2.2380 H   0  0  0  0  0  0  0  0  0  0  0  0
   -6.9299    0.8322   -0.7681 H   0  0  0  0  0  0  0  0  0  0  0  0
   -6.2618   -0.6273   -2.5684 H   0  0  0  0  0  0  0  0  0  0  0  0
    4.0273   -1.3200   -0.8836 H   0  0  0  0  0  0  0  0  0  0  0  0
    4.5641    0.1790   -1.7333 H   0  0  0  0  0  0  0  0  0  0  0  0
    5.0000   -0.0826   -0.0249 H   0  0  0  0  0  0  0  0  0  0  0  0
  1 25  1  0  0  0  0
  1 26  1  0  0  0  0
  1 27  1  0  0  0  0
  2  1  1  0  0  0  0
  2 28  1  1  0  0  0
  3  2  1  0  0  0  0
  3 29  1  0  0  0  0
  3 30  1  0  0  0  0
  4  3  1  0  0  0  0
  4 31  1  0  0  0  0
  4 32  1  0  0  0  0
  5  4  1  0  0  0  0
  5 33  1  1  0  0  0
  6  5  1  0  0  0  0
  6 24  1  6  0  0  0
  7  6  1  0  0  0  0
  7  2  1  0  0  0  0
  7  8  1  6  0  0  0
  8 34  1  0  0  0  0
  8 35  1  0  0  0  0
  8 36  1  0  0  0  0
  9  7  1  0  0  0  0
  9 37  1  0  0  0  0
  9 38  1  0  0  0  0
 10  9  1  0  0  0  0
 10 39  1  0  0  0  0
 10 40  1  0  0  0  0
 11 10  1  0  0  0  0
 12 11  2  0  0  0  0
 12 41  1  0  0  0  0
 13 12  1  0  0  0  0
 14 13  2  0  0  0  0
 15 14  1  0  0  0  0
 15 42  1  0  0  0  0
 16 15  2  0  0  0  0
 16 11  1  0  0  0  0
 16 43  1  0  0  0  0
 17 14  1  0  0  0  0
 18 17  2  0  0  0  0
 19 17  1  0  0  0  0
 19 44  1  0  0  0  0
 20 19  2  0  0  0  0
 20 45  1  0  0  0  0
 21 20  1  0  0  0  0
 21 13  1  0  0  0  0
 22 21  2  0  0  0  0
 23  6  1  0  0  0  0
 23  5  1  0  0  0  0
 24 46  1  0  0  0  0
 24 47  1  0  0  0  0
 24 48  1  0  0  0  0
M  END
>  <MOL Chiral Flag>
0

>  <energy>
80.797128794950737

$$$$
> 154_AKC_14786419.2020.1765347
>150.sdf
 OpenBabel10052220073D

 56 58  0  0  0  0  0  0  0  0999 V2000
   -1.1935    3.1361    2.5744 C   0  0  0  0  0  0  0  0  0  0  0  0
   -0.2689    1.9164    2.6920 C   0  0  0  0  0  0  0  0  0  0  0  0
    0.0924    1.2452    1.3496 C   0  0  0  0  0  0  0  0  0  0  0  0
   -0.8768    0.1608    0.7899 C   0  0  1  0  0  0  0  0  0  0  0  0
   -2.3322    0.6222    0.6652 C   0  0  0  0  0  0  0  0  0  0  0  0
   -3.1399   -0.5827    0.2772 C   0  0  0  0  0  0  0  0  0  0  0  0
   -4.1551   -0.8742    0.8896 O   0  0  0  0  0  0  0  0  0  0  0  0
   -2.6884   -1.3979   -0.7017 O   0  0  0  0  0  0  0  0  0  0  0  0
   -1.4414   -1.2983   -1.2211 C   0  0  0  0  0  0  0  0  0  0  0  0
   -1.1512   -1.9512   -2.4399 C   0  0  0  0  0  0  0  0  0  0  0  0
   -2.1668   -2.8177   -3.1258 C   0  0  0  0  0  0  0  0  0  0  0  0
   -2.4302   -2.5654   -4.2933 O   0  0  0  0  0  0  0  0  0  0  0  0
   -2.7736   -4.0999   -2.5320 C   0  0  2  0  0  0  0  0  0  0  0  0
   -3.7052   -3.9196   -1.3269 C   0  0  0  0  0  0  0  0  0  0  0  0
   -1.7120   -5.2107   -2.2784 C   0  0  2  0  0  0  0  0  0  0  0  0
   -0.7179   -4.9259   -1.1442 C   0  0  0  0  0  0  0  0  0  0  0  0
   -0.9847   -5.4529   -3.4557 O   0  0  0  0  0  0  0  0  0  0  0  0
    0.1081   -1.7339   -3.0532 C   0  0  0  0  0  0  0  0  0  0  0  0
    0.4395   -2.3317   -4.2241 O   0  0  0  0  0  0  0  0  0  0  0  0
    1.0563   -0.9047   -2.4373 C   0  0  0  0  0  0  0  0  0  0  0  0
    2.3722   -0.6797   -3.0672 C   0  0  0  0  0  0  0  0  0  0  0  0
    3.2808    0.0998   -2.4776 C   0  0  0  0  0  0  0  0  0  0  0  0
    3.0057    0.7788   -1.1495 C   0  0  0  0  0  0  0  0  0  0  0  0
    4.0425    0.3002   -0.1263 C   0  0  0  0  0  0  0  0  0  0  0  0
    3.1186    2.2964   -1.3366 C   0  0  0  0  0  0  0  0  0  0  0  0
    1.7390    0.4981   -0.6462 O   0  0  0  0  0  0  0  0  0  0  0  0
    0.7850   -0.2834   -1.2108 C   0  0  0  0  0  0  0  0  0  0  0  0
   -0.4713   -0.4773   -0.5733 C   0  0  0  0  0  0  0  0  0  0  0  0
   -2.1995    2.9186    2.1863 H   0  0  0  0  0  0  0  0  0  0  0  0
   -0.7298    3.8962    1.9102 H   0  0  0  0  0  0  0  0  0  0  0  0
   -1.3215    3.5899    3.5798 H   0  0  0  0  0  0  0  0  0  0  0  0
   -0.6538    1.1646    3.4138 H   0  0  0  0  0  0  0  0  0  0  0  0
    0.6758    2.3291    3.1111 H   0  0  0  0  0  0  0  0  0  0  0  0
    0.2906    2.0443    0.6024 H   0  0  0  0  0  0  0  0  0  0  0  0
    1.0365    0.6987    1.5623 H   0  0  0  0  0  0  0  0  0  0  0  0
   -0.8948   -0.6593    1.5449 H   0  0  0  0  0  0  0  0  0  0  0  0
   -2.7473    0.9954    1.6175 H   0  0  0  0  0  0  0  0  0  0  0  0
   -2.3997    1.4020   -0.1243 H   0  0  0  0  0  0  0  0  0  0  0  0
   -3.4378   -4.5062   -3.3297 H   0  0  0  0  0  0  0  0  0  0  0  0
   -4.4884   -3.1662   -1.5568 H   0  0  0  0  0  0  0  0  0  0  0  0
   -4.2148   -4.8817   -1.1053 H   0  0  0  0  0  0  0  0  0  0  0  0
   -3.1629   -3.6395   -0.4067 H   0  0  0  0  0  0  0  0  0  0  0  0
   -2.2473   -6.1441   -1.9806 H   0  0  0  0  0  0  0  0  0  0  0  0
   -0.0873   -4.0436   -1.3585 H   0  0  0  0  0  0  0  0  0  0  0  0
   -1.2374   -4.7793   -0.1764 H   0  0  0  0  0  0  0  0  0  0  0  0
   -0.0379   -5.7965   -1.0281 H   0  0  0  0  0  0  0  0  0  0  0  0
   -1.5531   -6.0237   -4.0363 H   0  0  0  0  0  0  0  0  0  0  0  0
   -0.1165   -2.9681   -4.6894 H   0  0  0  0  0  0  0  0  0  0  0  0
    2.6167   -1.1453   -4.0173 H   0  0  0  0  0  0  0  0  0  0  0  0
    4.2419    0.2497   -2.9620 H   0  0  0  0  0  0  0  0  0  0  0  0
    3.8751    0.7949    0.8548 H   0  0  0  0  0  0  0  0  0  0  0  0
    5.0745    0.5334   -0.4679 H   0  0  0  0  0  0  0  0  0  0  0  0
    3.9572   -0.7984    0.0196 H   0  0  0  0  0  0  0  0  0  0  0  0
    2.3616    2.6488   -2.0702 H   0  0  0  0  0  0  0  0  0  0  0  0
    4.1287    2.5770   -1.7067 H   0  0  0  0  0  0  0  0  0  0  0  0
    2.9376    2.8195   -0.3728 H   0  0  0  0  0  0  0  0  0  0  0  0
  1 29  1  0  0  0  0
  1 30  1  0  0  0  0
  1 31  1  0  0  0  0
  2  1  1  0  0  0  0
  2 32  1  0  0  0  0
  2 33  1  0  0  0  0
  3  2  1  0  0  0  0
  3 34  1  0  0  0  0
  3 35  1  0  0  0  0
  4  3  1  0  0  0  0
  4 36  1  1  0  0  0
  5  4  1  0  0  0  0
  5 37  1  0  0  0  0
  5 38  1  0  0  0  0
  6  5  1  0  0  0  0
  7  6  2  0  0  0  0
  8  6  1  0  0  0  0
  9  8  1  0  0  0  0
 10  9  2  0  0  0  0
 11 10  1  0  0  0  0
 12 11  2  0  0  0  0
 13 11  1  0  0  0  0
 13 39  1  6  0  0  0
 14 13  1  0  0  0  0
 14 40  1  0  0  0  0
 14 41  1  0  0  0  0
 14 42  1  0  0  0  0
 15 13  1  0  0  0  0
 15 43  1  1  0  0  0
 16 15  1  0  0  0  0
 16 44  1  0  0  0  0
 16 45  1  0  0  0  0
 16 46  1  0  0  0  0
 17 15  1  0  0  0  0
 17 47  1  0  0  0  0
 18 10  1  0  0  0  0
 19 18  1  0  0  0  0
 19 48  1  0  0  0  0
 20 18  2  0  0  0  0
 21 20  1  0  0  0  0
 21 49  1  0  0  0  0
 22 21  2  0  0  0  0
 22 50  1  0  0  0  0
 23 22  1  0  0  0  0
 24 23  1  0  0  0  0
 24 51  1  0  0  0  0
 24 52  1  0  0  0  0
 24 53  1  0  0  0  0
 25 23  1  0  0  0  0
 25 54  1  0  0  0  0
 25 55  1  0  0  0  0
 25 56  1  0  0  0  0
 26 23  1  0  0  0  0
 27 26  1  0  0  0  0
 27 20  1  0  0  0  0
 28 27  2  0  0  0  0
 28  4  1  0  0  0  0
 28  9  1  0  0  0  0
M  END
>  <MOL Chiral Flag>
0

>  <energy>
94.672524871562246

$$$$
> 155_AKC_14786419.2020.1747457
>151.sdf
 OpenBabel10102213073D

 77 80  0  0  0  0  0  0  0  0999 V2000
   -4.8443    1.9978    1.6749 C   0  0  0  0  0  0  0  0  0  0  0  0
   -4.9379    0.9646    0.5534 C   0  0  0  0  0  0  0  0  0  0  0  0
   -4.6746   -0.4406    1.0645 C   0  0  0  0  0  0  0  0  0  0  0  0
   -5.6414   -1.0380    2.0609 C   0  0  0  0  0  0  0  0  0  0  0  0
   -3.5883   -1.1166    0.6065 C   0  0  0  0  0  0  0  0  0  0  0  0
   -3.1820   -2.5038    1.0188 C   0  0  0  0  0  0  0  0  0  0  0  0
   -3.8221   -3.1022    1.8672 O   0  0  0  0  0  0  0  0  0  0  0  0
   -2.0629   -3.1048    0.5232 O   0  0  0  0  0  0  0  0  0  0  0  0
   -1.3410   -2.7320   -0.6010 C   0  0  2  0  0  0  0  0  0  0  0  0
   -1.0193   -3.9786   -1.4368 C   0  0  1  0  0  0  0  0  0  0  0  0
   -2.2121   -4.5575   -1.8998 O   0  0  0  0  0  0  0  0  0  0  0  0
   -0.1195   -3.5769   -2.6162 C   0  0  2  0  0  0  0  0  0  0  0  0
    0.2690   -4.7313   -3.3174 O   0  0  0  0  0  0  0  0  0  0  0  0
    1.1164   -2.8276   -2.0652 C   0  0  1  0  0  0  0  0  0  0  0  0
    2.0320   -2.3626   -3.1980 C   0  0  0  0  0  0  0  0  0  0  0  0
    0.7015   -1.6831   -1.3382 O   0  0  0  0  0  0  0  0  0  0  0  0
   -0.0232   -2.0565   -0.1759 C   0  0  1  0  0  0  0  0  0  0  0  0
   -0.3637   -0.9132    0.5925 O   0  0  0  0  0  0  0  0  0  0  0  0
    0.6926   -0.0397    1.0100 C   0  0  1  0  0  0  0  0  0  0  0  0
    0.1658    0.5481    2.3497 C   0  0  0  0  0  0  0  0  0  0  0  0
    2.0395   -0.8002    1.3270 C   0  0  0  0  0  0  0  0  0  0  0  0
    3.2336    0.0659    1.7737 C   0  0  0  0  0  0  0  0  0  0  0  0
    3.9451    0.7068    0.5670 C   0  0  1  0  0  0  0  0  0  0  0  0
    3.3051    1.8987   -0.1898 C   0  0  1  0  0  0  0  0  0  0  0  0
    1.8635    2.2174    0.2517 C   0  0  1  0  0  0  0  0  0  0  0  0
    1.2704    3.4738   -0.4119 C   0  0  1  0  0  0  0  0  0  0  0  0
    1.4916    3.5623   -1.9387 C   0  0  0  0  0  0  0  0  0  0  0  0
   -0.2063    3.2955   -0.0540 C   0  0  0  0  0  0  0  0  0  0  0  0
   -0.4767    1.8353   -0.4024 C   0  0  0  0  0  0  0  0  0  0  0  0
    0.8487    1.0875   -0.0782 C   0  0  2  0  0  0  0  0  0  0  0  0
    4.5463    2.1043    0.6887 C   0  0  0  0  0  0  0  0  0  0  0  0
    5.8440    2.3117   -0.1010 C   0  0  0  0  0  0  0  0  0  0  0  0
    4.4234    2.9507    1.9697 C   0  0  0  0  0  0  0  0  0  0  0  0
   -3.8271    1.9823    2.1221 H   0  0  0  0  0  0  0  0  0  0  0  0
   -5.5930    1.8016    2.4697 H   0  0  0  0  0  0  0  0  0  0  0  0
   -5.0346    3.0107    1.2617 H   0  0  0  0  0  0  0  0  0  0  0  0
   -5.9465    1.0005    0.0889 H   0  0  0  0  0  0  0  0  0  0  0  0
   -4.1998    1.2572   -0.2256 H   0  0  0  0  0  0  0  0  0  0  0  0
   -5.1200   -1.2622    3.0151 H   0  0  0  0  0  0  0  0  0  0  0  0
   -6.4745   -0.3401    2.2842 H   0  0  0  0  0  0  0  0  0  0  0  0
   -6.0930   -1.9629    1.6446 H   0  0  0  0  0  0  0  0  0  0  0  0
   -2.9552   -0.5994   -0.1011 H   0  0  0  0  0  0  0  0  0  0  0  0
   -1.9093   -2.0326   -1.2489 H   0  0  0  0  0  0  0  0  0  0  0  0
   -0.4735   -4.6983   -0.7788 H   0  0  0  0  0  0  0  0  0  0  0  0
   -2.0128   -5.5095   -2.0982 H   0  0  0  0  0  0  0  0  0  0  0  0
   -0.7029   -2.8898   -3.2774 H   0  0  0  0  0  0  0  0  0  0  0  0
    0.3132   -4.4898   -4.2793 H   0  0  0  0  0  0  0  0  0  0  0  0
    1.7228   -3.5015   -1.4149 H   0  0  0  0  0  0  0  0  0  0  0  0
    1.4861   -1.6773   -3.8812 H   0  0  0  0  0  0  0  0  0  0  0  0
    2.9043   -1.8205   -2.7743 H   0  0  0  0  0  0  0  0  0  0  0  0
    2.4111   -3.2297   -3.7788 H   0  0  0  0  0  0  0  0  0  0  0  0
    0.5474   -2.7708    0.4629 H   0  0  0  0  0  0  0  0  0  0  0  0
   -0.0055   -0.2738    3.0781 H   0  0  0  0  0  0  0  0  0  0  0  0
    0.8409    1.2710    2.8390 H   0  0  0  0  0  0  0  0  0  0  0  0
   -0.8109    1.0551    2.2127 H   0  0  0  0  0  0  0  0  0  0  0  0
    2.3990   -1.4008    0.4661 H   0  0  0  0  0  0  0  0  0  0  0  0
    1.8182   -1.5168    2.1488 H   0  0  0  0  0  0  0  0  0  0  0  0
    2.9446    0.7519    2.5840 H   0  0  0  0  0  0  0  0  0  0  0  0
    3.9963   -0.6106    2.2152 H   0  0  0  0  0  0  0  0  0  0  0  0
    4.4028    0.0107   -0.1716 H   0  0  0  0  0  0  0  0  0  0  0  0
    3.4687    1.7159   -1.2748 H   0  0  0  0  0  0  0  0  0  0  0  0
    1.7975    2.4348    1.3275 H   0  0  0  0  0  0  0  0  0  0  0  0
    1.6885    4.4088    0.0227 H   0  0  0  0  0  0  0  0  0  0  0  0
    2.5695    3.7102   -2.1580 H   0  0  0  0  0  0  0  0  0  0  0  0
    1.1556    2.6577   -2.4831 H   0  0  0  0  0  0  0  0  0  0  0  0
    0.9471    4.4419   -2.3426 H   0  0  0  0  0  0  0  0  0  0  0  0
   -0.9029    4.0156   -0.5341 H   0  0  0  0  0  0  0  0  0  0  0  0
   -0.3102    3.4081    1.0497 H   0  0  0  0  0  0  0  0  0  0  0  0
   -1.4061    1.4304    0.0483 H   0  0  0  0  0  0  0  0  0  0  0  0
   -0.6368    1.7816   -1.5013 H   0  0  0  0  0  0  0  0  0  0  0  0
    1.1655    0.6279   -1.0375 H   0  0  0  0  0  0  0  0  0  0  0  0
    6.7117    2.0374    0.5348 H   0  0  0  0  0  0  0  0  0  0  0  0
    5.9355    3.3793   -0.3918 H   0  0  0  0  0  0  0  0  0  0  0  0
    5.8819    1.6960   -1.0256 H   0  0  0  0  0  0  0  0  0  0  0  0
    5.2605    2.6934    2.6516 H   0  0  0  0  0  0  0  0  0  0  0  0
    4.5092    4.0246    1.7018 H   0  0  0  0  0  0  0  0  0  0  0  0
    3.4894    2.8330    2.5418 H   0  0  0  0  0  0  0  0  0  0  0  0
  1 34  1  0  0  0  0
  1 35  1  0  0  0  0
  1 36  1  0  0  0  0
  2  1  1  0  0  0  0
  2 37  1  0  0  0  0
  2 38  1  0  0  0  0
  3  2  1  0  0  0  0
  4  3  1  0  0  0  0
  4 39  1  0  0  0  0
  4 40  1  0  0  0  0
  4 41  1  0  0  0  0
  5  3  2  0  0  0  0
  5 42  1  0  0  0  0
  6  5  1  0  0  0  0
  7  6  2  0  0  0  0
  8  6  1  0  0  0  0
  9  8  1  0  0  0  0
  9 43  1  6  0  0  0
 10  9  1  0  0  0  0
 10 44  1  1  0  0  0
 11 10  1  0  0  0  0
 11 45  1  0  0  0  0
 12 10  1  0  0  0  0
 12 46  1  6  0  0  0
 13 12  1  0  0  0  0
 13 47  1  0  0  0  0
 14 12  1  0  0  0  0
 14 48  1  1  0  0  0
 15 14  1  0  0  0  0
 15 49  1  0  0  0  0
 15 50  1  0  0  0  0
 15 51  1  0  0  0  0
 16 14  1  0  0  0  0
 17 16  1  0  0  0  0
 17  9  1  0  0  0  0
 17 52  1  1  0  0  0
 18 17  1  0  0  0  0
 19 18  1  6  0  0  0
 20 19  1  0  0  0  0
 20 53  1  0  0  0  0
 20 54  1  0  0  0  0
 20 55  1  0  0  0  0
 21 19  1  0  0  0  0
 21 56  1  0  0  0  0
 21 57  1  0  0  0  0
 22 21  1  0  0  0  0
 22 58  1  0  0  0  0
 22 59  1  0  0  0  0
 23 22  1  0  0  0  0
 23 60  1  6  0  0  0
 24 23  1  0  0  0  0
 24 61  1  6  0  0  0
 25 24  1  0  0  0  0
 25 62  1  1  0  0  0
 26 25  1  0  0  0  0
 26 63  1  1  0  0  0
 27 26  1  0  0  0  0
 27 64  1  0  0  0  0
 27 65  1  0  0  0  0
 27 66  1  0  0  0  0
 28 26  1  0  0  0  0
 28 67  1  0  0  0  0
 28 68  1  0  0  0  0
 29 28  1  0  0  0  0
 29 69  1  0  0  0  0
 29 70  1  0  0  0  0
 30 29  1  0  0  0  0
 30 19  1  0  0  0  0
 30 25  1  0  0  0  0
 30 71  1  6  0  0  0
 31 24  1  0  0  0  0
 31 23  1  0  0  0  0
 32 31  1  0  0  0  0
 32 72  1  0  0  0  0
 32 73  1  0  0  0  0
 32 74  1  0  0  0  0
 33 31  1  0  0  0  0
 33 75  1  0  0  0  0
 33 76  1  0  0  0  0
 33 77  1  0  0  0  0
M  END
>  <MOL Chiral Flag>
0

>  <energy>
170.73069833703153

$$$$
> 156_AKC_14786419.2019.1619725
>152.sdf
 OpenBabel10052220083D

 26 27  0  0  0  0  0  0  0  0999 V2000
   -3.4893   -2.0378    0.8426 O   0  0  0  0  0  0  0  0  0  0  0  0
   -2.7978   -1.4263   -0.2127 C   0  0  2  0  0  0  0  0  0  0  0  0
   -1.4334   -0.9184    0.2647 C   0  0  0  0  0  0  0  0  0  0  0  0
   -1.1813    0.3209   -0.6149 C   0  0  2  0  0  0  0  0  0  0  0  0
   -0.2253    1.3805   -0.0349 C   0  0  0  0  0  0  0  0  0  0  0  0
    1.2072    0.9080    0.0937 C   0  0  0  0  0  0  0  0  0  0  0  0
    1.5664   -0.0736    1.0359 C   0  0  0  0  0  0  0  0  0  0  0  0
    2.8958   -0.4926    1.1473 C   0  0  0  0  0  0  0  0  0  0  0  0
    3.8782    0.0646    0.3258 C   0  0  0  0  0  0  0  0  0  0  0  0
    3.5346    1.0462   -0.6062 C   0  0  0  0  0  0  0  0  0  0  0  0
    2.2071    1.4700   -0.7219 C   0  0  0  0  0  0  0  0  0  0  0  0
   -2.4482    0.8328   -0.7858 O   0  0  0  0  0  0  0  0  0  0  0  0
   -3.3762   -0.1199   -0.6193 C   0  0  0  0  0  0  0  0  0  0  0  0
   -4.5386    0.0356   -0.9572 O   0  0  0  0  0  0  0  0  0  0  0  0
   -4.3451   -2.3665    0.4622 H   0  0  0  0  0  0  0  0  0  0  0  0
   -2.7192   -2.0891   -1.1042 H   0  0  0  0  0  0  0  0  0  0  0  0
   -0.6337   -1.6873    0.2958 H   0  0  0  0  0  0  0  0  0  0  0  0
   -1.5881   -0.5281    1.2985 H   0  0  0  0  0  0  0  0  0  0  0  0
   -0.8169   -0.0046   -1.6162 H   0  0  0  0  0  0  0  0  0  0  0  0
   -0.5888    1.7452    0.9501 H   0  0  0  0  0  0  0  0  0  0  0  0
   -0.2608    2.2431   -0.7360 H   0  0  0  0  0  0  0  0  0  0  0  0
    0.8259   -0.5068    1.6923 H   0  0  0  0  0  0  0  0  0  0  0  0
    3.1649   -1.2479    1.8743 H   0  0  0  0  0  0  0  0  0  0  0  0
    4.9066   -0.2610    0.4147 H   0  0  0  0  0  0  0  0  0  0  0  0
    4.2975    1.4804   -1.2394 H   0  0  0  0  0  0  0  0  0  0  0  0
    1.9586    2.2325   -1.4494 H   0  0  0  0  0  0  0  0  0  0  0  0
  1 15  1  0  0  0  0
  2  1  1  0  0  0  0
  2 16  1  6  0  0  0
  3  2  1  0  0  0  0
  3 17  1  0  0  0  0
  3 18  1  0  0  0  0
  4  3  1  0  0  0  0
  4 19  1  6  0  0  0
  5  4  1  0  0  0  0
  5 20  1  0  0  0  0
  5 21  1  0  0  0  0
  6  5  1  0  0  0  0
  7  6  2  0  0  0  0
  7 22  1  0  0  0  0
  8  7  1  0  0  0  0
  8 23  1  0  0  0  0
  9  8  2  0  0  0  0
  9 24  1  0  0  0  0
 10  9  1  0  0  0  0
 10 25  1  0  0  0  0
 11 10  2  0  0  0  0
 11  6  1  0  0  0  0
 11 26  1  0  0  0  0
 12  4  1  0  0  0  0
 13 12  1  0  0  0  0
 13  2  1  0  0  0  0
 14 13  2  0  0  0  0
M  END
>  <MOL Chiral Flag>
0

>  <energy>
52.513353156245607

$$$$
> 157_AKC_fphar.2020.584668
>153.sdf
 OpenBabel10052220083D

 34 35  0  0  0  0  0  0  0  0999 V2000
    1.9848    0.3556   -4.1780 C   0  0  0  0  0  0  0  0  0  0  0  0
    2.8790    0.4810   -3.1357 O   0  0  0  0  0  0  0  0  0  0  0  0
    2.5727    0.3419   -1.8164 C   0  0  0  0  0  0  0  0  0  0  0  0
    1.2426    0.2733   -1.3522 C   0  0  0  0  0  0  0  0  0  0  0  0
    0.9751    0.0833    0.0229 C   0  0  0  0  0  0  0  0  0  0  0  0
   -0.4075   -0.0116    0.5832 C   0  0  0  0  0  0  0  0  0  0  0  0
   -1.5415    0.2077   -0.1199 C   0  0  0  0  0  0  0  0  0  0  0  0
   -2.9174    0.0842    0.4545 C   0  0  0  0  0  0  0  0  0  0  0  0
   -3.1691   -0.4085    1.7566 C   0  0  0  0  0  0  0  0  0  0  0  0
   -4.4802   -0.5173    2.2302 C   0  0  0  0  0  0  0  0  0  0  0  0
   -5.5533   -0.1364    1.4246 C   0  0  0  0  0  0  0  0  0  0  0  0
   -5.3202    0.3536    0.1392 C   0  0  0  0  0  0  0  0  0  0  0  0
   -4.0127    0.4610   -0.3456 C   0  0  0  0  0  0  0  0  0  0  0  0
    2.0561   -0.0514    0.9106 C   0  0  0  0  0  0  0  0  0  0  0  0
    3.3845    0.0255    0.4518 C   0  0  0  0  0  0  0  0  0  0  0  0
    4.4527   -0.1201    1.2793 O   0  0  0  0  0  0  0  0  0  0  0  0
    4.3990   -0.6222    2.5642 C   0  0  0  0  0  0  0  0  0  0  0  0
    3.6270    0.2382   -0.9074 C   0  0  0  0  0  0  0  0  0  0  0  0
    1.1901    1.1271   -4.1140 H   0  0  0  0  0  0  0  0  0  0  0  0
    2.5291    0.4864   -5.1359 H   0  0  0  0  0  0  0  0  0  0  0  0
    1.5374   -0.6624   -4.1688 H   0  0  0  0  0  0  0  0  0  0  0  0
    0.4352    0.3529   -2.0586 H   0  0  0  0  0  0  0  0  0  0  0  0
   -0.4756   -0.2653    1.6313 H   0  0  0  0  0  0  0  0  0  0  0  0
   -1.4783    0.4988   -1.1597 H   0  0  0  0  0  0  0  0  0  0  0  0
   -2.3735   -0.7230    2.4118 H   0  0  0  0  0  0  0  0  0  0  0  0
   -4.6635   -0.9018    3.2255 H   0  0  0  0  0  0  0  0  0  0  0  0
   -6.5662   -0.2233    1.7964 H   0  0  0  0  0  0  0  0  0  0  0  0
   -6.1544    0.6487   -0.4843 H   0  0  0  0  0  0  0  0  0  0  0  0
   -3.8538    0.8419   -1.3472 H   0  0  0  0  0  0  0  0  0  0  0  0
    1.8542   -0.2122    1.9619 H   0  0  0  0  0  0  0  0  0  0  0  0
    5.4221   -0.6255    2.9924 H   0  0  0  0  0  0  0  0  0  0  0  0
    4.0278   -1.6698    2.5380 H   0  0  0  0  0  0  0  0  0  0  0  0
    3.7499    0.0007    3.2133 H   0  0  0  0  0  0  0  0  0  0  0  0
    4.6478    0.2890   -1.2639 H   0  0  0  0  0  0  0  0  0  0  0  0
  1 19  1  0  0  0  0
  1 20  1  0  0  0  0
  1 21  1  0  0  0  0
  2  1  1  0  0  0  0
  3  2  1  0  0  0  0
  4  3  2  0  0  0  0
  4 22  1  0  0  0  0
  5  4  1  0  0  0  0
  6  5  1  0  0  0  0
  6 23  1  0  0  0  0
  7  6  2  0  0  0  0
  7 24  1  0  0  0  0
  8  7  1  0  0  0  0
  9  8  2  0  0  0  0
  9 25  1  0  0  0  0
 10  9  1  0  0  0  0
 10 26  1  0  0  0  0
 11 10  2  0  0  0  0
 11 27  1  0  0  0  0
 12 11  1  0  0  0  0
 12 28  1  0  0  0  0
 13 12  2  0  0  0  0
 13  8  1  0  0  0  0
 13 29  1  0  0  0  0
 14  5  2  0  0  0  0
 14 30  1  0  0  0  0
 15 14  1  0  0  0  0
 16 15  1  0  0  0  0
 17 16  1  0  0  0  0
 17 31  1  0  0  0  0
 17 32  1  0  0  0  0
 17 33  1  0  0  0  0
 18 15  2  0  0  0  0
 18  3  1  0  0  0  0
 18 34  1  0  0  0  0
M  END
>  <MOL Chiral Flag>
0

>  <energy>
47.256770904142797

$$$$
> 158_AKC_fvets.2020.00527
>154.sdf
 OpenBabel10052220093D

 47 48  0  0  0  0  0  0  0  0999 V2000
    0.2959   -5.0244    1.0612 C   0  0  0  0  0  0  0  0  0  0  0  0
   -0.0974   -3.7119    0.8976 O   0  0  0  0  0  0  0  0  0  0  0  0
    0.7259   -2.6593    0.6313 C   0  0  0  0  0  0  0  0  0  0  0  0
    2.1064   -2.8414    0.4440 C   0  0  0  0  0  0  0  0  0  0  0  0
    2.9489   -1.7581    0.1800 C   0  0  0  0  0  0  0  0  0  0  0  0
    4.2677   -1.9820   -0.0090 O   0  0  0  0  0  0  0  0  0  0  0  0
    2.4254   -0.4435    0.1036 C   0  0  0  0  0  0  0  0  0  0  0  0
    1.0306   -0.2680    0.2867 C   0  0  0  0  0  0  0  0  0  0  0  0
    0.1766   -1.3625    0.5480 C   0  0  0  0  0  0  0  0  0  0  0  0
   -1.3021   -1.2004    0.7576 C   0  0  0  0  0  0  0  0  0  0  0  0
   -1.9705   -0.0258    0.7684 C   0  0  0  0  0  0  0  0  0  0  0  0
   -3.4418    0.0129    1.0393 C   0  0  0  0  0  0  0  0  0  0  0  0
   -4.0326   -1.0433    1.2203 O   0  0  0  0  0  0  0  0  0  0  0  0
   -4.2139    1.2922    1.1602 C   0  0  0  0  0  0  0  0  0  0  0  0
   -5.5580    1.2422    1.5875 C   0  0  0  0  0  0  0  0  0  0  0  0
   -6.3026    2.4133    1.7428 C   0  0  0  0  0  0  0  0  0  0  0  0
   -5.7242    3.6571    1.4672 C   0  0  0  0  0  0  0  0  0  0  0  0
   -6.4328    4.7941    1.6218 O   0  0  0  0  0  0  0  0  0  0  0  0
   -4.3988    3.7219    1.0306 C   0  0  0  0  0  0  0  0  0  0  0  0
   -3.6442    2.5531    0.8787 C   0  0  0  0  0  0  0  0  0  0  0  0
    3.3675    0.7563   -0.1841 C   0  0  0  0  0  0  0  0  0  0  0  0
    2.6375    2.1216   -0.2741 C   0  0  0  0  0  0  0  0  0  0  0  0
    4.4030    0.8909    0.9595 C   0  0  0  0  0  0  0  0  0  0  0  0
    4.0924    0.5209   -1.5031 C   0  0  0  0  0  0  0  0  0  0  0  0
    3.4341    0.3732   -2.6606 C   0  0  0  0  0  0  0  0  0  0  0  0
    0.9941   -5.1102    1.9212 H   0  0  0  0  0  0  0  0  0  0  0  0
    0.7753   -5.4036    0.1341 H   0  0  0  0  0  0  0  0  0  0  0  0
   -0.5993   -5.6442    1.2730 H   0  0  0  0  0  0  0  0  0  0  0  0
    2.5387   -3.8312    0.5008 H   0  0  0  0  0  0  0  0  0  0  0  0
    4.6514   -2.8693    0.0399 H   0  0  0  0  0  0  0  0  0  0  0  0
    0.6128    0.7169    0.2266 H   0  0  0  0  0  0  0  0  0  0  0  0
   -1.8757   -2.1042    0.9349 H   0  0  0  0  0  0  0  0  0  0  0  0
   -1.4415    0.8962    0.6140 H   0  0  0  0  0  0  0  0  0  0  0  0
   -6.0301    0.2948    1.8153 H   0  0  0  0  0  0  0  0  0  0  0  0
   -7.3290    2.3521    2.0826 H   0  0  0  0  0  0  0  0  0  0  0  0
   -7.3487    4.7839    1.9354 H   0  0  0  0  0  0  0  0  0  0  0  0
   -3.9491    4.6824    0.8127 H   0  0  0  0  0  0  0  0  0  0  0  0
   -2.6260    2.6534    0.5411 H   0  0  0  0  0  0  0  0  0  0  0  0
    3.3619    2.9370   -0.4914 H   0  0  0  0  0  0  0  0  0  0  0  0
    1.8784    2.1297   -1.0845 H   0  0  0  0  0  0  0  0  0  0  0  0
    2.1373    2.3691    0.6874 H   0  0  0  0  0  0  0  0  0  0  0  0
    3.8884    1.0674    1.9287 H   0  0  0  0  0  0  0  0  0  0  0  0
    5.0885    1.7457    0.7698 H   0  0  0  0  0  0  0  0  0  0  0  0
    5.0405   -0.0068    1.0741 H   0  0  0  0  0  0  0  0  0  0  0  0
    5.1778    0.4630   -1.5153 H   0  0  0  0  0  0  0  0  0  0  0  0
    3.9849    0.2039   -3.5798 H   0  0  0  0  0  0  0  0  0  0  0  0
    2.3500    0.4162   -2.6968 H   0  0  0  0  0  0  0  0  0  0  0  0
  1 26  1  0  0  0  0
  1 27  1  0  0  0  0
  1 28  1  0  0  0  0
  2  1  1  0  0  0  0
  3  2  1  0  0  0  0
  4  3  2  0  0  0  0
  4 29  1  0  0  0  0
  5  4  1  0  0  0  0
  6  5  1  0  0  0  0
  6 30  1  0  0  0  0
  7  5  2  0  0  0  0
  8  7  1  0  0  0  0
  8 31  1  0  0  0  0
  9  8  2  0  0  0  0
  9  3  1  0  0  0  0
 10  9  1  0  0  0  0
 10 32  1  0  0  0  0
 11 10  2  0  0  0  0
 11 33  1  0  0  0  0
 12 11  1  0  0  0  0
 13 12  2  0  0  0  0
 14 12  1  0  0  0  0
 15 14  2  0  0  0  0
 15 34  1  0  0  0  0
 16 15  1  0  0  0  0
 16 35  1  0  0  0  0
 17 16  2  0  0  0  0
 18 17  1  0  0  0  0
 18 36  1  0  0  0  0
 19 17  1  0  0  0  0
 19 37  1  0  0  0  0
 20 19  2  0  0  0  0
 20 14  1  0  0  0  0
 20 38  1  0  0  0  0
 21  7  1  0  0  0  0
 22 21  1  0  0  0  0
 22 39  1  0  0  0  0
 22 40  1  0  0  0  0
 22 41  1  0  0  0  0
 23 21  1  0  0  0  0
 23 42  1  0  0  0  0
 23 43  1  0  0  0  0
 23 44  1  0  0  0  0
 24 21  1  0  0  0  0
 24 45  1  0  0  0  0
 25 24  2  0  0  0  0
 25 46  1  0  0  0  0
 25 47  1  0  0  0  0
M  END
>  <MOL Chiral Flag>
0

>  <energy>
92.315182988157389

$$$$
> 159_AKC_journal.pone.0243392
>155.sdf
 OpenBabel10052220093D

 28 30  0  0  0  0  0  0  0  0999 V2000
   -3.9016   -1.0195    1.7332 O   0  0  0  0  0  0  0  0  0  0  0  0
   -2.5582   -0.7101    1.4611 C   0  0  2  0  0  0  0  0  0  0  0  0
   -2.4105    0.7672    1.0341 C   0  0  0  0  0  0  0  0  0  0  0  0
   -1.0764    1.0781    0.5359 N   0  0  0  0  0  0  0  0  0  0  0  0
   -0.0961    0.0612    0.2745 C   0  0  0  0  0  0  0  0  0  0  0  0
   -0.5154   -1.2882    0.2379 C   0  0  0  0  0  0  0  0  0  0  0  0
   -1.9801   -1.6094    0.3760 C   0  0  0  0  0  0  0  0  0  0  0  0
    0.4147   -2.3177    0.0620 C   0  0  0  0  0  0  0  0  0  0  0  0
    1.7632   -2.0263   -0.1109 C   0  0  0  0  0  0  0  0  0  0  0  0
    2.2073   -0.6987   -0.1165 C   0  0  0  0  0  0  0  0  0  0  0  0
    3.5716   -0.4255   -0.3044 C   0  0  0  0  0  0  0  0  0  0  0  0
    4.0320    0.8895   -0.3086 C   0  0  0  0  0  0  0  0  0  0  0  0
    3.1404    1.9430   -0.1211 C   0  0  0  0  0  0  0  0  0  0  0  0
    1.7794    1.6934    0.0737 C   0  0  0  0  0  0  0  0  0  0  0  0
    1.2836    0.3675    0.0749 C   0  0  0  0  0  0  0  0  0  0  0  0
   -4.4150   -0.9038    0.8908 H   0  0  0  0  0  0  0  0  0  0  0  0
   -1.9713   -0.8881    2.3903 H   0  0  0  0  0  0  0  0  0  0  0  0
   -2.6361    1.3955    1.9228 H   0  0  0  0  0  0  0  0  0  0  0  0
   -3.1370    1.0232    0.2333 H   0  0  0  0  0  0  0  0  0  0  0  0
   -0.8679    2.0680    0.3656 H   0  0  0  0  0  0  0  0  0  0  0  0
   -2.1374   -2.6866    0.6013 H   0  0  0  0  0  0  0  0  0  0  0  0
   -2.4970   -1.3762   -0.5815 H   0  0  0  0  0  0  0  0  0  0  0  0
    0.0903   -3.3509    0.0443 H   0  0  0  0  0  0  0  0  0  0  0  0
    2.4644   -2.8408   -0.2511 H   0  0  0  0  0  0  0  0  0  0  0  0
    4.2800   -1.2331   -0.4477 H   0  0  0  0  0  0  0  0  0  0  0  0
    5.0849    1.0928   -0.4560 H   0  0  0  0  0  0  0  0  0  0  0  0
    3.5056    2.9621   -0.1249 H   0  0  0  0  0  0  0  0  0  0  0  0
    1.1408    2.5479    0.2169 H   0  0  0  0  0  0  0  0  0  0  0  0
  1 16  1  0  0  0  0
  2  1  1  0  0  0  0
  2 17  1  1  0  0  0
  3  2  1  0  0  0  0
  3 18  1  0  0  0  0
  3 19  1  0  0  0  0
  4  3  1  0  0  0  0
  4 20  1  0  0  0  0
  5  4  1  0  0  0  0
  6  5  2  0  0  0  0
  7  6  1  0  0  0  0
  7  2  1  0  0  0  0
  7 21  1  0  0  0  0
  7 22  1  0  0  0  0
  8  6  1  0  0  0  0
  8 23  1  0  0  0  0
  9  8  2  0  0  0  0
  9 24  1  0  0  0  0
 10  9  1  0  0  0  0
 11 10  2  0  0  0  0
 11 25  1  0  0  0  0
 12 11  1  0  0  0  0
 12 26  1  0  0  0  0
 13 12  2  0  0  0  0
 13 27  1  0  0  0  0
 14 13  1  0  0  0  0
 14 28  1  0  0  0  0
 15 14  2  0  0  0  0
 15  5  1  0  0  0  0
 15 10  1  0  0  0  0
M  END
>  <MOL Chiral Flag>
0

>  <energy>
72.56725835932707

$$$$
> 160_AKC_j.ijpharm.2020.119764
>156.sdf
 OpenBabel10052220093D

 32 33  0  0  0  0  0  0  0  0999 V2000
   -0.5375   -1.5981    2.0193 O   0  0  0  0  0  0  0  0  0  0  0  0
   -0.3619   -0.8774    1.0482 C   0  0  0  0  0  0  0  0  0  0  0  0
   -1.5100   -0.3581    0.2675 C   0  0  0  0  0  0  0  0  0  0  0  0
   -2.7908   -0.6279    0.5877 C   0  0  0  0  0  0  0  0  0  0  0  0
   -3.9643   -0.0824   -0.1616 C   0  0  0  0  0  0  0  0  0  0  0  0
   -5.2567   -0.4090    0.2884 C   0  0  0  0  0  0  0  0  0  0  0  0
   -6.3862    0.0893   -0.3694 C   0  0  0  0  0  0  0  0  0  0  0  0
   -6.2414    0.9177   -1.4830 C   0  0  0  0  0  0  0  0  0  0  0  0
   -4.9678    1.2493   -1.9439 C   0  0  0  0  0  0  0  0  0  0  0  0
   -3.8334    0.7568   -1.2934 C   0  0  0  0  0  0  0  0  0  0  0  0
    1.0028   -0.4644    0.6429 C   0  0  0  0  0  0  0  0  0  0  0  0
    2.1049   -0.8104    1.3366 C   0  0  0  0  0  0  0  0  0  0  0  0
    3.4867   -0.3764    0.9652 C   0  0  0  0  0  0  0  0  0  0  0  0
    4.5519   -0.7381    1.8102 C   0  0  0  0  0  0  0  0  0  0  0  0
    5.8609   -0.3442    1.5132 C   0  0  0  0  0  0  0  0  0  0  0  0
    6.1241    0.4113    0.3699 C   0  0  0  0  0  0  0  0  0  0  0  0
    5.0805    0.7750   -0.4806 C   0  0  0  0  0  0  0  0  0  0  0  0
    3.7693    0.3883   -0.1913 C   0  0  0  0  0  0  0  0  0  0  0  0
   -1.2747    0.2749   -0.5738 H   0  0  0  0  0  0  0  0  0  0  0  0
   -2.9907   -1.2625    1.4474 H   0  0  0  0  0  0  0  0  0  0  0  0
   -5.3900   -1.0474    1.1531 H   0  0  0  0  0  0  0  0  0  0  0  0
   -7.3757   -0.1656   -0.0130 H   0  0  0  0  0  0  0  0  0  0  0  0
   -7.1163    1.3042   -1.9895 H   0  0  0  0  0  0  0  0  0  0  0  0
   -4.8565    1.8925   -2.8076 H   0  0  0  0  0  0  0  0  0  0  0  0
   -2.8718    1.0435   -1.6858 H   0  0  0  0  0  0  0  0  0  0  0  0
    1.0784    0.1565   -0.2362 H   0  0  0  0  0  0  0  0  0  0  0  0
    1.9893   -1.4219    2.2279 H   0  0  0  0  0  0  0  0  0  0  0  0
    4.3676   -1.3212    2.7041 H   0  0  0  0  0  0  0  0  0  0  0  0
    6.6723   -0.6241    2.1723 H   0  0  0  0  0  0  0  0  0  0  0  0
    7.1373    0.7160    0.1420 H   0  0  0  0  0  0  0  0  0  0  0  0
    5.2860    1.3604   -1.3678 H   0  0  0  0  0  0  0  0  0  0  0  0
    2.9976    0.6937   -0.8784 H   0  0  0  0  0  0  0  0  0  0  0  0
  2  1  2  0  0  0  0
  3  2  1  0  0  0  0
  3 19  1  0  0  0  0
  4  3  2  0  0  0  0
  4 20  1  0  0  0  0
  5  4  1  0  0  0  0
  6  5  2  0  0  0  0
  6 21  1  0  0  0  0
  7  6  1  0  0  0  0
  7 22  1  0  0  0  0
  8  7  2  0  0  0  0
  8 23  1  0  0  0  0
  9  8  1  0  0  0  0
  9 24  1  0  0  0  0
 10  9  2  0  0  0  0
 10  5  1  0  0  0  0
 10 25  1  0  0  0  0
 11  2  1  0  0  0  0
 11 26  1  0  0  0  0
 12 11  2  0  0  0  0
 12 27  1  0  0  0  0
 13 12  1  0  0  0  0
 14 13  2  0  0  0  0
 14 28  1  0  0  0  0
 15 14  1  0  0  0  0
 15 29  1  0  0  0  0
 16 15  2  0  0  0  0
 16 30  1  0  0  0  0
 17 16  1  0  0  0  0
 17 31  1  0  0  0  0
 18 17  2  0  0  0  0
 18 13  1  0  0  0  0
 18 32  1  0  0  0  0
M  END
>  <MOL Chiral Flag>
0

>  <energy>
49.663818178171894

$$$$
> 161_akc_journal.pntd.0007235
>157.sdf
 OpenBabel10052220103D

 66 67  0  0  0  0  0  0  0  0999 V2000
    5.1485   -3.8664    0.3369 O   0  0  0  0  0  0  0  0  0  0  0  0
    4.8977   -3.2569   -0.9002 C   0  0  0  0  0  0  0  0  0  0  0  0
    3.9137   -2.0969   -0.7297 C   0  0  0  0  0  0  0  0  0  0  0  0
    3.6317   -1.4051   -2.0732 C   0  0  0  0  0  0  0  0  0  0  0  0
    2.6582   -0.2173   -1.9572 C   0  0  0  0  0  0  0  0  0  0  0  0
    1.2553   -0.6351   -1.4710 C   0  0  0  0  0  0  0  0  0  0  0  0
    0.2170    0.5046   -1.4898 C   0  0  0  0  0  0  0  0  0  0  0  0
    0.5835    1.7649   -0.6621 C   0  0  0  0  0  0  0  0  0  0  0  0
   -0.4869    2.8620   -0.8440 C   0  0  0  0  0  0  0  0  0  0  0  0
   -1.7812    2.3718   -0.5674 O   0  0  0  0  0  0  0  0  0  0  0  0
   -2.1256    2.8112    0.6343 O   0  0  0  0  0  0  0  0  0  0  0  0
   -2.2349    1.6902    1.4941 C   0  0  0  0  0  0  0  0  0  0  0  0
   -2.2054    2.3094    2.9541 C   0  0  0  0  0  0  0  0  0  0  0  0
   -2.0998    1.3204    4.1269 C   0  0  0  0  0  0  0  0  0  0  0  0
   -3.4241    1.1002    4.8928 C   0  0  0  0  0  0  0  0  0  0  0  0
   -3.2999   -0.2016    5.6987 C   0  0  0  0  0  0  0  0  0  0  0  0
   -4.6125   -0.6495    6.3333 C   0  0  0  0  0  0  0  0  0  0  0  0
   -5.5139   -1.6048    5.5040 C   0  0  0  0  0  0  0  0  0  0  0  0
   -6.2488   -1.1433    4.2111 C   0  0  0  0  0  0  0  0  0  0  0  0
   -5.8306   -1.7718    2.8305 C   0  0  0  0  0  0  0  0  0  0  0  0
   -5.3123   -0.7882    1.7595 C   0  0  0  0  0  0  0  0  0  0  0  0
   -3.8473   -0.3761    1.9118 C   0  0  0  0  0  0  0  0  0  0  0  0
   -3.5797    0.9648    1.1802 C   0  0  0  0  0  0  0  0  0  0  0  0
   -1.1560    0.7875    1.2442 O   0  0  0  0  0  0  0  0  0  0  0  0
   -0.0706    1.3074    1.7905 O   0  0  0  0  0  0  0  0  0  0  0  0
    0.9486    1.5071    0.8322 C   0  0  0  0  0  0  0  0  0  0  0  0
    4.3541   -4.4251    0.5453 H   0  0  0  0  0  0  0  0  0  0  0  0
    4.5036   -4.0080   -1.6231 H   0  0  0  0  0  0  0  0  0  0  0  0
    5.8602   -2.8803   -1.3067 H   0  0  0  0  0  0  0  0  0  0  0  0
    4.3382   -1.3596   -0.0137 H   0  0  0  0  0  0  0  0  0  0  0  0
    2.9749   -2.5100   -0.3080 H   0  0  0  0  0  0  0  0  0  0  0  0
    3.2204   -2.1437   -2.7955 H   0  0  0  0  0  0  0  0  0  0  0  0
    4.5933   -1.0222   -2.4817 H   0  0  0  0  0  0  0  0  0  0  0  0
    3.0981    0.5380   -1.2719 H   0  0  0  0  0  0  0  0  0  0  0  0
    2.5644    0.2398   -2.9666 H   0  0  0  0  0  0  0  0  0  0  0  0
    0.8750   -1.4373   -2.1407 H   0  0  0  0  0  0  0  0  0  0  0  0
    1.3104   -1.0509   -0.4467 H   0  0  0  0  0  0  0  0  0  0  0  0
    0.0801    0.8200   -2.5484 H   0  0  0  0  0  0  0  0  0  0  0  0
   -0.7486    0.0824   -1.1424 H   0  0  0  0  0  0  0  0  0  0  0  0
    1.5172    2.1690   -1.1115 H   0  0  0  0  0  0  0  0  0  0  0  0
   -0.2245    3.7777   -0.2627 H   0  0  0  0  0  0  0  0  0  0  0  0
   -0.4896    3.1801   -1.9087 H   0  0  0  0  0  0  0  0  0  0  0  0
   -1.2839    2.9291    2.9999 H   0  0  0  0  0  0  0  0  0  0  0  0
   -3.0279    3.0396    3.1221 H   0  0  0  0  0  0  0  0  0  0  0  0
   -1.6629    0.3785    3.7313 H   0  0  0  0  0  0  0  0  0  0  0  0
   -1.3698    1.6912    4.8798 H   0  0  0  0  0  0  0  0  0  0  0  0
   -4.3101    1.0682    4.2351 H   0  0  0  0  0  0  0  0  0  0  0  0
   -3.6289    1.9681    5.5586 H   0  0  0  0  0  0  0  0  0  0  0  0
   -2.9139   -1.0528    5.0947 H   0  0  0  0  0  0  0  0  0  0  0  0
   -2.5524    0.0039    6.4972 H   0  0  0  0  0  0  0  0  0  0  0  0
   -5.1697    0.2248    6.7351 H   0  0  0  0  0  0  0  0  0  0  0  0
   -4.3201   -1.2680    7.2123 H   0  0  0  0  0  0  0  0  0  0  0  0
   -5.0073   -2.5756    5.3175 H   0  0  0  0  0  0  0  0  0  0  0  0
   -6.3155   -1.8342    6.2467 H   0  0  0  0  0  0  0  0  0  0  0  0
   -6.5860   -0.0852    4.1952 H   0  0  0  0  0  0  0  0  0  0  0  0
   -7.2260   -1.6612    4.3614 H   0  0  0  0  0  0  0  0  0  0  0  0
   -5.2167   -2.6918    2.9331 H   0  0  0  0  0  0  0  0  0  0  0  0
   -6.7853   -2.1151    2.3664 H   0  0  0  0  0  0  0  0  0  0  0  0
   -5.4143   -1.2278    0.7424 H   0  0  0  0  0  0  0  0  0  0  0  0
   -5.9898    0.0928    1.8080 H   0  0  0  0  0  0  0  0  0  0  0  0
   -3.1572   -1.1829    1.5878 H   0  0  0  0  0  0  0  0  0  0  0  0
   -3.6705   -0.3103    2.9557 H   0  0  0  0  0  0  0  0  0  0  0  0
   -3.6394    0.7398    0.0919 H   0  0  0  0  0  0  0  0  0  0  0  0
   -4.3882    1.6918    1.4128 H   0  0  0  0  0  0  0  0  0  0  0  0
    1.7011    0.6986    0.9245 H   0  0  0  0  0  0  0  0  0  0  0  0
    1.4690    2.4298    1.1673 H   0  0  0  0  0  0  0  0  0  0  0  0
  1 27  1  0  0  0  0
  2  1  1  0  0  0  0
  2 28  1  0  0  0  0
  2 29  1  0  0  0  0
  3  2  1  0  0  0  0
  3 30  1  0  0  0  0
  3 31  1  0  0  0  0
  4  3  1  0  0  0  0
  4 32  1  0  0  0  0
  4 33  1  0  0  0  0
  5  4  1  0  0  0  0
  5 34  1  0  0  0  0
  5 35  1  0  0  0  0
  6  5  1  0  0  0  0
  6 36  1  0  0  0  0
  6 37  1  0  0  0  0
  7  6  1  0  0  0  0
  7 38  1  0  0  0  0
  7 39  1  0  0  0  0
  8  7  1  0  0  0  0
  8 40  1  0  0  0  0
  9  8  1  0  0  0  0
  9 41  1  0  0  0  0
  9 42  1  0  0  0  0
 10  9  1  0  0  0  0
 11 10  1  0  0  0  0
 12 11  1  0  0  0  0
 13 12  1  0  0  0  0
 13 43  1  0  0  0  0
 13 44  1  0  0  0  0
 14 13  1  0  0  0  0
 14 45  1  0  0  0  0
 14 46  1  0  0  0  0
 15 14  1  0  0  0  0
 15 47  1  0  0  0  0
 15 48  1  0  0  0  0
 16 15  1  0  0  0  0
 16 49  1  0  0  0  0
 16 50  1  0  0  0  0
 17 16  1  0  0  0  0
 17 51  1  0  0  0  0
 17 52  1  0  0  0  0
 18 17  1  0  0  0  0
 18 53  1  0  0  0  0
 18 54  1  0  0  0  0
 19 18  1  0  0  0  0
 19 55  1  0  0  0  0
 19 56  1  0  0  0  0
 20 19  1  0  0  0  0
 20 57  1  0  0  0  0
 20 58  1  0  0  0  0
 21 20  1  0  0  0  0
 21 59  1  0  0  0  0
 21 60  1  0  0  0  0
 22 21  1  0  0  0  0
 22 61  1  0  0  0  0
 22 62  1  0  0  0  0
 23 22  1  0  0  0  0
 23 12  1  0  0  0  0
 23 63  1  0  0  0  0
 23 64  1  0  0  0  0
 24 12  1  0  0  0  0
 25 24  1  0  0  0  0
 26 25  1  0  0  0  0
 26  8  1  0  0  0  0
 26 65  1  0  0  0  0
 26 66  1  0  0  0  0
M  END
>  <MOL Chiral Flag>
0

>  <energy>
85.800294576612416

$$$$
> 162_AKC_acs.jmedchem.0c01589
>158.sdf
 OpenBabel10052220103D

 66 67  0  0  0  0  0  0  0  0999 V2000
   -0.1903    0.5423   -5.4317 C   0  0  0  0  0  0  0  0  0  0  0  0
   -0.6402    0.9917   -4.0475 C   0  0  0  0  0  0  0  0  0  0  0  0
   -1.9167    0.2477   -3.6032 C   0  0  0  0  0  0  0  0  0  0  0  0
   -2.3640    0.6708   -2.1905 C   0  0  0  0  0  0  0  0  0  0  0  0
   -1.6787   -0.0336   -0.9484 C   0  0  0  0  0  0  0  0  0  0  0  0
   -1.9814    0.8916    0.2761 C   0  0  0  0  0  0  0  0  0  0  0  0
   -1.0924    2.1670    0.2746 C   0  0  0  0  0  0  0  0  0  0  0  0
   -1.4490    3.1388    1.4002 C   0  0  0  0  0  0  0  0  0  0  0  0
   -0.5137    4.3495    1.3789 C   0  0  0  0  0  0  0  0  0  0  0  0
   -2.2764   -1.4829   -0.7688 C   0  0  0  0  0  0  0  0  0  0  0  0
   -1.1977   -2.5444   -0.4093 C   0  0  2  0  0  0  0  0  0  0  0  0
   -0.8605   -2.7428    1.0963 C   0  0  0  0  0  0  0  0  0  0  0  0
   -0.5566   -1.5069    1.8178 N   0  0  0  0  0  0  0  0  0  0  0  0
    0.6847   -1.5487    2.6020 C   0  0  0  0  0  0  0  0  0  0  0  0
    0.6493   -0.4197    3.6428 C   0  0  0  0  0  0  0  0  0  0  0  0
    1.9700   -0.1363    4.3663 C   0  0  0  0  0  0  0  0  0  0  0  0
    2.8890    0.5993    3.4967 N   0  0  0  0  0  0  0  0  0  0  0  0
    3.1312    1.9200    3.5598 C   0  0  0  0  0  0  0  0  0  0  0  0
    4.0196    2.2419    2.5629 C   0  0  0  0  0  0  0  0  0  0  0  0
    4.3424    1.1209    1.8834 N   0  0  0  0  0  0  0  0  0  0  0  0
    3.6374    0.1350    2.4757 C   0  0  0  0  0  0  0  0  0  0  0  0
    0.0357   -2.3490   -1.3701 C   0  0  2  0  0  0  0  0  0  0  0  0
   -0.1220   -3.3011   -2.5709 C   0  0  0  0  0  0  0  0  0  0  0  0
    1.2540   -2.7099   -0.7168 O   0  0  0  0  0  0  0  0  0  0  0  0
    2.2681   -1.7314   -0.8089 C   0  0  0  0  0  0  0  0  0  0  0  0
    0.0467   -1.0477   -1.9487 O   0  0  0  0  0  0  0  0  0  0  0  0
   -0.2661   -0.1357   -1.0386 O   0  0  0  0  0  0  0  0  0  0  0  0
   -0.9953    0.7107   -6.1777 H   0  0  0  0  0  0  0  0  0  0  0  0
    0.7057    1.1244   -5.7350 H   0  0  0  0  0  0  0  0  0  0  0  0
    0.0755   -0.5360   -5.4114 H   0  0  0  0  0  0  0  0  0  0  0  0
    0.2024    0.8431   -3.3488 H   0  0  0  0  0  0  0  0  0  0  0  0
   -0.8526    2.0835   -4.0765 H   0  0  0  0  0  0  0  0  0  0  0  0
   -1.8189   -0.8533   -3.6774 H   0  0  0  0  0  0  0  0  0  0  0  0
   -2.7116    0.5546   -4.3186 H   0  0  0  0  0  0  0  0  0  0  0  0
   -2.2901    1.7736   -2.1786 H   0  0  0  0  0  0  0  0  0  0  0  0
   -3.4539    0.4658   -2.0919 H   0  0  0  0  0  0  0  0  0  0  0  0
   -3.0616    1.1562    0.2840 H   0  0  0  0  0  0  0  0  0  0  0  0
   -1.7855    0.3996    1.2316 H   0  0  0  0  0  0  0  0  0  0  0  0
   -1.1741    2.7262   -0.6763 H   0  0  0  0  0  0  0  0  0  0  0  0
   -0.0284    1.8623    0.3944 H   0  0  0  0  0  0  0  0  0  0  0  0
   -1.3620    2.6322    2.3849 H   0  0  0  0  0  0  0  0  0  0  0  0
   -2.4950    3.4883    1.2621 H   0  0  0  0  0  0  0  0  0  0  0  0
   -0.7984    5.0608    2.1815 H   0  0  0  0  0  0  0  0  0  0  0  0
    0.5377    4.0286    1.5445 H   0  0  0  0  0  0  0  0  0  0  0  0
   -0.5780    4.8759    0.4016 H   0  0  0  0  0  0  0  0  0  0  0  0
   -3.1945   -1.5179   -0.1440 H   0  0  0  0  0  0  0  0  0  0  0  0
   -2.6102   -1.8171   -1.7733 H   0  0  0  0  0  0  0  0  0  0  0  0
   -1.6341   -3.5484   -0.6254 H   0  0  0  0  0  0  0  0  0  0  0  0
   -1.7539   -3.2087    1.5765 H   0  0  0  0  0  0  0  0  0  0  0  0
   -0.0576   -3.5078    1.2008 H   0  0  0  0  0  0  0  0  0  0  0  0
   -1.3579   -1.3468    2.4751 H   0  0  0  0  0  0  0  0  0  0  0  0
    1.5261   -1.4260    1.9049 H   0  0  0  0  0  0  0  0  0  0  0  0
    0.8052   -2.5170    3.1400 H   0  0  0  0  0  0  0  0  0  0  0  0
   -0.1193   -0.6998    4.3971 H   0  0  0  0  0  0  0  0  0  0  0  0
    0.3243    0.5307    3.1638 H   0  0  0  0  0  0  0  0  0  0  0  0
    2.4450   -1.0422    4.8022 H   0  0  0  0  0  0  0  0  0  0  0  0
    1.6992    0.5321    5.2137 H   0  0  0  0  0  0  0  0  0  0  0  0
    2.6767    2.6015    4.2688 H   0  0  0  0  0  0  0  0  0  0  0  0
    4.4025    3.2283    2.3392 H   0  0  0  0  0  0  0  0  0  0  0  0
    3.6828   -0.9008    2.1675 H   0  0  0  0  0  0  0  0  0  0  0  0
   -0.1320   -4.3609   -2.2361 H   0  0  0  0  0  0  0  0  0  0  0  0
   -1.0656   -3.0991   -3.1215 H   0  0  0  0  0  0  0  0  0  0  0  0
    0.7246   -3.1713   -3.2784 H   0  0  0  0  0  0  0  0  0  0  0  0
    3.1834   -2.1342   -0.3302 H   0  0  0  0  0  0  0  0  0  0  0  0
    2.5228   -1.5036   -1.8663 H   0  0  0  0  0  0  0  0  0  0  0  0
    1.9943   -0.8141   -0.2470 H   0  0  0  0  0  0  0  0  0  0  0  0
  1 28  1  0  0  0  0
  1 29  1  0  0  0  0
  1 30  1  0  0  0  0
  2  1  1  0  0  0  0
  2 31  1  0  0  0  0
  2 32  1  0  0  0  0
  3  2  1  0  0  0  0
  3 33  1  0  0  0  0
  3 34  1  0  0  0  0
  4  3  1  0  0  0  0
  4 35  1  0  0  0  0
  4 36  1  0  0  0  0
  5  4  1  0  0  0  0
  6  5  1  0  0  0  0
  6 37  1  0  0  0  0
  6 38  1  0  0  0  0
  7  6  1  0  0  0  0
  7 39  1  0  0  0  0
  7 40  1  0  0  0  0
  8  7  1  0  0  0  0
  8 41  1  0  0  0  0
  8 42  1  0  0  0  0
  9  8  1  0  0  0  0
  9 43  1  0  0  0  0
  9 44  1  0  0  0  0
  9 45  1  0  0  0  0
 10  5  1  0  0  0  0
 10 46  1  0  0  0  0
 10 47  1  0  0  0  0
 11 10  1  0  0  0  0
 11 48  1  6  0  0  0
 12 11  1  0  0  0  0
 12 49  1  0  0  0  0
 12 50  1  0  0  0  0
 13 12  1  0  0  0  0
 13 51  1  0  0  0  0
 14 13  1  0  0  0  0
 14 52  1  0  0  0  0
 14 53  1  0  0  0  0
 15 14  1  0  0  0  0
 15 54  1  0  0  0  0
 15 55  1  0  0  0  0
 16 15  1  0  0  0  0
 16 56  1  0  0  0  0
 16 57  1  0  0  0  0
 17 16  1  0  0  0  0
 18 17  1  0  0  0  0
 18 58  1  0  0  0  0
 19 18  2  0  0  0  0
 19 59  1  0  0  0  0
 20 19  1  0  0  0  0
 21 20  2  0  0  0  0
 21 17  1  0  0  0  0
 21 60  1  0  0  0  0
 22 11  1  0  0  0  0
 22 23  1  6  0  0  0
 23 61  1  0  0  0  0
 23 62  1  0  0  0  0
 23 63  1  0  0  0  0
 24 22  1  0  0  0  0
 25 24  1  0  0  0  0
 25 64  1  0  0  0  0
 25 65  1  0  0  0  0
 25 66  1  0  0  0  0
 26 22  1  0  0  0  0
 27 26  1  0  0  0  0
 27  5  1  0  0  0  0
M  END
>  <MOL Chiral Flag>
0

>  <energy>
64.24970586789847

$$$$
> 163_AKC_acs.jmedchem.0c01589
>159.sdf
 OpenBabel10052220103D

 69 70  0  0  0  0  0  0  0  0999 V2000
    2.1476   -5.2076    0.8000 C   0  0  0  0  0  0  0  0  0  0  0  0
    2.9925   -3.9463    0.6425 C   0  0  0  0  0  0  0  0  0  0  0  0
    2.1126   -2.6929    0.5561 C   0  0  0  0  0  0  0  0  0  0  0  0
    2.9855   -1.4309    0.3590 C   0  0  0  0  0  0  0  0  0  0  0  0
    2.2453   -0.0695    0.1053 C   0  0  0  0  0  0  0  0  0  0  0  0
    1.8280    0.0823   -1.4049 C   0  0  0  0  0  0  0  0  0  0  0  0
    0.7951   -0.8883   -1.9892 C   0  0  0  0  0  0  0  0  0  0  0  0
    0.4301   -0.4889   -3.4248 C   0  0  0  0  0  0  0  0  0  0  0  0
   -0.5415   -1.4892   -4.0435 C   0  0  0  0  0  0  0  0  0  0  0  0
    3.2650    1.0663    0.3555 C   0  0  0  0  0  0  0  0  0  0  0  0
    2.6654    2.3430    0.1908 O   0  0  0  0  0  0  0  0  0  0  0  0
    1.6639    2.6469    1.1750 C   0  0  1  0  0  0  0  0  0  0  0  0
    2.3207    2.7767    2.5741 C   0  0  0  0  0  0  0  0  0  0  0  0
    1.0927    3.9379    0.9477 O   0  0  0  0  0  0  0  0  0  0  0  0
    1.2833    4.4292   -0.3661 C   0  0  0  0  0  0  0  0  0  0  0  0
    0.5080    1.5716    1.2138 C   0  0  1  0  0  0  0  0  0  0  0  0
   -0.6669    1.7903    0.1925 C   0  0  0  0  0  0  0  0  0  0  0  0
   -1.9023    1.0454    0.5455 N   0  3  0  0  0  0  0  0  0  0  0  0
   -2.6974    1.7598    1.5675 C   0  0  0  0  0  0  0  0  0  0  0  0
   -3.8807    0.9496    2.1298 C   0  0  0  0  0  0  0  0  0  0  0  0
   -5.0308    0.6633    1.1508 C   0  0  0  0  0  0  0  0  0  0  0  0
   -4.6793   -0.3164    0.1239 N   0  0  0  0  0  0  0  0  0  0  0  0
   -4.7309   -0.1439   -1.2060 C   0  0  0  0  0  0  0  0  0  0  0  0
   -4.3453   -1.3234   -1.8026 C   0  0  0  0  0  0  0  0  0  0  0  0
   -4.0589   -2.2287   -0.8441 N   0  0  0  0  0  0  0  0  0  0  0  0
   -4.2747   -1.5859    0.3230 C   0  0  0  0  0  0  0  0  0  0  0  0
    1.1154    0.1377    1.1692 C   0  0  0  0  0  0  0  0  0  0  0  0
    2.8113   -6.0968    0.8403 H   0  0  0  0  0  0  0  0  0  0  0  0
    1.4602   -5.3209   -0.0663 H   0  0  0  0  0  0  0  0  0  0  0  0
    1.5513   -5.1607    1.7353 H   0  0  0  0  0  0  0  0  0  0  0  0
    3.5876   -4.0417   -0.2925 H   0  0  0  0  0  0  0  0  0  0  0  0
    3.6908   -3.8616    1.5029 H   0  0  0  0  0  0  0  0  0  0  0  0
    1.5189   -2.5965    1.4904 H   0  0  0  0  0  0  0  0  0  0  0  0
    1.4018   -2.8510   -0.2621 H   0  0  0  0  0  0  0  0  0  0  0  0
    3.7125   -1.5894   -0.4680 H   0  0  0  0  0  0  0  0  0  0  0  0
    3.5768   -1.3512    1.2991 H   0  0  0  0  0  0  0  0  0  0  0  0
    2.7419   -0.0090   -2.0345 H   0  0  0  0  0  0  0  0  0  0  0  0
    1.4839    1.1147   -1.5852 H   0  0  0  0  0  0  0  0  0  0  0  0
   -0.1240   -0.8966   -1.3653 H   0  0  0  0  0  0  0  0  0  0  0  0
    1.2375   -1.8964   -2.0556 H   0  0  0  0  0  0  0  0  0  0  0  0
    1.3496   -0.4578   -4.0505 H   0  0  0  0  0  0  0  0  0  0  0  0
   -0.0361    0.5204   -3.4268 H   0  0  0  0  0  0  0  0  0  0  0  0
   -0.0816   -2.5005   -4.0765 H   0  0  0  0  0  0  0  0  0  0  0  0
   -0.7845   -1.1783   -5.0812 H   0  0  0  0  0  0  0  0  0  0  0  0
   -1.4800   -1.5337   -3.4517 H   0  0  0  0  0  0  0  0  0  0  0  0
    4.1032    0.9864   -0.3705 H   0  0  0  0  0  0  0  0  0  0  0  0
    3.7686    0.9780    1.3381 H   0  0  0  0  0  0  0  0  0  0  0  0
    3.1330    3.5337    2.5407 H   0  0  0  0  0  0  0  0  0  0  0  0
    2.7302    1.8311    2.9754 H   0  0  0  0  0  0  0  0  0  0  0  0
    1.5660    3.1224    3.3137 H   0  0  0  0  0  0  0  0  0  0  0  0
    0.7250    5.3819   -0.4676 H   0  0  0  0  0  0  0  0  0  0  0  0
    0.8790    3.7319   -1.1312 H   0  0  0  0  0  0  0  0  0  0  0  0
    2.3537    4.6607   -0.5562 H   0  0  0  0  0  0  0  0  0  0  0  0
    0.0124    1.7039    2.1933 H   0  0  0  0  0  0  0  0  0  0  0  0
   -0.3747    1.5300   -0.8314 H   0  0  0  0  0  0  0  0  0  0  0  0
   -0.9366    2.8663    0.1427 H   0  0  0  0  0  0  0  0  0  0  0  0
   -1.6867    0.0738    0.8581 H   0  0  0  0  0  0  0  0  0  0  0  0
   -2.4850    0.9855   -0.3182 H   0  0  0  0  0  0  0  0  0  0  0  0
   -3.0750    2.7223    1.1536 H   0  0  0  0  0  0  0  0  0  0  0  0
   -2.0675    2.0041    2.4451 H   0  0  0  0  0  0  0  0  0  0  0  0
   -4.3160    1.5714    2.9432 H   0  0  0  0  0  0  0  0  0  0  0  0
   -3.5185    0.0077    2.5946 H   0  0  0  0  0  0  0  0  0  0  0  0
   -5.3719    1.6157    0.6886 H   0  0  0  0  0  0  0  0  0  0  0  0
   -5.8802    0.2469    1.7347 H   0  0  0  0  0  0  0  0  0  0  0  0
   -5.0305    0.7687   -1.7047 H   0  0  0  0  0  0  0  0  0  0  0  0
   -4.2824   -1.5165   -2.8648 H   0  0  0  0  0  0  0  0  0  0  0  0
   -4.1452   -2.0413    1.2959 H   0  0  0  0  0  0  0  0  0  0  0  0
    0.3310   -0.6368    1.0891 H   0  0  0  0  0  0  0  0  0  0  0  0
    1.5940   -0.0250    2.1603 H   0  0  0  0  0  0  0  0  0  0  0  0
  1 28  1  0  0  0  0
  1 29  1  0  0  0  0
  1 30  1  0  0  0  0
  2  1  1  0  0  0  0
  2 31  1  0  0  0  0
  2 32  1  0  0  0  0
  3  2  1  0  0  0  0
  3 33  1  0  0  0  0
  3 34  1  0  0  0  0
  4  3  1  0  0  0  0
  4 35  1  0  0  0  0
  4 36  1  0  0  0  0
  5  4  1  0  0  0  0
  6  5  1  0  0  0  0
  6 37  1  0  0  0  0
  6 38  1  0  0  0  0
  7  6  1  0  0  0  0
  7 39  1  0  0  0  0
  7 40  1  0  0  0  0
  8  7  1  0  0  0  0
  8 41  1  0  0  0  0
  8 42  1  0  0  0  0
  9  8  1  0  0  0  0
  9 43  1  0  0  0  0
  9 44  1  0  0  0  0
  9 45  1  0  0  0  0
 10  5  1  0  0  0  0
 10 46  1  0  0  0  0
 10 47  1  0  0  0  0
 11 10  1  0  0  0  0
 12 11  1  0  0  0  0
 12 13  1  1  0  0  0
 13 48  1  0  0  0  0
 13 49  1  0  0  0  0
 13 50  1  0  0  0  0
 14 12  1  0  0  0  0
 15 14  1  0  0  0  0
 15 51  1  0  0  0  0
 15 52  1  0  0  0  0
 15 53  1  0  0  0  0
 16 12  1  0  0  0  0
 16 54  1  1  0  0  0
 17 16  1  0  0  0  0
 17 55  1  0  0  0  0
 17 56  1  0  0  0  0
 18 17  1  0  0  0  0
 18 57  1  0  0  0  0
 18 58  1  0  0  0  0
 19 18  1  0  0  0  0
 19 59  1  0  0  0  0
 19 60  1  0  0  0  0
 20 19  1  0  0  0  0
 20 61  1  0  0  0  0
 20 62  1  0  0  0  0
 21 20  1  0  0  0  0
 21 63  1  0  0  0  0
 21 64  1  0  0  0  0
 22 21  1  0  0  0  0
 23 22  1  0  0  0  0
 23 65  1  0  0  0  0
 24 23  2  0  0  0  0
 24 66  1  0  0  0  0
 25 24  1  0  0  0  0
 26 25  2  0  0  0  0
 26 22  1  0  0  0  0
 26 67  1  0  0  0  0
 27 16  1  0  0  0  0
 27  5  1  0  0  0  0
 27 68  1  0  0  0  0
 27 69  1  0  0  0  0
M  CHG  1  18   1
M  END
>  <MOL Chiral Flag>
0

>  <energy>
40.375464190951377

$$$$
> 164_AKC_journal.pone.0241855
>160.sdf
 OpenBabel10052220113D

 61 62  0  0  0  0  0  0  0  0999 V2000
   -0.2718    4.9852   -0.1135 C   0  0  0  0  0  0  0  0  0  0  0  0
   -0.1675    3.8359   -0.8716 O   0  0  0  0  0  0  0  0  0  0  0  0
    0.4821    2.6974   -0.4979 C   0  0  0  0  0  0  0  0  0  0  0  0
    0.5330    1.6134   -1.3886 C   0  0  0  0  0  0  0  0  0  0  0  0
   -0.0242    1.7506   -2.7926 C   0  0  0  0  0  0  0  0  0  0  0  0
   -1.4724    2.1721   -2.8917 C   0  0  0  0  0  0  0  0  0  0  0  0
   -2.0476    2.5071   -4.0771 C   0  0  0  0  0  0  0  0  0  0  0  0
   -1.3012    2.4661   -5.3952 C   0  0  0  0  0  0  0  0  0  0  0  0
   -3.4796    2.9711   -4.1196 C   0  0  0  0  0  0  0  0  0  0  0  0
    1.2022    0.4335   -1.0110 C   0  0  0  0  0  0  0  0  0  0  0  0
    1.8865    0.3208    0.2239 C   0  0  0  0  0  0  0  0  0  0  0  0
    2.6535   -1.0085    0.4436 C   0  0  1  0  0  0  0  0  0  0  0  0
    3.6267   -1.1865    1.6017 C   0  0  0  0  0  0  0  0  0  0  0  0
    3.2748   -1.3466    2.8873 C   0  0  0  0  0  0  0  0  0  0  0  0
    1.7480   -2.2432    0.4092 C   0  0  0  0  0  0  0  0  0  0  0  0
    0.6656   -2.3560    1.3081 C   0  0  0  0  0  0  0  0  0  0  0  0
   -0.1134   -3.5339    1.3641 C   0  0  0  0  0  0  0  0  0  0  0  0
   -1.2608   -3.7573    2.3408 C   0  0  0  0  0  0  0  0  0  0  0  0
   -1.6900   -2.6140    3.2426 C   0  0  0  0  0  0  0  0  0  0  0  0
   -2.6658   -2.7568    4.1685 C   0  0  0  0  0  0  0  0  0  0  0  0
   -3.0545   -1.5660    5.0064 C   0  0  0  0  0  0  0  0  0  0  0  0
   -3.3690   -4.0783    4.3817 C   0  0  0  0  0  0  0  0  0  0  0  0
    0.1972   -4.5872    0.4916 C   0  0  0  0  0  0  0  0  0  0  0  0
    1.2447   -4.4762   -0.4199 C   0  0  0  0  0  0  0  0  0  0  0  0
    2.0259   -3.3153   -0.4680 C   0  0  0  0  0  0  0  0  0  0  0  0
    3.0595   -3.2406   -1.3339 O   0  0  0  0  0  0  0  0  0  0  0  0
    1.8580    1.4583    1.1013 C   0  0  0  0  0  0  0  0  0  0  0  0
    2.5312    1.5457    2.2658 O   0  0  0  0  0  0  0  0  0  0  0  0
    1.1310    2.5964    0.7400 C   0  0  0  0  0  0  0  0  0  0  0  0
    0.7365    5.4102    0.0791 H   0  0  0  0  0  0  0  0  0  0  0  0
   -0.8687    5.7348   -0.6718 H   0  0  0  0  0  0  0  0  0  0  0  0
   -0.7880    4.7709    0.8470 H   0  0  0  0  0  0  0  0  0  0  0  0
    0.1210    0.8137   -3.3726 H   0  0  0  0  0  0  0  0  0  0  0  0
    0.5849    2.5526   -3.2622 H   0  0  0  0  0  0  0  0  0  0  0  0
   -2.0570    2.2435   -1.9781 H   0  0  0  0  0  0  0  0  0  0  0  0
   -1.2800    3.4856   -5.8352 H   0  0  0  0  0  0  0  0  0  0  0  0
   -1.8283    1.7872   -6.0968 H   0  0  0  0  0  0  0  0  0  0  0  0
   -0.2542    2.1149   -5.3222 H   0  0  0  0  0  0  0  0  0  0  0  0
   -4.0677    2.3024   -4.7825 H   0  0  0  0  0  0  0  0  0  0  0  0
   -3.5172    4.0021   -4.5332 H   0  0  0  0  0  0  0  0  0  0  0  0
   -3.9540    2.9823   -3.1160 H   0  0  0  0  0  0  0  0  0  0  0  0
    1.2442   -0.3912   -1.7135 H   0  0  0  0  0  0  0  0  0  0  0  0
    3.3384   -1.0427   -0.4314 H   0  0  0  0  0  0  0  0  0  0  0  0
    4.6866   -1.2330    1.3633 H   0  0  0  0  0  0  0  0  0  0  0  0
    4.0457   -1.4894    3.6373 H   0  0  0  0  0  0  0  0  0  0  0  0
    2.2457   -1.3227    3.2106 H   0  0  0  0  0  0  0  0  0  0  0  0
    0.4675   -1.5303    1.9642 H   0  0  0  0  0  0  0  0  0  0  0  0
   -0.9634   -4.6152    2.9827 H   0  0  0  0  0  0  0  0  0  0  0  0
   -2.1532   -4.0523    1.7481 H   0  0  0  0  0  0  0  0  0  0  0  0
   -1.2284   -1.6420    3.1548 H   0  0  0  0  0  0  0  0  0  0  0  0
   -3.4175   -0.7494    4.3467 H   0  0  0  0  0  0  0  0  0  0  0  0
   -3.8629   -1.8137    5.7255 H   0  0  0  0  0  0  0  0  0  0  0  0
   -2.1755   -1.2056    5.5812 H   0  0  0  0  0  0  0  0  0  0  0  0
   -4.1387   -4.0077    5.1782 H   0  0  0  0  0  0  0  0  0  0  0  0
   -3.8733   -4.4011    3.4475 H   0  0  0  0  0  0  0  0  0  0  0  0
   -2.6353   -4.8521    4.6916 H   0  0  0  0  0  0  0  0  0  0  0  0
   -0.3793   -5.5045    0.5212 H   0  0  0  0  0  0  0  0  0  0  0  0
    1.4631   -5.3066   -1.0798 H   0  0  0  0  0  0  0  0  0  0  0  0
    3.2784   -3.9692   -1.9327 H   0  0  0  0  0  0  0  0  0  0  0  0
    3.2953    1.0273    2.5076 H   0  0  0  0  0  0  0  0  0  0  0  0
    1.1258    3.4339    1.4252 H   0  0  0  0  0  0  0  0  0  0  0  0
  1 30  1  0  0  0  0
  1 31  1  0  0  0  0
  1 32  1  0  0  0  0
  2  1  1  0  0  0  0
  3  2  1  0  0  0  0
  4  3  2  0  0  0  0
  5  4  1  0  0  0  0
  5 33  1  0  0  0  0
  5 34  1  0  0  0  0
  6  5  1  0  0  0  0
  6 35  1  0  0  0  0
  7  6  2  0  0  0  0
  8  7  1  0  0  0  0
  8 36  1  0  0  0  0
  8 37  1  0  0  0  0
  8 38  1  0  0  0  0
  9  7  1  0  0  0  0
  9 39  1  0  0  0  0
  9 40  1  0  0  0  0
  9 41  1  0  0  0  0
 10  4  1  0  0  0  0
 10 42  1  0  0  0  0
 11 10  2  0  0  0  0
 12 11  1  0  0  0  0
 12 43  1  6  0  0  0
 13 12  1  0  0  0  0
 13 44  1  0  0  0  0
 14 13  2  0  0  0  0
 14 45  1  0  0  0  0
 14 46  1  0  0  0  0
 15 12  1  0  0  0  0
 16 15  2  0  0  0  0
 16 47  1  0  0  0  0
 17 16  1  0  0  0  0
 18 17  1  0  0  0  0
 18 48  1  0  0  0  0
 18 49  1  0  0  0  0
 19 18  1  0  0  0  0
 19 50  1  0  0  0  0
 20 19  2  0  0  0  0
 21 20  1  0  0  0  0
 21 51  1  0  0  0  0
 21 52  1  0  0  0  0
 21 53  1  0  0  0  0
 22 20  1  0  0  0  0
 22 54  1  0  0  0  0
 22 55  1  0  0  0  0
 22 56  1  0  0  0  0
 23 17  2  0  0  0  0
 23 57  1  0  0  0  0
 24 23  1  0  0  0  0
 24 58  1  0  0  0  0
 25 24  2  0  0  0  0
 25 15  1  0  0  0  0
 26 25  1  0  0  0  0
 26 59  1  0  0  0  0
 27 11  1  0  0  0  0
 28 27  1  0  0  0  0
 28 60  1  0  0  0  0
 29 27  2  0  0  0  0
 29  3  1  0  0  0  0
 29 61  1  0  0  0  0
M  END
>  <MOL Chiral Flag>
0

>  <energy>
96.667151632766306

$$$$
> 165_s11033-020-05887-5
>161.sdf
 OpenBabel10052220113D

 44 46  0  0  0  0  0  0  0  0999 V2000
   -2.9601    3.0801   -0.8480 C   0  0  0  0  0  0  0  0  0  0  0  0
   -4.1301    2.5139   -0.0332 C   0  0  0  0  0  0  0  0  0  0  0  0
   -4.4394    1.0363   -0.3529 C   0  0  0  0  0  0  0  0  0  0  0  0
   -3.3004    0.1296    0.0323 C   0  0  0  0  0  0  0  0  0  0  0  0
   -3.1917   -0.3746    1.3442 C   0  0  0  0  0  0  0  0  0  0  0  0
   -2.0724   -1.1414    1.7156 C   0  0  0  0  0  0  0  0  0  0  0  0
   -1.9327   -1.6413    2.9657 O   0  0  0  0  0  0  0  0  0  0  0  0
   -2.8596   -2.4911    3.5281 C   0  0  0  0  0  0  0  0  0  0  0  0
   -1.0558   -1.3664    0.7903 C   0  0  0  0  0  0  0  0  0  0  0  0
    0.0473   -1.9948    1.1775 O   0  0  0  0  0  0  0  0  0  0  0  0
    1.0889   -2.1519    0.3747 C   0  0  0  0  0  0  0  0  0  0  0  0
    2.1058   -2.6631    0.8127 O   0  0  0  0  0  0  0  0  0  0  0  0
    1.0308   -1.7088   -0.9618 C   0  0  0  0  0  0  0  0  0  0  0  0
   -0.1336   -1.1084   -1.4287 C   0  0  0  0  0  0  0  0  0  0  0  0
   -1.1815   -0.8962   -0.5336 C   0  0  0  0  0  0  0  0  0  0  0  0
   -2.3094   -0.1690   -0.9123 C   0  0  0  0  0  0  0  0  0  0  0  0
    2.2500   -1.7116   -1.7784 C   0  0  0  0  0  0  0  0  0  0  0  0
    2.3565   -2.4319   -2.7589 O   0  0  0  0  0  0  0  0  0  0  0  0
    3.3446   -0.8124   -1.3452 C   0  0  0  0  0  0  0  0  0  0  0  0
    3.0166    0.4167   -0.7385 C   0  0  0  0  0  0  0  0  0  0  0  0
    4.0118    1.2824   -0.3003 C   0  0  0  0  0  0  0  0  0  0  0  0
    5.3632    0.9279   -0.4278 C   0  0  0  0  0  0  0  0  0  0  0  0
    5.6933   -0.3041   -1.0322 C   0  0  0  0  0  0  0  0  0  0  0  0
    4.6895   -1.1601   -1.5046 C   0  0  0  0  0  0  0  0  0  0  0  0
    6.3785    1.8057    0.0557 N   0  3  0  0  0  0  0  0  0  0  0  0
    6.0582    2.9591    0.6015 O   0  5  0  0  0  0  0  0  0  0  0  0
    7.5305    1.4924   -0.0127 O   0  0  0  0  0  0  0  0  0  0  0  0
   -2.0085    2.5644   -0.6023 H   0  0  0  0  0  0  0  0  0  0  0  0
   -2.8314    4.1597   -0.6186 H   0  0  0  0  0  0  0  0  0  0  0  0
   -3.1607    2.9774   -1.9360 H   0  0  0  0  0  0  0  0  0  0  0  0
   -3.9147    2.6367    1.0510 H   0  0  0  0  0  0  0  0  0  0  0  0
   -5.0307    3.1160   -0.2781 H   0  0  0  0  0  0  0  0  0  0  0  0
   -5.3555    0.7218    0.1902 H   0  0  0  0  0  0  0  0  0  0  0  0
   -4.6569    0.9425   -1.4391 H   0  0  0  0  0  0  0  0  0  0  0  0
   -3.9556   -0.1462    2.0768 H   0  0  0  0  0  0  0  0  0  0  0  0
   -2.9153   -3.4208    2.9190 H   0  0  0  0  0  0  0  0  0  0  0  0
   -2.5255   -2.7708    4.5484 H   0  0  0  0  0  0  0  0  0  0  0  0
   -3.8615   -2.0210    3.5839 H   0  0  0  0  0  0  0  0  0  0  0  0
   -0.1842   -0.7262   -2.4414 H   0  0  0  0  0  0  0  0  0  0  0  0
   -2.3887    0.2180   -1.9215 H   0  0  0  0  0  0  0  0  0  0  0  0
    1.9817    0.7180   -0.6218 H   0  0  0  0  0  0  0  0  0  0  0  0
    3.7231    2.2253    0.1474 H   0  0  0  0  0  0  0  0  0  0  0  0
    6.7272   -0.6042   -1.1332 H   0  0  0  0  0  0  0  0  0  0  0  0
    4.9585   -2.1073   -1.9539 H   0  0  0  0  0  0  0  0  0  0  0  0
  1 28  1  0  0  0  0
  1 29  1  0  0  0  0
  1 30  1  0  0  0  0
  2  1  1  0  0  0  0
  2 31  1  0  0  0  0
  2 32  1  0  0  0  0
  3  2  1  0  0  0  0
  3 33  1  0  0  0  0
  3 34  1  0  0  0  0
  4  3  1  0  0  0  0
  5  4  2  0  0  0  0
  5 35  1  0  0  0  0
  6  5  1  0  0  0  0
  7  6  1  0  0  0  0
  8  7  1  0  0  0  0
  8 36  1  0  0  0  0
  8 37  1  0  0  0  0
  8 38  1  0  0  0  0
  9  6  2  0  0  0  0
 10  9  1  0  0  0  0
 11 10  1  0  0  0  0
 12 11  2  0  0  0  0
 13 11  1  0  0  0  0
 14 13  2  0  0  0  0
 14 39  1  0  0  0  0
 15 14  1  0  0  0  0
 15  9  1  0  0  0  0
 16 15  2  0  0  0  0
 16  4  1  0  0  0  0
 16 40  1  0  0  0  0
 17 13  1  0  0  0  0
 18 17  2  0  0  0  0
 19 17  1  0  0  0  0
 20 19  2  0  0  0  0
 20 41  1  0  0  0  0
 21 20  1  0  0  0  0
 21 42  1  0  0  0  0
 22 21  2  0  0  0  0
 23 22  1  0  0  0  0
 23 43  1  0  0  0  0
 24 23  2  0  0  0  0
 24 19  1  0  0  0  0
 24 44  1  0  0  0  0
 25 22  1  0  0  0  0
 26 25  1  0  0  0  0
 27 25  2  0  0  0  0
M  CHG  2  25   1  26  -1
M  END
>  <MOL Chiral Flag>
0

>  <energy>
127.00619966272531

$$$$
> 166_AKC_s00044-020-02619-z
>162.sdf
 OpenBabel10052220123D

 40 42  0  0  0  0  0  0  0  0999 V2000
   -4.2414    3.6774   -2.4470 C   0  0  0  0  0  0  0  0  0  0  0  0
   -4.7442    2.4443   -2.0820 O   0  0  0  0  0  0  0  0  0  0  0  0
   -4.0403    1.4762   -1.4363 C   0  0  0  0  0  0  0  0  0  0  0  0
   -2.7297    1.6872   -0.9653 C   0  0  0  0  0  0  0  0  0  0  0  0
   -2.0215    0.6467   -0.3589 C   0  0  0  0  0  0  0  0  0  0  0  0
   -2.6029   -0.6248   -0.2072 C   0  0  0  0  0  0  0  0  0  0  0  0
   -3.9275   -0.8209   -0.6490 C   0  0  0  0  0  0  0  0  0  0  0  0
   -4.6337    0.2224   -1.2574 C   0  0  0  0  0  0  0  0  0  0  0  0
   -1.7984   -1.7380    0.3722 C   0  0  0  0  0  0  0  0  0  0  0  0
   -2.2927   -3.0422    0.6040 C   0  0  0  0  0  0  0  0  0  0  0  0
   -1.0124   -3.9171    1.1847 S   0  0  0  0  0  0  0  0  0  0  0  0
    0.1088   -2.7129    1.1424 C   0  0  0  0  0  0  0  0  0  0  0  0
    1.4632   -2.8268    1.5560 N   0  0  0  0  0  0  0  0  0  0  0  0
    2.2546   -1.7082    1.6656 N   0  0  0  0  0  0  0  0  0  0  0  0
    2.7423   -1.0653    0.6487 C   0  0  0  0  0  0  0  0  0  0  0  0
    2.5952   -1.5949   -0.7661 C   0  0  0  0  0  0  0  0  0  0  0  0
    3.4775    0.2144    0.9006 C   0  0  0  0  0  0  0  0  0  0  0  0
    3.7195    0.6374    2.2241 C   0  0  0  0  0  0  0  0  0  0  0  0
    4.3807    1.8419    2.4825 C   0  0  0  0  0  0  0  0  0  0  0  0
    4.6590    2.3214    4.1518 Cl  0  0  0  0  0  0  0  0  0  0  0  0
    4.8055    2.6494    1.4171 C   0  0  0  0  0  0  0  0  0  0  0  0
    5.6238    4.1785    1.7098 Cl  0  0  0  0  0  0  0  0  0  0  0  0
    4.5742    2.2396    0.1011 C   0  0  0  0  0  0  0  0  0  0  0  0
    3.9204    1.0313   -0.1604 C   0  0  0  0  0  0  0  0  0  0  0  0
   -0.4596   -1.5686    0.6835 N   0  0  0  0  0  0  0  0  0  0  0  0
   -3.3590    3.5480   -3.1115 H   0  0  0  0  0  0  0  0  0  0  0  0
   -3.9597    4.2646   -1.5480 H   0  0  0  0  0  0  0  0  0  0  0  0
   -5.0181    4.2354   -3.0088 H   0  0  0  0  0  0  0  0  0  0  0  0
   -2.2448    2.6469   -1.0785 H   0  0  0  0  0  0  0  0  0  0  0  0
   -1.0099    0.8334   -0.0221 H   0  0  0  0  0  0  0  0  0  0  0  0
   -4.4143   -1.7799   -0.5529 H   0  0  0  0  0  0  0  0  0  0  0  0
   -5.6419    0.0482   -1.6135 H   0  0  0  0  0  0  0  0  0  0  0  0
   -3.2907   -3.4200    0.4351 H   0  0  0  0  0  0  0  0  0  0  0  0
    1.7571   -3.6957    2.0260 H   0  0  0  0  0  0  0  0  0  0  0  0
    2.0750   -2.5715   -0.8199 H   0  0  0  0  0  0  0  0  0  0  0  0
    2.0384   -0.8710   -1.3948 H   0  0  0  0  0  0  0  0  0  0  0  0
    3.6089   -1.7482   -1.1974 H   0  0  0  0  0  0  0  0  0  0  0  0
    3.3955    0.0319    3.0611 H   0  0  0  0  0  0  0  0  0  0  0  0
    4.8980    2.8625   -0.7232 H   0  0  0  0  0  0  0  0  0  0  0  0
    3.7524    0.7502   -1.1907 H   0  0  0  0  0  0  0  0  0  0  0  0
  1 26  1  0  0  0  0
  1 27  1  0  0  0  0
  1 28  1  0  0  0  0
  2  1  1  0  0  0  0
  3  2  1  0  0  0  0
  4  3  2  0  0  0  0
  4 29  1  0  0  0  0
  5  4  1  0  0  0  0
  5 30  1  0  0  0  0
  6  5  2  0  0  0  0
  7  6  1  0  0  0  0
  7 31  1  0  0  0  0
  8  7  2  0  0  0  0
  8  3  1  0  0  0  0
  8 32  1  0  0  0  0
  9  6  1  0  0  0  0
 10  9  2  0  0  0  0
 10 33  1  0  0  0  0
 11 10  1  0  0  0  0
 12 11  1  0  0  0  0
 13 12  1  0  0  0  0
 13 34  1  0  0  0  0
 14 13  1  0  0  0  0
 15 14  2  0  0  0  0
 16 15  1  0  0  0  0
 16 35  1  0  0  0  0
 16 36  1  0  0  0  0
 16 37  1  0  0  0  0
 17 15  1  0  0  0  0
 18 17  2  0  0  0  0
 18 38  1  0  0  0  0
 19 18  1  0  0  0  0
 20 19  1  0  0  0  0
 21 19  2  0  0  0  0
 22 21  1  0  0  0  0
 23 21  1  0  0  0  0
 23 39  1  0  0  0  0
 24 23  2  0  0  0  0
 24 17  1  0  0  0  0
 24 40  1  0  0  0  0
 25 12  2  0  0  0  0
 25  9  1  0  0  0  0
M  END
>  <MOL Chiral Flag>
0

>  <energy>
89.627459697565158

$$$$
> 167_AKC_j.ejmech.2020.112493
>163.sdf
 OpenBabel10052220123D

 45 47  0  0  0  0  0  0  0  0999 V2000
   -2.4063    0.3721    2.8108 C   0  0  0  0  0  0  0  0  0  0  0  0
   -2.8421    1.2060    1.8014 O   0  0  0  0  0  0  0  0  0  0  0  0
   -2.3547    1.2358    0.5324 C   0  0  0  0  0  0  0  0  0  0  0  0
   -2.9654    2.0905   -0.4089 C   0  0  0  0  0  0  0  0  0  0  0  0
   -2.4734    2.1767   -1.7428 C   0  0  0  0  0  0  0  0  0  0  0  0
   -2.9947    3.1538   -2.7425 C   0  0  0  0  0  0  0  0  0  0  0  0
   -3.8832    4.1262   -2.4598 C   0  0  0  0  0  0  0  0  0  0  0  0
   -4.2791    5.1269   -3.4748 C   0  0  0  0  0  0  0  0  0  0  0  0
   -3.7442    5.0992   -4.7155 O   0  0  0  0  0  0  0  0  0  0  0  0
   -5.0676    6.0095   -3.1729 O   0  0  0  0  0  0  0  0  0  0  0  0
   -1.4027    1.3478   -2.1327 C   0  0  0  0  0  0  0  0  0  0  0  0
   -0.8063    0.5233   -1.1812 C   0  0  0  0  0  0  0  0  0  0  0  0
   -1.2398    0.4933    0.1090 C   0  0  0  0  0  0  0  0  0  0  0  0
   -0.4149   -0.2483    0.8642 O   0  0  0  0  0  0  0  0  0  0  0  0
    0.7946   -0.3608    0.1900 C   0  0  2  0  0  0  0  0  0  0  0  0
    0.3709   -0.3830   -1.3088 C   0  0  2  0  0  0  0  0  0  0  0  0
    1.4152    0.0568   -2.2958 C   0  0  0  0  0  0  0  0  0  0  0  0
    1.9844    1.2751   -2.1871 O   0  0  0  0  0  0  0  0  0  0  0  0
    1.7401   -0.6902   -3.2069 O   0  0  0  0  0  0  0  0  0  0  0  0
    1.7635   -1.4003    0.7023 C   0  0  0  0  0  0  0  0  0  0  0  0
    1.4384   -2.2575    1.7668 C   0  0  0  0  0  0  0  0  0  0  0  0
    2.3914   -3.1495    2.2907 C   0  0  0  0  0  0  0  0  0  0  0  0
    2.0129   -3.9295    3.3428 O   0  0  0  0  0  0  0  0  0  0  0  0
    2.8074   -4.8078    4.0515 C   0  0  0  0  0  0  0  0  0  0  0  0
    3.6946   -3.1805    1.7219 C   0  0  0  0  0  0  0  0  0  0  0  0
    4.6491   -4.0058    2.1997 O   0  0  0  0  0  0  0  0  0  0  0  0
    4.0031   -2.3313    0.6525 C   0  0  0  0  0  0  0  0  0  0  0  0
    3.0512   -1.4508    0.1512 C   0  0  0  0  0  0  0  0  0  0  0  0
   -2.5389   -0.6906    2.5132 H   0  0  0  0  0  0  0  0  0  0  0  0
   -1.3443    0.5788    3.0568 H   0  0  0  0  0  0  0  0  0  0  0  0
   -3.0158    0.5585    3.7188 H   0  0  0  0  0  0  0  0  0  0  0  0
   -3.7940    2.6959   -0.0772 H   0  0  0  0  0  0  0  0  0  0  0  0
   -2.5765    3.1101   -3.7449 H   0  0  0  0  0  0  0  0  0  0  0  0
   -4.3048    4.2297   -1.4692 H   0  0  0  0  0  0  0  0  0  0  0  0
   -3.9700    5.7720   -5.3736 H   0  0  0  0  0  0  0  0  0  0  0  0
   -1.0065    1.3840   -3.1400 H   0  0  0  0  0  0  0  0  0  0  0  0
    1.3138    0.6157    0.3587 H   0  0  0  0  0  0  0  0  0  0  0  0
   -0.0135   -1.3992   -1.5574 H   0  0  0  0  0  0  0  0  0  0  0  0
    0.4523   -2.2191    2.2128 H   0  0  0  0  0  0  0  0  0  0  0  0
    2.2012   -5.2757    4.8533 H   0  0  0  0  0  0  0  0  0  0  0  0
    3.6503   -4.2639    4.5304 H   0  0  0  0  0  0  0  0  0  0  0  0
    3.1833   -5.6162    3.3894 H   0  0  0  0  0  0  0  0  0  0  0  0
    5.5451   -4.0200    1.8330 H   0  0  0  0  0  0  0  0  0  0  0  0
    4.9948   -2.3408    0.2174 H   0  0  0  0  0  0  0  0  0  0  0  0
    3.3311   -0.7867   -0.6544 H   0  0  0  0  0  0  0  0  0  0  0  0
  1 29  1  0  0  0  0
  1 30  1  0  0  0  0
  1 31  1  0  0  0  0
  2  1  1  0  0  0  0
  3  2  1  0  0  0  0
  4  3  2  0  0  0  0
  4 32  1  0  0  0  0
  5  4  1  0  0  0  0
  6  5  1  0  0  0  0
  6 33  1  0  0  0  0
  7  6  2  0  0  0  0
  7 34  1  0  0  0  0
  8  7  1  0  0  0  0
  9  8  1  0  0  0  0
  9 35  1  0  0  0  0
 10  8  2  0  0  0  0
 11  5  2  0  0  0  0
 11 36  1  0  0  0  0
 12 11  1  0  0  0  0
 13 12  2  0  0  0  0
 13  3  1  0  0  0  0
 14 13  1  0  0  0  0
 15 14  1  0  0  0  0
 15 37  1  1  0  0  0
 16 15  1  0  0  0  0
 16 12  1  0  0  0  0
 16 38  1  6  0  0  0
 17 16  1  0  0  0  0
 18 17  1  0  0  0  0
 19 17  2  0  0  0  0
 20 15  1  0  0  0  0
 21 20  2  0  0  0  0
 21 39  1  0  0  0  0
 22 21  1  0  0  0  0
 23 22  1  0  0  0  0
 24 23  1  0  0  0  0
 24 40  1  0  0  0  0
 24 41  1  0  0  0  0
 24 42  1  0  0  0  0
 25 22  2  0  0  0  0
 26 25  1  0  0  0  0
 26 43  1  0  0  0  0
 27 25  1  0  0  0  0
 27 44  1  0  0  0  0
 28 27  2  0  0  0  0
 28 20  1  0  0  0  0
 28 45  1  0  0  0  0
M  END
>  <MOL Chiral Flag>
0

>  <energy>
58.402953830600225

$$$$
> 168_AKC_s00436-020-06832-y
>164.sdf
 OpenBabel10052220123D

 55 57  0  0  0  0  0  0  0  0999 V2000
    4.7376    1.8679    1.5936 O   0  0  0  0  0  0  0  0  0  0  0  0
    3.9143    2.2121    0.5090 C   0  0  2  0  0  0  0  0  0  0  0  0
    2.5141    2.6126    1.0567 C   0  0  0  0  0  0  0  0  0  0  0  0
    1.5565    3.3244    0.0634 C   0  0  0  0  0  0  0  0  0  0  0  0
    0.8944    2.4311   -0.9091 N   0  3  0  0  0  0  0  0  0  0  0  0
   -0.4626    1.9620   -0.5210 C   0  0  0  0  0  0  0  0  0  0  0  0
   -0.9505    0.9039   -1.5459 C   0  0  0  0  0  0  0  0  0  0  0  0
   -2.3666    0.4174   -1.2051 C   0  0  0  0  0  0  0  0  0  0  0  0
   -2.4058   -0.0319    0.1747 N   0  0  0  0  0  0  0  0  0  0  0  0
   -1.9924    0.9089    1.1978 C   0  0  0  0  0  0  0  0  0  0  0  0
   -0.5510    1.3581    0.9087 C   0  0  0  0  0  0  0  0  0  0  0  0
   -3.0918   -1.2292    0.5381 C   0  0  0  0  0  0  0  0  0  0  0  0
   -2.4650   -2.5021    0.5062 C   0  0  0  0  0  0  0  0  0  0  0  0
   -3.2044   -3.6376    0.9007 C   0  0  0  0  0  0  0  0  0  0  0  0
   -4.5454   -3.5258    1.3149 C   0  0  0  0  0  0  0  0  0  0  0  0
   -5.1460   -2.2575    1.3369 C   0  0  0  0  0  0  0  0  0  0  0  0
   -4.4250   -1.1267    0.9588 C   0  0  0  0  0  0  0  0  0  0  0  0
   -5.2830   -4.6863    1.7110 N   0  0  0  0  0  0  0  0  0  0  0  0
   -6.4227   -4.5873    2.0581 O   0  0  0  0  0  0  0  0  0  0  0  0
   -4.7678   -5.7627    1.7024 O   0  0  0  0  0  0  0  0  0  0  0  0
   -1.0208   -2.6598    0.0802 C   0  0  0  0  0  0  0  0  0  0  0  0
   -0.5944   -3.9741    0.1678 F   0  0  0  0  0  0  0  0  0  0  0  0
   -0.2089   -1.8994    0.8974 F   0  0  0  0  0  0  0  0  0  0  0  0
   -0.8729   -2.2566   -1.2305 F   0  0  0  0  0  0  0  0  0  0  0  0
    4.0113    1.0772   -0.4972 C   0  0  0  0  0  0  0  0  0  0  0  0
    5.0324    1.1135   -1.4678 C   0  0  0  0  0  0  0  0  0  0  0  0
    5.1841    0.0660   -2.3808 C   0  0  0  0  0  0  0  0  0  0  0  0
    4.3181   -1.0279   -2.3412 C   0  0  0  0  0  0  0  0  0  0  0  0
    4.4632   -2.0392   -3.2330 F   0  0  0  0  0  0  0  0  0  0  0  0
    3.3097   -1.0850   -1.3755 C   0  0  0  0  0  0  0  0  0  0  0  0
    3.1653   -0.0488   -0.4453 C   0  0  0  0  0  0  0  0  0  0  0  0
    5.1135    2.7130    1.9577 H   0  0  0  0  0  0  0  0  0  0  0  0
    4.3393    3.1213    0.0166 H   0  0  0  0  0  0  0  0  0  0  0  0
    2.7281    3.3806    1.8325 H   0  0  0  0  0  0  0  0  0  0  0  0
    2.0345    1.7695    1.5888 H   0  0  0  0  0  0  0  0  0  0  0  0
    2.1536    4.0978   -0.4688 H   0  0  0  0  0  0  0  0  0  0  0  0
    0.7810    3.8868    0.6305 H   0  0  0  0  0  0  0  0  0  0  0  0
    1.5121    1.6412   -1.1706 H   0  0  0  0  0  0  0  0  0  0  0  0
    0.7608    2.9849   -1.7882 H   0  0  0  0  0  0  0  0  0  0  0  0
   -1.1569    2.8345   -0.5523 H   0  0  0  0  0  0  0  0  0  0  0  0
   -0.2486    0.0455   -1.5269 H   0  0  0  0  0  0  0  0  0  0  0  0
   -0.9472    1.3287   -2.5727 H   0  0  0  0  0  0  0  0  0  0  0  0
   -2.6993   -0.3793   -1.9056 H   0  0  0  0  0  0  0  0  0  0  0  0
   -3.0599    1.2803   -1.3153 H   0  0  0  0  0  0  0  0  0  0  0  0
   -2.0689    0.4608    2.2132 H   0  0  0  0  0  0  0  0  0  0  0  0
   -2.6583    1.7996    1.1634 H   0  0  0  0  0  0  0  0  0  0  0  0
    0.1327    0.4918    0.9922 H   0  0  0  0  0  0  0  0  0  0  0  0
   -0.2740    2.1061    1.6795 H   0  0  0  0  0  0  0  0  0  0  0  0
   -2.7393   -4.6141    0.8885 H   0  0  0  0  0  0  0  0  0  0  0  0
   -6.1758   -2.1412    1.6508 H   0  0  0  0  0  0  0  0  0  0  0  0
   -4.9078   -0.1575    0.9864 H   0  0  0  0  0  0  0  0  0  0  0  0
    5.7206    1.9491   -1.5079 H   0  0  0  0  0  0  0  0  0  0  0  0
    5.9770    0.1026   -3.1177 H   0  0  0  0  0  0  0  0  0  0  0  0
    2.6420   -1.9363   -1.3432 H   0  0  0  0  0  0  0  0  0  0  0  0
    2.3868   -0.1209    0.2994 H   0  0  0  0  0  0  0  0  0  0  0  0
  1 32  1  0  0  0  0
  2  1  1  0  0  0  0
  2 33  1  6  0  0  0
  3  2  1  0  0  0  0
  3 34  1  0  0  0  0
  3 35  1  0  0  0  0
  4  3  1  0  0  0  0
  4 36  1  0  0  0  0
  4 37  1  0  0  0  0
  5  4  1  0  0  0  0
  5 38  1  0  0  0  0
  5 39  1  0  0  0  0
  6  5  1  0  0  0  0
  6 40  1  0  0  0  0
  7  6  1  0  0  0  0
  7 41  1  0  0  0  0
  7 42  1  0  0  0  0
  8  7  1  0  0  0  0
  8 43  1  0  0  0  0
  8 44  1  0  0  0  0
  9  8  1  0  0  0  0
 10  9  1  0  0  0  0
 10 45  1  0  0  0  0
 10 46  1  0  0  0  0
 11 10  1  0  0  0  0
 11  6  1  0  0  0  0
 11 47  1  0  0  0  0
 11 48  1  0  0  0  0
 12  9  1  0  0  0  0
 13 12  2  0  0  0  0
 14 13  1  0  0  0  0
 14 49  1  0  0  0  0
 15 14  2  0  0  0  0
 16 15  1  0  0  0  0
 16 50  1  0  0  0  0
 17 16  2  0  0  0  0
 17 12  1  0  0  0  0
 17 51  1  0  0  0  0
 18 15  1  0  0  0  0
 19 18  2  0  0  0  0
 20 18  2  0  0  0  0
 21 13  1  0  0  0  0
 22 21  1  0  0  0  0
 23 21  1  0  0  0  0
 24 21  1  0  0  0  0
 25  2  1  0  0  0  0
 26 25  2  0  0  0  0
 26 52  1  0  0  0  0
 27 26  1  0  0  0  0
 27 53  1  0  0  0  0
 28 27  2  0  0  0  0
 29 28  1  0  0  0  0
 30 28  1  0  0  0  0
 30 54  1  0  0  0  0
 31 30  2  0  0  0  0
 31 25  1  0  0  0  0
 31 55  1  0  0  0  0
M  CHG  1   5   1
M  END
>  <MOL Chiral Flag>
0

>  <energy>
99.641064695479713

$$$$
> 169_AKC_acs.jmedchem.0c00705
>165.sdf
 OpenBabel10052220133D

 55 58  0  0  0  0  0  0  0  0999 V2000
   -4.8827    4.8822    2.9045 C   0  0  0  0  0  0  0  0  0  0  0  0
   -3.6165    4.4274    3.3290 O   0  0  0  0  0  0  0  0  0  0  0  0
   -3.1834    3.3198    2.5573 C   0  0  1  0  0  0  0  0  0  0  0  0
   -2.4835    3.7975    1.2643 C   0  0  0  0  0  0  0  0  0  0  0  0
   -1.9237    2.6070    0.4695 C   0  0  0  0  0  0  0  0  0  0  0  0
   -0.9401    1.8040    1.3463 C   0  0  1  0  0  0  0  0  0  0  0  0
   -1.6357    1.3123    2.6304 C   0  0  0  0  0  0  0  0  0  0  0  0
   -2.1939    2.5087    3.4134 C   0  0  0  0  0  0  0  0  0  0  0  0
   -0.3086    0.7059    0.6215 N   0  0  0  0  0  0  0  0  0  0  0  0
   -0.9807   -0.3471    0.0580 C   0  0  0  0  0  0  0  0  0  0  0  0
   -2.1968   -0.3959    0.1255 O   0  0  0  0  0  0  0  0  0  0  0  0
   -0.2055   -1.4438   -0.6154 C   0  0  0  0  0  0  0  0  0  0  0  0
   -0.7840   -2.5230   -1.3403 C   0  0  0  0  0  0  0  0  0  0  0  0
   -2.1171   -2.6631   -1.5373 O   0  0  0  0  0  0  0  0  0  0  0  0
    0.0623   -3.4876   -1.9082 C   0  0  0  0  0  0  0  0  0  0  0  0
    1.4697   -3.4044   -1.7527 C   0  0  0  0  0  0  0  0  0  0  0  0
    2.2634   -4.3749   -2.4048 C   0  0  0  0  0  0  0  0  0  0  0  0
    1.6637   -5.3964   -3.1391 C   0  0  0  0  0  0  0  0  0  0  0  0
    0.2778   -5.4530   -3.2344 C   0  0  0  0  0  0  0  0  0  0  0  0
   -0.4837   -4.5063   -2.6310 N   0  0  0  0  0  0  0  0  0  0  0  0
    2.0053   -2.3284   -0.9916 C   0  0  0  0  0  0  0  0  0  0  0  0
    1.1463   -1.4044   -0.4886 N   0  0  0  0  0  0  0  0  0  0  0  0
    3.4577   -2.1470   -0.6570 C   0  0  0  0  0  0  0  0  0  0  0  0
    4.0096   -0.8408   -0.5821 C   0  0  0  0  0  0  0  0  0  0  0  0
    3.2230    0.2314   -0.8783 O   0  0  0  0  0  0  0  0  0  0  0  0
    3.6221    1.5521   -0.8615 C   0  0  0  0  0  0  0  0  0  0  0  0
    5.3655   -0.6783   -0.2220 C   0  0  0  0  0  0  0  0  0  0  0  0
    6.1567   -1.7867    0.0744 C   0  0  0  0  0  0  0  0  0  0  0  0
    5.6133   -3.0667    0.0243 C   0  0  0  0  0  0  0  0  0  0  0  0
    4.2772   -3.2497   -0.3326 C   0  0  0  0  0  0  0  0  0  0  0  0
   -4.8196    5.3764    1.9123 H   0  0  0  0  0  0  0  0  0  0  0  0
   -5.2327    5.6482    3.6266 H   0  0  0  0  0  0  0  0  0  0  0  0
   -5.6446    4.0720    2.9150 H   0  0  0  0  0  0  0  0  0  0  0  0
   -4.0254    2.6320    2.3011 H   0  0  0  0  0  0  0  0  0  0  0  0
   -1.6505    4.4854    1.5291 H   0  0  0  0  0  0  0  0  0  0  0  0
   -3.1969    4.3523    0.6197 H   0  0  0  0  0  0  0  0  0  0  0  0
   -1.4011    2.9842   -0.4357 H   0  0  0  0  0  0  0  0  0  0  0  0
   -2.7730    1.9723    0.1412 H   0  0  0  0  0  0  0  0  0  0  0  0
   -0.1263    2.4999    1.6566 H   0  0  0  0  0  0  0  0  0  0  0  0
   -0.9037    0.7704    3.2679 H   0  0  0  0  0  0  0  0  0  0  0  0
   -2.4675    0.6178    2.3887 H   0  0  0  0  0  0  0  0  0  0  0  0
   -2.7006    2.1441    4.3331 H   0  0  0  0  0  0  0  0  0  0  0  0
   -1.3503    3.1655    3.7237 H   0  0  0  0  0  0  0  0  0  0  0  0
    0.7184    0.7406    0.5436 H   0  0  0  0  0  0  0  0  0  0  0  0
   -2.8000   -2.0528   -1.2473 H   0  0  0  0  0  0  0  0  0  0  0  0
    3.3386   -4.3486   -2.3851 H   0  0  0  0  0  0  0  0  0  0  0  0
    2.2737   -6.1387   -3.6380 H   0  0  0  0  0  0  0  0  0  0  0  0
   -0.1946   -6.2425   -3.8034 H   0  0  0  0  0  0  0  0  0  0  0  0
    2.7624    2.1916   -1.1489 H   0  0  0  0  0  0  0  0  0  0  0  0
    3.9509    1.8422    0.1590 H   0  0  0  0  0  0  0  0  0  0  0  0
    4.4423    1.7158   -1.5927 H   0  0  0  0  0  0  0  0  0  0  0  0
    5.8139    0.3040   -0.1661 H   0  0  0  0  0  0  0  0  0  0  0  0
    7.1932   -1.6510    0.3552 H   0  0  0  0  0  0  0  0  0  0  0  0
    6.2266   -3.9225    0.2753 H   0  0  0  0  0  0  0  0  0  0  0  0
    3.8807   -4.2546   -0.3157 H   0  0  0  0  0  0  0  0  0  0  0  0
  1 31  1  0  0  0  0
  1 32  1  0  0  0  0
  1 33  1  0  0  0  0
  2  1  1  0  0  0  0
  3  2  1  0  0  0  0
  3 34  1  6  0  0  0
  4  3  1  0  0  0  0
  4 35  1  0  0  0  0
  4 36  1  0  0  0  0
  5  4  1  0  0  0  0
  5 37  1  0  0  0  0
  5 38  1  0  0  0  0
  6  5  1  0  0  0  0
  6 39  1  1  0  0  0
  7  6  1  0  0  0  0
  7 40  1  0  0  0  0
  7 41  1  0  0  0  0
  8  7  1  0  0  0  0
  8  3  1  0  0  0  0
  8 42  1  0  0  0  0
  8 43  1  0  0  0  0
  9  6  1  0  0  0  0
  9 44  1  0  0  0  0
 10  9  1  0  0  0  0
 11 10  2  0  0  0  0
 12 10  1  0  0  0  0
 13 12  2  0  0  0  0
 14 13  1  0  0  0  0
 14 45  1  0  0  0  0
 15 13  1  0  0  0  0
 16 15  2  0  0  0  0
 17 16  1  0  0  0  0
 17 46  1  0  0  0  0
 18 17  2  0  0  0  0
 18 47  1  0  0  0  0
 19 18  1  0  0  0  0
 19 48  1  0  0  0  0
 20 19  2  0  0  0  0
 20 15  1  0  0  0  0
 21 16  1  0  0  0  0
 22 21  2  0  0  0  0
 22 12  1  0  0  0  0
 23 21  1  0  0  0  0
 24 23  2  0  0  0  0
 25 24  1  0  0  0  0
 26 25  1  0  0  0  0
 26 49  1  0  0  0  0
 26 50  1  0  0  0  0
 26 51  1  0  0  0  0
 27 24  1  0  0  0  0
 27 52  1  0  0  0  0
 28 27  2  0  0  0  0
 28 53  1  0  0  0  0
 29 28  1  0  0  0  0
 29 54  1  0  0  0  0
 30 29  2  0  0  0  0
 30 23  1  0  0  0  0
 30 55  1  0  0  0  0
M  END
>  <MOL Chiral Flag>
0

>  <energy>
130.74175006921914

$$$$
> 170_AKC_ijms21186839
>166.sdf
 OpenBabel10052220143D

 47 50  0  0  0  0  0  0  0  0999 V2000
    4.2400   -0.8989    2.3087 C   0  0  0  0  0  0  0  0  0  0  0  0
    4.6097   -1.8609    1.3848 O   0  0  0  0  0  0  0  0  0  0  0  0
    5.5254   -2.8355    1.6484 C   0  0  0  0  0  0  0  0  0  0  0  0
    5.6484   -3.4231    2.9295 C   0  0  0  0  0  0  0  0  0  0  0  0
    6.6131   -4.4055    3.1661 C   0  0  0  0  0  0  0  0  0  0  0  0
    7.4676   -4.8096    2.1402 C   0  0  0  0  0  0  0  0  0  0  0  0
    7.3479   -4.2439    0.8682 C   0  0  0  0  0  0  0  0  0  0  0  0
    6.3746   -3.2680    0.6200 C   0  0  0  0  0  0  0  0  0  0  0  0
    3.0723   -0.0935    1.8398 C   0  0  0  0  0  0  0  0  0  0  0  0
    2.9352    0.7005    0.7139 C   0  0  0  0  0  0  0  0  0  0  0  0
    1.6801    1.2046    0.7509 N   0  0  0  0  0  0  0  0  0  0  0  0
    1.1077    0.7640    1.8619 N   0  0  0  0  0  0  0  0  0  0  0  0
    1.9235   -0.0277    2.5311 N   0  0  0  0  0  0  0  0  0  0  0  0
    1.0358    2.1054   -0.1934 C   0  0  0  0  0  0  0  0  0  0  0  0
   -0.3956    2.1914   -0.3210 C   0  0  0  0  0  0  0  0  0  0  0  0
   -1.3044    1.2639    0.4185 C   0  0  0  0  0  0  0  0  0  0  0  0
   -2.5903    1.3610    0.4173 N   0  0  0  0  0  0  0  0  0  0  0  0
   -3.3235    0.4498    1.1537 N   0  0  0  0  0  0  0  0  0  0  0  0
   -4.7426    0.4289    1.1715 C   0  0  0  0  0  0  0  0  0  0  0  0
   -5.3900   -0.4952    2.0093 C   0  0  0  0  0  0  0  0  0  0  0  0
   -6.7818   -0.5552    2.0581 C   0  0  0  0  0  0  0  0  0  0  0  0
   -7.5439    0.3054    1.2674 C   0  0  0  0  0  0  0  0  0  0  0  0
   -6.9116    1.2295    0.4274 C   0  0  0  0  0  0  0  0  0  0  0  0
   -5.5121    1.2962    0.3772 C   0  0  0  0  0  0  0  0  0  0  0  0
   -0.9495    3.1373   -1.2061 C   0  0  0  0  0  0  0  0  0  0  0  0
   -0.1261    3.9702   -1.9655 C   0  0  0  0  0  0  0  0  0  0  0  0
    1.2592    3.8712   -1.8631 C   0  0  0  0  0  0  0  0  0  0  0  0
    1.8371    2.9481   -0.9903 C   0  0  0  0  0  0  0  0  0  0  0  0
    3.9225   -1.3679    3.2607 H   0  0  0  0  0  0  0  0  0  0  0  0
    5.1035   -0.2302    2.5048 H   0  0  0  0  0  0  0  0  0  0  0  0
    5.0024   -3.1399    3.7460 H   0  0  0  0  0  0  0  0  0  0  0  0
    6.6993   -4.8509    4.1494 H   0  0  0  0  0  0  0  0  0  0  0  0
    8.2212   -5.5629    2.3316 H   0  0  0  0  0  0  0  0  0  0  0  0
    8.0132   -4.5592    0.0753 H   0  0  0  0  0  0  0  0  0  0  0  0
    6.2945   -2.8323   -0.3675 H   0  0  0  0  0  0  0  0  0  0  0  0
    3.6699    0.8757   -0.0613 H   0  0  0  0  0  0  0  0  0  0  0  0
   -0.8865    0.4342    0.9505 H   0  0  0  0  0  0  0  0  0  0  0  0
   -2.8280   -0.2399    1.7425 H   0  0  0  0  0  0  0  0  0  0  0  0
   -4.8087   -1.1692    2.6275 H   0  0  0  0  0  0  0  0  0  0  0  0
   -7.2670   -1.2709    2.7097 H   0  0  0  0  0  0  0  0  0  0  0  0
   -8.6240    0.2546    1.3064 H   0  0  0  0  0  0  0  0  0  0  0  0
   -7.5078    1.8927   -0.1847 H   0  0  0  0  0  0  0  0  0  0  0  0
   -5.0367    2.0141   -0.2781 H   0  0  0  0  0  0  0  0  0  0  0  0
   -2.0228    3.2210   -1.3224 H   0  0  0  0  0  0  0  0  0  0  0  0
   -0.5648    4.6905   -2.6450 H   0  0  0  0  0  0  0  0  0  0  0  0
    1.8906    4.5202   -2.4575 H   0  0  0  0  0  0  0  0  0  0  0  0
    2.9155    2.9119   -0.9163 H   0  0  0  0  0  0  0  0  0  0  0  0
  1 29  1  0  0  0  0
  1 30  1  0  0  0  0
  2  1  1  0  0  0  0
  3  2  1  0  0  0  0
  4  3  2  0  0  0  0
  4 31  1  0  0  0  0
  5  4  1  0  0  0  0
  5 32  1  0  0  0  0
  6  5  2  0  0  0  0
  6 33  1  0  0  0  0
  7  6  1  0  0  0  0
  7 34  1  0  0  0  0
  8  7  2  0  0  0  0
  8  3  1  0  0  0  0
  8 35  1  0  0  0  0
  9  1  1  0  0  0  0
 10  9  2  0  0  0  0
 10 36  1  0  0  0  0
 11 10  1  0  0  0  0
 12 11  1  0  0  0  0
 13 12  2  0  0  0  0
 13  9  1  0  0  0  0
 14 11  1  0  0  0  0
 15 14  2  0  0  0  0
 16 15  1  0  0  0  0
 16 37  1  0  0  0  0
 17 16  2  0  0  0  0
 18 17  1  0  0  0  0
 18 38  1  0  0  0  0
 19 18  1  0  0  0  0
 20 19  2  0  0  0  0
 20 39  1  0  0  0  0
 21 20  1  0  0  0  0
 21 40  1  0  0  0  0
 22 21  2  0  0  0  0
 22 41  1  0  0  0  0
 23 22  1  0  0  0  0
 23 42  1  0  0  0  0
 24 23  2  0  0  0  0
 24 19  1  0  0  0  0
 24 43  1  0  0  0  0
 25 15  1  0  0  0  0
 25 44  1  0  0  0  0
 26 25  2  0  0  0  0
 26 45  1  0  0  0  0
 27 26  1  0  0  0  0
 27 46  1  0  0  0  0
 28 27  2  0  0  0  0
 28 14  1  0  0  0  0
 28 47  1  0  0  0  0
M  END
>  <MOL Chiral Flag>
0

>  <energy>
116.03481912924651

$$$$
> 171_AKC_D0MD00083C
>167.sdf
 OpenBabel10052220143D

 34 35  0  0  0  0  0  0  0  0999 V2000
    4.5876    1.3370    1.0187 C   0  0  0  0  0  0  0  0  0  0  0  0
    4.7552    0.2195    1.9564 N   0  0  0  0  0  0  0  0  0  0  0  0
    3.7472   -0.5289    2.4854 C   0  0  0  0  0  0  0  0  0  0  0  0
    2.2687   -0.4123    2.2149 C   0  0  0  0  0  0  0  0  0  0  0  0
    1.9335    0.4397    1.1784 O   0  0  0  0  0  0  0  0  0  0  0  0
    0.6600    0.5797    0.7115 C   0  0  0  0  0  0  0  0  0  0  0  0
    0.4552    1.1472   -0.5551 C   0  0  0  0  0  0  0  0  0  0  0  0
   -0.8372    1.2410   -1.0895 C   0  0  0  0  0  0  0  0  0  0  0  0
   -1.9378    0.7805   -0.3533 C   0  0  0  0  0  0  0  0  0  0  0  0
   -1.7433    0.2404    0.9188 C   0  0  0  0  0  0  0  0  0  0  0  0
   -0.4590    0.1356    1.4505 C   0  0  0  0  0  0  0  0  0  0  0  0
   -3.5966    0.8234   -1.0347 S   0  0  0  0  0  0  0  0  0  0  0  0
   -4.4980   -0.6751   -1.5228 C   0  0  0  0  0  0  0  0  0  0  0  0
   -4.4781    1.5969   -0.0424 O   0  0  0  0  0  0  0  0  0  0  0  0
   -3.6252    1.8141   -2.2087 O   0  0  0  0  0  0  0  0  0  0  0  0
    4.2082   -1.4679    3.3399 N   0  0  0  0  0  0  0  0  0  0  0  0
    5.5430   -1.3267    3.3494 C   0  0  0  0  0  0  0  0  0  0  0  0
    5.8896   -0.2926    2.5075 C   0  0  0  0  0  0  0  0  0  0  0  0
    7.2372    0.1319    2.2878 N   0  3  0  0  0  0  0  0  0  0  0  0
    7.5229    1.1280    1.4820 O   0  5  0  0  0  0  0  0  0  0  0  0
    8.1292   -0.4311    2.8473 O   0  0  0  0  0  0  0  0  0  0  0  0
    5.5266    1.8323    0.7389 H   0  0  0  0  0  0  0  0  0  0  0  0
    3.9443    2.1137    1.4842 H   0  0  0  0  0  0  0  0  0  0  0  0
    4.1193    0.9768    0.0802 H   0  0  0  0  0  0  0  0  0  0  0  0
    1.7700   -0.1044    3.1580 H   0  0  0  0  0  0  0  0  0  0  0  0
    1.9220   -1.4310    1.9329 H   0  0  0  0  0  0  0  0  0  0  0  0
    1.3010    1.4886   -1.1389 H   0  0  0  0  0  0  0  0  0  0  0  0
   -0.9772    1.6551   -2.0798 H   0  0  0  0  0  0  0  0  0  0  0  0
   -2.5892   -0.1176    1.4921 H   0  0  0  0  0  0  0  0  0  0  0  0
   -0.3464   -0.3032    2.4309 H   0  0  0  0  0  0  0  0  0  0  0  0
   -3.8951   -1.2455   -2.2593 H   0  0  0  0  0  0  0  0  0  0  0  0
   -5.4679   -0.3979   -1.9836 H   0  0  0  0  0  0  0  0  0  0  0  0
   -4.6875   -1.3006   -0.6256 H   0  0  0  0  0  0  0  0  0  0  0  0
    6.2129   -1.9412    3.9361 H   0  0  0  0  0  0  0  0  0  0  0  0
  1 22  1  0  0  0  0
  1 23  1  0  0  0  0
  1 24  1  0  0  0  0
  2  1  1  0  0  0  0
  3  2  1  0  0  0  0
  4  3  1  0  0  0  0
  4 25  1  0  0  0  0
  4 26  1  0  0  0  0
  5  4  1  0  0  0  0
  6  5  1  0  0  0  0
  7  6  2  0  0  0  0
  7 27  1  0  0  0  0
  8  7  1  0  0  0  0
  8 28  1  0  0  0  0
  9  8  2  0  0  0  0
 10  9  1  0  0  0  0
 10 29  1  0  0  0  0
 11 10  2  0  0  0  0
 11  6  1  0  0  0  0
 11 30  1  0  0  0  0
 12  9  1  0  0  0  0
 13 12  1  0  0  0  0
 13 31  1  0  0  0  0
 13 32  1  0  0  0  0
 13 33  1  0  0  0  0
 14 12  2  0  0  0  0
 15 12  2  0  0  0  0
 16  3  2  0  0  0  0
 17 16  1  0  0  0  0
 17 34  1  0  0  0  0
 18 17  2  0  0  0  0
 18  2  1  0  0  0  0
 19 18  1  0  0  0  0
 20 19  1  0  0  0  0
 21 19  2  0  0  0  0
M  CHG  2  19   1  20  -1
M  END
>  <MOL Chiral Flag>
0

>  <energy>
64.537074012521686

$$$$
> 172_AKC_D0MD00083C
>168.sdf
 OpenBabel10052220153D

 22 23  0  0  0  0  0  0  0  0999 V2000
   -3.3589   -0.8757   -0.1324 C   0  0  0  0  0  0  0  0  0  0  0  0
   -2.3576    0.1619    0.3685 C   0  0  0  0  0  0  0  0  0  0  0  0
   -1.2038    0.3668   -0.6238 C   0  0  1  0  0  0  0  0  0  0  0  0
   -0.1749    1.4545   -0.1027 C   0  0  0  0  0  0  0  0  0  0  0  0
    1.0209    0.6568   -0.0113 N   0  0  0  0  0  0  0  0  0  0  0  0
    2.3122    0.7290    0.3266 C   0  0  0  0  0  0  0  0  0  0  0  0
    2.8367   -0.5453    0.1295 C   0  0  0  0  0  0  0  0  0  0  0  0
    1.8623   -1.3765   -0.3271 N   0  0  0  0  0  0  0  0  0  0  0  0
    0.7881   -0.5668   -0.3848 C   0  0  0  0  0  0  0  0  0  0  0  0
   -0.4593   -0.8114   -0.7569 O   0  0  0  0  0  0  0  0  0  0  0  0
    4.1768   -0.9445    0.3629 N   0  0  0  0  0  0  0  0  0  0  0  0
    4.9764   -0.1573    0.7707 O   0  0  0  0  0  0  0  0  0  0  0  0
    4.5096   -2.0717    0.1558 O   0  0  0  0  0  0  0  0  0  0  0  0
   -2.8670   -1.8622   -0.2661 H   0  0  0  0  0  0  0  0  0  0  0  0
   -3.7962   -0.5505   -1.1004 H   0  0  0  0  0  0  0  0  0  0  0  0
   -4.1791   -0.9863    0.6080 H   0  0  0  0  0  0  0  0  0  0  0  0
   -2.8913    1.1265    0.5105 H   0  0  0  0  0  0  0  0  0  0  0  0
   -1.9519   -0.1667    1.3507 H   0  0  0  0  0  0  0  0  0  0  0  0
   -1.6004    0.6728   -1.6171 H   0  0  0  0  0  0  0  0  0  0  0  0
   -0.0257    2.2707   -0.8417 H   0  0  0  0  0  0  0  0  0  0  0  0
   -0.4356    1.8591    0.8991 H   0  0  0  0  0  0  0  0  0  0  0  0
    2.8187    1.6167    0.6818 H   0  0  0  0  0  0  0  0  0  0  0  0
  1 14  1  0  0  0  0
  1 15  1  0  0  0  0
  1 16  1  0  0  0  0
  2  1  1  0  0  0  0
  2 17  1  0  0  0  0
  2 18  1  0  0  0  0
  3  2  1  0  0  0  0
  3 19  1  6  0  0  0
  4  3  1  0  0  0  0
  4 20  1  0  0  0  0
  4 21  1  0  0  0  0
  5  4  1  0  0  0  0
  6  5  1  0  0  0  0
  6 22  1  0  0  0  0
  7  6  2  0  0  0  0
  8  7  1  0  0  0  0
  9  8  2  0  0  0  0
  9  5  1  0  0  0  0
 10  9  1  0  0  0  0
 10  3  1  0  0  0  0
 11  7  1  0  0  0  0
 12 11  2  0  0  0  0
 13 11  2  0  0  0  0
M  END
>  <MOL Chiral Flag>
0

>  <energy>
75.601864387494729

$$$$
> 173_AKC_D0MD00083C
>168_2.sdf
 OpenBabel10102213163D

 22 23  0  0  0  0  0  0  0  0999 V2000
   -3.3586   -0.8600   -0.2853 C   0  0  0  0  0  0  0  0  0  0  0  0
   -2.4443    0.3488   -0.0905 C   0  0  0  0  0  0  0  0  0  0  0  0
   -1.1166   -0.0639    0.5524 C   0  0  2  0  0  0  0  0  0  0  0  0
   -0.1188    1.1371    0.7982 C   0  0  0  0  0  0  0  0  0  0  0  0
    1.1217    0.5027    0.4266 N   0  0  0  0  0  0  0  0  0  0  0  0
    2.4463    0.6871    0.4163 C   0  0  0  0  0  0  0  0  0  0  0  0
    2.9933   -0.4550   -0.1640 C   0  0  0  0  0  0  0  0  0  0  0  0
    1.9980   -1.3101   -0.5205 N   0  0  0  0  0  0  0  0  0  0  0  0
    0.8905   -0.6531   -0.1282 C   0  0  0  0  0  0  0  0  0  0  0  0
   -0.3874   -1.0045   -0.1795 O   0  0  0  0  0  0  0  0  0  0  0  0
    4.3734   -0.7242   -0.3464 N   0  0  0  0  0  0  0  0  0  0  0  0
    5.1934    0.0572    0.0319 O   0  0  0  0  0  0  0  0  0  0  0  0
    4.7215   -1.7539   -0.8388 O   0  0  0  0  0  0  0  0  0  0  0  0
   -3.5343   -1.3740    0.6846 H   0  0  0  0  0  0  0  0  0  0  0  0
   -2.9011   -1.5785   -0.9979 H   0  0  0  0  0  0  0  0  0  0  0  0
   -4.3376   -0.5304   -0.6916 H   0  0  0  0  0  0  0  0  0  0  0  0
   -2.2698    0.8420   -1.0704 H   0  0  0  0  0  0  0  0  0  0  0  0
   -2.9517    1.0707    0.5867 H   0  0  0  0  0  0  0  0  0  0  0  0
   -1.3262   -0.5449    1.5340 H   0  0  0  0  0  0  0  0  0  0  0  0
   -0.2750    1.9884    0.0990 H   0  0  0  0  0  0  0  0  0  0  0  0
   -0.1428    1.4703    1.8567 H   0  0  0  0  0  0  0  0  0  0  0  0
    2.9621    1.5553    0.8052 H   0  0  0  0  0  0  0  0  0  0  0  0
  1 14  1  0  0  0  0
  1 15  1  0  0  0  0
  1 16  1  0  0  0  0
  2  1  1  0  0  0  0
  2 17  1  0  0  0  0
  2 18  1  0  0  0  0
  3  2  1  0  0  0  0
  3 19  1  1  0  0  0
  4  3  1  0  0  0  0
  4 20  1  0  0  0  0
  4 21  1  0  0  0  0
  5  4  1  0  0  0  0
  6  5  1  0  0  0  0
  6 22  1  0  0  0  0
  7  6  2  0  0  0  0
  8  7  1  0  0  0  0
  9  8  2  0  0  0  0
  9  5  1  0  0  0  0
 10  9  1  0  0  0  0
 10  3  1  0  0  0  0
 11  7  1  0  0  0  0
 12 11  2  0  0  0  0
 13 11  2  0  0  0  0
M  END
>  <MOL Chiral Flag>
0

>  <energy>
75.601864387494729

$$$$
> 174_AKC_D0MD00083C
>169.sdf
 OpenBabel10052220153D

 39 41  0  0  0  0  0  0  0  0999 V2000
    3.0008    3.0610    6.9068 C   0  0  0  0  0  0  0  0  0  0  0  0
    2.9116    3.6382    5.6534 O   0  0  0  0  0  0  0  0  0  0  0  0
    2.1978    3.2033    4.5766 C   0  0  0  0  0  0  0  0  0  0  0  0
    1.8863    4.1450    3.5994 C   0  0  0  0  0  0  0  0  0  0  0  0
    1.0782    3.8104    2.5179 C   0  0  0  0  0  0  0  0  0  0  0  0
    0.5634    2.5071    2.3653 C   0  0  0  0  0  0  0  0  0  0  0  0
   -0.4717    2.2707    1.2666 C   0  0  0  0  0  0  0  0  0  0  0  0
   -0.2042    1.4346   -0.0104 C   0  0  0  0  0  0  0  0  0  0  0  0
   -0.4743   -0.0942   -0.0245 C   0  0  2  0  0  0  0  0  0  0  0  0
   -0.5070   -0.5864   -1.5052 C   0  0  0  0  0  0  0  0  0  0  0  0
   -0.7518   -1.9502   -1.5720 O   0  0  0  0  0  0  0  0  0  0  0  0
   -1.7078   -2.4888   -0.7887 C   0  0  0  0  0  0  0  0  0  0  0  0
   -2.2512   -3.7114   -0.9592 N   0  0  0  0  0  0  0  0  0  0  0  0
   -3.1743   -3.7957    0.0263 C   0  0  0  0  0  0  0  0  0  0  0  0
   -3.1736   -2.6267    0.7719 C   0  0  0  0  0  0  0  0  0  0  0  0
   -2.2342   -1.8224    0.2502 N   0  0  0  0  0  0  0  0  0  0  0  0
   -1.8323   -0.4707    0.6462 C   0  0  0  0  0  0  0  0  0  0  0  0
   -4.0036   -4.9267    0.2426 N   0  0  0  0  0  0  0  0  0  0  0  0
   -3.9231   -5.8736   -0.4814 O   0  0  0  0  0  0  0  0  0  0  0  0
   -4.7740   -4.9437    1.1532 O   0  0  0  0  0  0  0  0  0  0  0  0
    0.9256    1.5267    3.3095 C   0  0  0  0  0  0  0  0  0  0  0  0
    1.7363    1.8733    4.4161 C   0  0  0  0  0  0  0  0  0  0  0  0
    4.0652    2.8722    7.1530 H   0  0  0  0  0  0  0  0  0  0  0  0
    2.6026    3.7836    7.6532 H   0  0  0  0  0  0  0  0  0  0  0  0
    2.4156    2.1293    7.0117 H   0  0  0  0  0  0  0  0  0  0  0  0
    2.2350    5.1655    3.7055 H   0  0  0  0  0  0  0  0  0  0  0  0
    0.8189    4.5913    1.8150 H   0  0  0  0  0  0  0  0  0  0  0  0
   -1.4313    1.9702    1.7320 H   0  0  0  0  0  0  0  0  0  0  0  0
   -0.6733    3.2804    0.8478 H   0  0  0  0  0  0  0  0  0  0  0  0
   -0.9583    1.8314   -0.7283 H   0  0  0  0  0  0  0  0  0  0  0  0
    0.7916    1.6767   -0.4420 H   0  0  0  0  0  0  0  0  0  0  0  0
    0.3377   -0.6420    0.5011 H   0  0  0  0  0  0  0  0  0  0  0  0
   -1.3330   -0.0594   -2.0400 H   0  0  0  0  0  0  0  0  0  0  0  0
    0.4360   -0.3575   -2.0433 H   0  0  0  0  0  0  0  0  0  0  0  0
   -3.7949   -2.3883    1.6253 H   0  0  0  0  0  0  0  0  0  0  0  0
   -1.6988   -0.4136    1.7472 H   0  0  0  0  0  0  0  0  0  0  0  0
   -2.6491    0.2197    0.3424 H   0  0  0  0  0  0  0  0  0  0  0  0
    0.5430    0.5178    3.2260 H   0  0  0  0  0  0  0  0  0  0  0  0
    1.9732    1.1125    5.1459 H   0  0  0  0  0  0  0  0  0  0  0  0
  1 23  1  0  0  0  0
  1 24  1  0  0  0  0
  1 25  1  0  0  0  0
  2  1  1  0  0  0  0
  3  2  1  0  0  0  0
  4  3  2  0  0  0  0
  4 26  1  0  0  0  0
  5  4  1  0  0  0  0
  5 27  1  0  0  0  0
  6  5  2  0  0  0  0
  7  6  1  0  0  0  0
  7 28  1  0  0  0  0
  7 29  1  0  0  0  0
  8  7  1  0  0  0  0
  8 30  1  0  0  0  0
  8 31  1  0  0  0  0
  9  8  1  0  0  0  0
  9 32  1  1  0  0  0
 10  9  1  0  0  0  0
 10 33  1  0  0  0  0
 10 34  1  0  0  0  0
 11 10  1  0  0  0  0
 12 11  1  0  0  0  0
 13 12  2  0  0  0  0
 14 13  1  0  0  0  0
 15 14  2  0  0  0  0
 15 35  1  0  0  0  0
 16 15  1  0  0  0  0
 16 12  1  0  0  0  0
 17 16  1  0  0  0  0
 17  9  1  0  0  0  0
 17 36  1  0  0  0  0
 17 37  1  0  0  0  0
 18 14  1  0  0  0  0
 19 18  2  0  0  0  0
 20 18  2  0  0  0  0
 21  6  1  0  0  0  0
 21 38  1  0  0  0  0
 22 21  2  0  0  0  0
 22  3  1  0  0  0  0
 22 39  1  0  0  0  0
M  END
>  <MOL Chiral Flag>
0

>  <energy>
90.011525532835464

$$$$
> 175_AKC_D0MD00083C
>170.sdf
 OpenBabel10052220153D

 44 47  0  0  0  0  0  0  0  0999 V2000
   -7.1431   -0.5963    0.7115 F   0  0  0  0  0  0  0  0  0  0  0  0
   -5.8127   -0.7553    0.4977 C   0  0  0  0  0  0  0  0  0  0  0  0
   -5.0226   -1.3842    1.4583 C   0  0  0  0  0  0  0  0  0  0  0  0
   -3.6481   -1.5467    1.2481 C   0  0  0  0  0  0  0  0  0  0  0  0
   -3.0375   -1.0812    0.0570 C   0  0  0  0  0  0  0  0  0  0  0  0
   -3.8593   -0.4513   -0.9060 C   0  0  0  0  0  0  0  0  0  0  0  0
   -5.2329   -0.2892   -0.6818 C   0  0  0  0  0  0  0  0  0  0  0  0
   -1.5567   -1.2211   -0.1990 C   0  0  0  0  0  0  0  0  0  0  0  0
   -0.6609   -1.6886    0.7850 C   0  0  0  0  0  0  0  0  0  0  0  0
    0.7109   -1.7388    0.5147 C   0  0  0  0  0  0  0  0  0  0  0  0
    1.2077   -1.3451   -0.7368 C   0  0  0  0  0  0  0  0  0  0  0  0
    2.7183   -1.3375   -1.0022 C   0  0  0  0  0  0  0  0  0  0  0  0
    3.1550    0.0624   -1.4768 C   0  0  0  0  0  0  0  0  0  0  0  0
    4.6558    0.4584   -1.4352 C   0  0  2  0  0  0  0  0  0  0  0  0
    4.7533    1.8975   -2.0058 C   0  0  0  0  0  0  0  0  0  0  0  0
    6.1910    2.4292   -1.9639 C   0  0  0  0  0  0  0  0  0  0  0  0
    7.1019    1.3692   -2.3657 N   0  0  0  0  0  0  0  0  0  0  0  0
    8.4014    1.4581   -2.6713 C   0  0  0  0  0  0  0  0  0  0  0  0
    8.8406    0.1833   -2.9685 C   0  0  0  0  0  0  0  0  0  0  0  0
    7.8150   -0.7016   -2.8420 N   0  0  0  0  0  0  0  0  0  0  0  0
    6.7686    0.0690   -2.4618 C   0  0  0  0  0  0  0  0  0  0  0  0
    5.5109   -0.3776   -2.1644 O   0  0  0  0  0  0  0  0  0  0  0  0
   10.1682   -0.1607   -3.3388 N   0  0  0  0  0  0  0  0  0  0  0  0
   11.0037    0.6868   -3.4357 O   0  0  0  0  0  0  0  0  0  0  0  0
   10.4584   -1.3011   -3.5393 O   0  0  0  0  0  0  0  0  0  0  0  0
    0.2813   -0.9207   -1.7079 C   0  0  0  0  0  0  0  0  0  0  0  0
   -1.0497   -0.8577   -1.4142 N   0  0  0  0  0  0  0  0  0  0  0  0
   -5.4754   -1.7469    2.3730 H   0  0  0  0  0  0  0  0  0  0  0  0
   -3.0845   -2.0395    2.0217 H   0  0  0  0  0  0  0  0  0  0  0  0
   -3.4400   -0.0722   -1.8285 H   0  0  0  0  0  0  0  0  0  0  0  0
   -5.8492    0.2024   -1.4245 H   0  0  0  0  0  0  0  0  0  0  0  0
   -0.9932   -1.9885    1.7648 H   0  0  0  0  0  0  0  0  0  0  0  0
    1.3863   -2.0770    1.2900 H   0  0  0  0  0  0  0  0  0  0  0  0
    2.9936   -2.0894   -1.7729 H   0  0  0  0  0  0  0  0  0  0  0  0
    3.2494   -1.5976   -0.0609 H   0  0  0  0  0  0  0  0  0  0  0  0
    2.7684    0.2015   -2.5089 H   0  0  0  0  0  0  0  0  0  0  0  0
    2.6496    0.7991   -0.8129 H   0  0  0  0  0  0  0  0  0  0  0  0
    4.9948    0.4641   -0.3741 H   0  0  0  0  0  0  0  0  0  0  0  0
    4.0799    2.6147   -1.4907 H   0  0  0  0  0  0  0  0  0  0  0  0
    4.4460    1.8332   -3.0746 H   0  0  0  0  0  0  0  0  0  0  0  0
    6.2552    3.2934   -2.6610 H   0  0  0  0  0  0  0  0  0  0  0  0
    6.4754    2.7614   -0.9438 H   0  0  0  0  0  0  0  0  0  0  0  0
    8.9772    2.3760   -2.6796 H   0  0  0  0  0  0  0  0  0  0  0  0
    0.6171   -0.6036   -2.6850 H   0  0  0  0  0  0  0  0  0  0  0  0
  2  1  1  0  0  0  0
  3  2  2  0  0  0  0
  3 28  1  0  0  0  0
  4  3  1  0  0  0  0
  4 29  1  0  0  0  0
  5  4  2  0  0  0  0
  6  5  1  0  0  0  0
  6 30  1  0  0  0  0
  7  6  2  0  0  0  0
  7  2  1  0  0  0  0
  7 31  1  0  0  0  0
  8  5  1  0  0  0  0
  9  8  2  0  0  0  0
  9 32  1  0  0  0  0
 10  9  1  0  0  0  0
 10 33  1  0  0  0  0
 11 10  2  0  0  0  0
 12 11  1  0  0  0  0
 12 34  1  0  0  0  0
 12 35  1  0  0  0  0
 13 12  1  0  0  0  0
 13 36  1  0  0  0  0
 13 37  1  0  0  0  0
 14 13  1  0  0  0  0
 14 38  1  1  0  0  0
 15 14  1  0  0  0  0
 15 39  1  0  0  0  0
 15 40  1  0  0  0  0
 16 15  1  0  0  0  0
 16 41  1  0  0  0  0
 16 42  1  0  0  0  0
 17 16  1  0  0  0  0
 18 17  1  0  0  0  0
 18 43  1  0  0  0  0
 19 18  2  0  0  0  0
 20 19  1  0  0  0  0
 21 20  2  0  0  0  0
 21 17  1  0  0  0  0
 22 21  1  0  0  0  0
 22 14  1  0  0  0  0
 23 19  1  0  0  0  0
 24 23  2  0  0  0  0
 25 23  2  0  0  0  0
 26 11  1  0  0  0  0
 26 44  1  0  0  0  0
 27 26  2  0  0  0  0
 27  8  1  0  0  0  0
M  END
>  <MOL Chiral Flag>
0

>  <energy>
103.46804921507982

$$$$
> 176_AKC_D0MD00083C
>171.sdf
 OpenBabel10052220163D

 37 39  0  0  0  0  0  0  0  0999 V2000
   -0.3782   -3.3907    0.7266 C   0  0  0  0  0  0  0  0  0  0  0  0
    0.8866   -2.8105    0.0725 C   0  0  1  0  0  0  0  0  0  0  0  0
    0.7412   -1.3029   -0.2182 C   0  0  0  0  0  0  0  0  0  0  0  0
   -0.4383   -1.0482   -0.8981 O   0  0  0  0  0  0  0  0  0  0  0  0
   -1.2801   -0.0640   -0.5029 C   0  0  0  0  0  0  0  0  0  0  0  0
   -2.5835   -0.3776   -0.1053 C   0  0  0  0  0  0  0  0  0  0  0  0
   -3.4415    0.6302    0.3473 C   0  0  0  0  0  0  0  0  0  0  0  0
   -3.0138    1.9644    0.3929 C   0  0  0  0  0  0  0  0  0  0  0  0
   -3.8791    2.9072    0.8570 O   0  0  0  0  0  0  0  0  0  0  0  0
   -3.6137    4.2564    1.0021 C   0  0  0  0  0  0  0  0  0  0  0  0
   -4.7283    4.8766    1.5321 F   0  0  0  0  0  0  0  0  0  0  0  0
   -2.5499    4.4469    1.8674 F   0  0  0  0  0  0  0  0  0  0  0  0
   -3.3318    4.8257   -0.2272 F   0  0  0  0  0  0  0  0  0  0  0  0
   -1.7054    2.2797   -0.0322 C   0  0  0  0  0  0  0  0  0  0  0  0
   -0.8462    1.2690   -0.4702 C   0  0  0  0  0  0  0  0  0  0  0  0
    2.1585   -3.0850    0.9911 C   0  0  0  0  0  0  0  0  0  0  0  0
    2.9118   -3.9594    0.1333 N   0  0  0  0  0  0  0  0  0  0  0  0
    4.0459   -4.6639    0.0884 C   0  0  0  0  0  0  0  0  0  0  0  0
    4.0755   -5.2820   -1.1578 C   0  0  0  0  0  0  0  0  0  0  0  0
    2.9569   -4.9431   -1.8559 N   0  0  0  0  0  0  0  0  0  0  0  0
    2.3018   -4.1377   -0.9995 C   0  0  0  0  0  0  0  0  0  0  0  0
    1.1403   -3.5059   -1.1178 O   0  0  0  0  0  0  0  0  0  0  0  0
    5.1348   -6.1674   -1.6617 C   0  0  0  0  0  0  0  0  0  0  0  0
    6.1992   -6.4569   -0.8886 O   0  0  0  0  0  0  0  0  0  0  0  0
    5.0525   -6.6456   -2.7812 O   0  0  0  0  0  0  0  0  0  0  0  0
   -1.2532   -3.2783    0.0519 H   0  0  0  0  0  0  0  0  0  0  0  0
   -0.5935   -2.8775    1.6871 H   0  0  0  0  0  0  0  0  0  0  0  0
   -0.2434   -4.4769    0.9196 H   0  0  0  0  0  0  0  0  0  0  0  0
    0.7547   -0.7468    0.7491 H   0  0  0  0  0  0  0  0  0  0  0  0
    1.6076   -0.9582   -0.8226 H   0  0  0  0  0  0  0  0  0  0  0  0
   -2.9242   -1.4047   -0.1217 H   0  0  0  0  0  0  0  0  0  0  0  0
   -4.4413    0.3728    0.6740 H   0  0  0  0  0  0  0  0  0  0  0  0
   -1.3409    3.2969   -0.0194 H   0  0  0  0  0  0  0  0  0  0  0  0
    0.1587    1.5205   -0.7859 H   0  0  0  0  0  0  0  0  0  0  0  0
    1.9048   -3.6070    1.9395 H   0  0  0  0  0  0  0  0  0  0  0  0
    2.7594   -2.1722    1.1947 H   0  0  0  0  0  0  0  0  0  0  0  0
    4.7773   -4.7229    0.8839 H   0  0  0  0  0  0  0  0  0  0  0  0
  1 26  1  0  0  0  0
  1 27  1  0  0  0  0
  1 28  1  0  0  0  0
  2  1  1  1  0  0  0
  3  2  1  0  0  0  0
  3 29  1  0  0  0  0
  3 30  1  0  0  0  0
  4  3  1  0  0  0  0
  5  4  1  0  0  0  0
  6  5  2  0  0  0  0
  6 31  1  0  0  0  0
  7  6  1  0  0  0  0
  7 32  1  0  0  0  0
  8  7  2  0  0  0  0
  9  8  1  0  0  0  0
 10  9  1  0  0  0  0
 11 10  1  0  0  0  0
 12 10  1  0  0  0  0
 13 10  1  0  0  0  0
 14  8  1  0  0  0  0
 14 33  1  0  0  0  0
 15 14  2  0  0  0  0
 15  5  1  0  0  0  0
 15 34  1  0  0  0  0
 16  2  1  0  0  0  0
 16 35  1  0  0  0  0
 16 36  1  0  0  0  0
 17 16  1  0  0  0  0
 18 17  1  0  0  0  0
 18 37  1  0  0  0  0
 19 18  2  0  0  0  0
 20 19  1  0  0  0  0
 21 20  2  0  0  0  0
 21 17  1  0  0  0  0
 22 21  1  0  0  0  0
 22  2  1  0  0  0  0
 23 19  1  0  0  0  0
 24 23  1  0  0  0  0
 25 23  2  0  0  0  0
M  END
>  <MOL Chiral Flag>
0

>  <energy>
76.856663232852512

$$$$
> 177_AKC_D0MD00083C
>172.sdf
 OpenBabel10052220173D

 56 59  0  0  0  0  0  0  0  0999 V2000
   -0.1836   -2.3053   -1.1303 C   0  0  0  0  0  0  0  0  0  0  0  0
    0.8588   -1.4701   -0.7648 O   0  0  0  0  0  0  0  0  0  0  0  0
    1.1577   -0.2942   -1.3707 C   0  0  0  0  0  0  0  0  0  0  0  0
    0.3975    0.1435   -2.2201 O   0  0  0  0  0  0  0  0  0  0  0  0
    2.3476    0.5274   -0.9522 C   0  0  0  0  0  0  0  0  0  0  0  0
    3.5500    0.2192   -0.2337 C   0  0  0  0  0  0  0  0  0  0  0  0
    4.1751    1.3603   -0.0555 O   0  0  0  0  0  0  0  0  0  0  0  0
    3.5332    2.3741   -0.5491 N   0  0  0  0  0  0  0  0  0  0  0  0
    2.4158    1.9173   -1.1206 C   0  0  0  0  0  0  0  0  0  0  0  0
    1.4322    2.7938   -1.6813 N   0  0  0  0  0  0  0  0  0  0  0  0
    1.0862    3.9949   -0.9410 C   0  0  0  0  0  0  0  0  0  0  0  0
    0.2787    5.0129   -1.7242 C   0  0  0  0  0  0  0  0  0  0  0  0
    0.2807    5.0701   -3.1274 C   0  0  0  0  0  0  0  0  0  0  0  0
   -0.4691    6.0491   -3.7976 C   0  0  0  0  0  0  0  0  0  0  0  0
   -1.2588    6.9815   -3.0830 C   0  0  0  0  0  0  0  0  0  0  0  0
   -1.2556    6.9034   -1.6721 C   0  0  0  0  0  0  0  0  0  0  0  0
   -0.4885    5.9432   -1.0100 C   0  0  0  0  0  0  0  0  0  0  0  0
   -2.0811    8.0511   -3.8443 C   0  0  0  0  0  0  0  0  0  0  0  0
   -3.0288    7.3708   -4.8571 C   0  0  0  0  0  0  0  0  0  0  0  0
   -1.1164    8.9911   -4.5960 C   0  0  0  0  0  0  0  0  0  0  0  0
   -2.9576    8.9259   -2.9122 C   0  0  0  0  0  0  0  0  0  0  0  0
    4.1146   -1.0984    0.3264 C   0  0  0  0  0  0  0  0  0  0  0  0
    5.2098   -1.2147    1.3248 C   0  0  0  0  0  0  0  0  0  0  0  0
    5.5356   -2.5140    1.8190 C   0  0  0  0  0  0  0  0  0  0  0  0
    4.8515   -3.6144    1.3603 C   0  0  0  0  0  0  0  0  0  0  0  0
    4.9959   -4.8873    1.7302 O   0  0  0  0  0  0  0  0  0  0  0  0
    4.0880   -5.6604    1.0038 C   0  0  0  0  0  0  0  0  0  0  0  0
    3.4375   -4.7437    0.1715 O   0  0  0  0  0  0  0  0  0  0  0  0
    3.9179   -3.5257    0.4305 C   0  0  0  0  0  0  0  0  0  0  0  0
    3.5387   -2.3174   -0.1305 C   0  0  0  0  0  0  0  0  0  0  0  0
    5.9905   -0.1233    1.8706 N   0  0  0  0  0  0  0  0  0  0  0  0
    6.8282   -0.3519    2.6927 O   0  0  0  0  0  0  0  0  0  0  0  0
    5.8966    0.9864    1.4645 O   0  0  0  0  0  0  0  0  0  0  0  0
   -0.8005   -1.8978   -1.9604 H   0  0  0  0  0  0  0  0  0  0  0  0
    0.2341   -3.2787   -1.4620 H   0  0  0  0  0  0  0  0  0  0  0  0
   -0.8407   -2.4766   -0.2545 H   0  0  0  0  0  0  0  0  0  0  0  0
    0.6581    2.3751   -2.2047 H   0  0  0  0  0  0  0  0  0  0  0  0
    1.9760    4.4928   -0.5002 H   0  0  0  0  0  0  0  0  0  0  0  0
    0.4506    3.6505   -0.0948 H   0  0  0  0  0  0  0  0  0  0  0  0
    0.8726    4.3728   -3.7059 H   0  0  0  0  0  0  0  0  0  0  0  0
   -0.4335    6.0747   -4.8781 H   0  0  0  0  0  0  0  0  0  0  0  0
   -1.8321    7.5838   -1.0649 H   0  0  0  0  0  0  0  0  0  0  0  0
   -0.5022    5.9162    0.0728 H   0  0  0  0  0  0  0  0  0  0  0  0
   -3.6224    8.1315   -5.4107 H   0  0  0  0  0  0  0  0  0  0  0  0
   -3.7352    6.6903   -4.3354 H   0  0  0  0  0  0  0  0  0  0  0  0
   -2.4699    6.7829   -5.6137 H   0  0  0  0  0  0  0  0  0  0  0  0
   -1.6797    9.7708   -5.1544 H   0  0  0  0  0  0  0  0  0  0  0  0
   -0.4409    9.5035   -3.8764 H   0  0  0  0  0  0  0  0  0  0  0  0
   -0.4916    8.4360   -5.3259 H   0  0  0  0  0  0  0  0  0  0  0  0
   -3.5353    9.6737   -3.4987 H   0  0  0  0  0  0  0  0  0  0  0  0
   -2.3364    9.4907   -2.1844 H   0  0  0  0  0  0  0  0  0  0  0  0
   -3.6904    8.2991   -2.3583 H   0  0  0  0  0  0  0  0  0  0  0  0
    6.3087   -2.6637    2.5622 H   0  0  0  0  0  0  0  0  0  0  0  0
    3.3613   -6.1459    1.6920 H   0  0  0  0  0  0  0  0  0  0  0  0
    4.6226   -6.4233    0.4014 H   0  0  0  0  0  0  0  0  0  0  0  0
    2.8208   -2.3537   -0.9078 H   0  0  0  0  0  0  0  0  0  0  0  0
  1 34  1  0  0  0  0
  1 35  1  0  0  0  0
  1 36  1  0  0  0  0
  2  1  1  0  0  0  0
  3  2  1  0  0  0  0
  4  3  2  0  0  0  0
  5  3  1  0  0  0  0
  6  5  2  0  0  0  0
  7  6  1  0  0  0  0
  8  7  1  0  0  0  0
  9  8  2  0  0  0  0
  9  5  1  0  0  0  0
 10  9  1  0  0  0  0
 10 37  1  0  0  0  0
 11 10  1  0  0  0  0
 11 38  1  0  0  0  0
 11 39  1  0  0  0  0
 12 11  1  0  0  0  0
 13 12  2  0  0  0  0
 13 40  1  0  0  0  0
 14 13  1  0  0  0  0
 14 41  1  0  0  0  0
 15 14  2  0  0  0  0
 16 15  1  0  0  0  0
 16 42  1  0  0  0  0
 17 16  2  0  0  0  0
 17 12  1  0  0  0  0
 17 43  1  0  0  0  0
 18 15  1  0  0  0  0
 19 18  1  0  0  0  0
 19 44  1  0  0  0  0
 19 45  1  0  0  0  0
 19 46  1  0  0  0  0
 20 18  1  0  0  0  0
 20 47  1  0  0  0  0
 20 48  1  0  0  0  0
 20 49  1  0  0  0  0
 21 18  1  0  0  0  0
 21 50  1  0  0  0  0
 21 51  1  0  0  0  0
 21 52  1  0  0  0  0
 22  6  1  0  0  0  0
 23 22  2  0  0  0  0
 24 23  1  0  0  0  0
 24 53  1  0  0  0  0
 25 24  2  0  0  0  0
 26 25  1  0  0  0  0
 27 26  1  0  0  0  0
 27 54  1  0  0  0  0
 27 55  1  0  0  0  0
 28 27  1  0  0  0  0
 29 28  1  0  0  0  0
 29 25  1  0  0  0  0
 30 29  2  0  0  0  0
 30 22  1  0  0  0  0
 30 56  1  0  0  0  0
 31 23  1  0  0  0  0
 32 31  2  0  0  0  0
 33 31  2  0  0  0  0
M  END
>  <MOL Chiral Flag>
0

>  <energy>
46.674658317171158

$$$$
> 178_AKC_j.jgar.2020.02.028
>173.sdf
 OpenBabel10052220173D

 35 37  0  0  0  0  0  0  0  0999 V2000
    3.0160   -4.3084    0.8735 C   0  0  0  0  0  0  0  0  0  0  0  0
    2.4036   -3.4746    1.9862 C   0  0  0  0  0  0  0  0  0  0  0  0
    1.2218   -2.9393    1.8800 N   0  0  0  0  0  0  0  0  0  0  0  0
    0.3506   -3.2925    0.8685 N   0  0  0  0  0  0  0  0  0  0  0  0
   -0.7989   -2.5306    0.5456 C   0  0  0  0  0  0  0  0  0  0  0  0
   -0.9705   -1.1962    0.7540 N   0  0  0  0  0  0  0  0  0  0  0  0
   -2.1829   -0.7517    0.2338 C   0  0  0  0  0  0  0  0  0  0  0  0
   -2.9704   -1.7629   -0.3642 C   0  0  0  0  0  0  0  0  0  0  0  0
   -2.0969   -3.1491   -0.2518 S   0  0  0  0  0  0  0  0  0  0  0  0
   -2.5853    0.6879    0.2360 C   0  0  0  0  0  0  0  0  0  0  0  0
   -1.7098    1.6735    0.7303 C   0  0  0  0  0  0  0  0  0  0  0  0
   -2.0669    3.0282    0.6823 C   0  0  0  0  0  0  0  0  0  0  0  0
   -3.2988    3.4143    0.1462 C   0  0  0  0  0  0  0  0  0  0  0  0
   -3.7784    5.2618    0.0638 Br  0  0  0  0  0  0  0  0  0  0  0  0
   -4.1792    2.4478   -0.3380 C   0  0  0  0  0  0  0  0  0  0  0  0
   -3.8304    1.0967   -0.2963 C   0  0  0  0  0  0  0  0  0  0  0  0
    3.1813   -3.3412    3.2494 C   0  0  0  0  0  0  0  0  0  0  0  0
    2.6854   -2.6291    4.3558 C   0  0  0  0  0  0  0  0  0  0  0  0
    3.4212   -2.6106    5.5456 C   0  0  0  0  0  0  0  0  0  0  0  0
    4.6338   -3.2971    5.6259 C   0  0  0  0  0  0  0  0  0  0  0  0
    5.1012   -3.9885    4.5097 C   0  0  0  0  0  0  0  0  0  0  0  0
    4.3739   -3.9964    3.3618 N   0  0  0  0  0  0  0  0  0  0  0  0
    2.4327   -4.3308   -0.0660 H   0  0  0  0  0  0  0  0  0  0  0  0
    4.0013   -3.8713    0.6042 H   0  0  0  0  0  0  0  0  0  0  0  0
    3.1709   -5.3497    1.2234 H   0  0  0  0  0  0  0  0  0  0  0  0
    0.3828   -4.2529    0.4980 H   0  0  0  0  0  0  0  0  0  0  0  0
   -3.9313   -1.6774   -0.8470 H   0  0  0  0  0  0  0  0  0  0  0  0
   -0.7456    1.3995    1.1375 H   0  0  0  0  0  0  0  0  0  0  0  0
   -1.3826    3.7796    1.0537 H   0  0  0  0  0  0  0  0  0  0  0  0
   -5.1341    2.7422   -0.7563 H   0  0  0  0  0  0  0  0  0  0  0  0
   -4.5377    0.3845   -0.6904 H   0  0  0  0  0  0  0  0  0  0  0  0
    1.7368   -2.1111    4.3072 H   0  0  0  0  0  0  0  0  0  0  0  0
    3.0471   -2.0753    6.4083 H   0  0  0  0  0  0  0  0  0  0  0  0
    5.2052   -3.2979    6.5456 H   0  0  0  0  0  0  0  0  0  0  0  0
    6.0372   -4.5301    4.5577 H   0  0  0  0  0  0  0  0  0  0  0  0
  1 23  1  0  0  0  0
  1 24  1  0  0  0  0
  1 25  1  0  0  0  0
  2  1  1  0  0  0  0
  3  2  2  0  0  0  0
  4  3  1  0  0  0  0
  4 26  1  0  0  0  0
  5  4  1  0  0  0  0
  6  5  2  0  0  0  0
  7  6  1  0  0  0  0
  8  7  2  0  0  0  0
  8 27  1  0  0  0  0
  9  8  1  0  0  0  0
  9  5  1  0  0  0  0
 10  7  1  0  0  0  0
 11 10  2  0  0  0  0
 11 28  1  0  0  0  0
 12 11  1  0  0  0  0
 12 29  1  0  0  0  0
 13 12  2  0  0  0  0
 14 13  1  0  0  0  0
 15 13  1  0  0  0  0
 15 30  1  0  0  0  0
 16 15  2  0  0  0  0
 16 10  1  0  0  0  0
 16 31  1  0  0  0  0
 17  2  1  0  0  0  0
 18 17  2  0  0  0  0
 18 32  1  0  0  0  0
 19 18  1  0  0  0  0
 19 33  1  0  0  0  0
 20 19  2  0  0  0  0
 20 34  1  0  0  0  0
 21 20  1  0  0  0  0
 21 35  1  0  0  0  0
 22 21  2  0  0  0  0
 22 17  1  0  0  0  0
M  END
>  <MOL Chiral Flag>
0

>  <energy>
92.910867047530488

$$$$
> 179_AKC_j.ejmech.2020.112418
>174.sdf
 OpenBabel10052220173D

 43 46  0  0  0  0  0  0  0  0999 V2000
    2.3739   -0.6193    2.6544 C   0  0  0  0  0  0  0  0  0  0  0  0
    2.9179   -1.1641    1.3368 C   0  0  0  0  0  0  0  0  0  0  0  0
    1.8529   -1.5443    0.4162 N   0  0  0  0  0  0  0  0  0  0  0  0
    0.9357   -2.5152    0.6379 C   0  0  0  0  0  0  0  0  0  0  0  0
    0.8859   -3.1683    1.6695 O   0  0  0  0  0  0  0  0  0  0  0  0
    0.0362   -2.7603   -0.5651 C   0  0  1  0  0  0  0  0  0  0  0  0
    0.2596   -4.0551   -1.0783 O   0  0  0  0  0  0  0  0  0  0  0  0
   -1.4548   -2.5129   -0.3032 C   0  0  0  0  0  0  0  0  0  0  0  0
   -2.3513   -3.5075   -0.4593 C   0  0  0  0  0  0  0  0  0  0  0  0
   -1.9642   -1.1601    0.0575 C   0  0  0  0  0  0  0  0  0  0  0  0
   -1.2030   -0.0755    0.3084 N   0  0  0  0  0  0  0  0  0  0  0  0
   -2.1240    0.9021    0.4624 C   0  0  0  0  0  0  0  0  0  0  0  0
   -3.3720    0.4246    0.3105 N   0  0  0  0  0  0  0  0  0  0  0  0
   -3.2382   -0.8438    0.0689 O   0  0  0  0  0  0  0  0  0  0  0  0
   -1.8133    2.3218    0.7305 C   0  0  0  0  0  0  0  0  0  0  0  0
   -0.5099    2.7191    1.0735 C   0  0  0  0  0  0  0  0  0  0  0  0
   -0.2300    4.0664    1.3293 C   0  0  0  0  0  0  0  0  0  0  0  0
   -1.2423    5.0254    1.2301 C   0  0  0  0  0  0  0  0  0  0  0  0
   -2.5383    4.6397    0.8816 C   0  0  0  0  0  0  0  0  0  0  0  0
   -2.8273    3.2938    0.6390 C   0  0  0  0  0  0  0  0  0  0  0  0
    0.6121   -1.7071   -1.4925 C   0  0  0  0  0  0  0  0  0  0  0  0
    0.2166   -1.3917   -2.7925 C   0  0  0  0  0  0  0  0  0  0  0  0
    0.8927   -0.3640   -3.4708 C   0  0  0  0  0  0  0  0  0  0  0  0
    0.4162    0.0655   -5.1029 Cl  0  0  0  0  0  0  0  0  0  0  0  0
    1.9518    0.3234   -2.8417 C   0  0  0  0  0  0  0  0  0  0  0  0
    2.3393   -0.0128   -1.5333 C   0  0  0  0  0  0  0  0  0  0  0  0
    1.6465   -1.0374   -0.8771 C   0  0  0  0  0  0  0  0  0  0  0  0
    3.2253   -0.3381    3.3105 H   0  0  0  0  0  0  0  0  0  0  0  0
    1.7735   -1.3843    3.1866 H   0  0  0  0  0  0  0  0  0  0  0  0
    1.7486    0.2780    2.4702 H   0  0  0  0  0  0  0  0  0  0  0  0
    3.5541   -2.0524    1.5423 H   0  0  0  0  0  0  0  0  0  0  0  0
    3.5694   -0.3879    0.8908 H   0  0  0  0  0  0  0  0  0  0  0  0
    1.2237   -4.1436   -1.3042 H   0  0  0  0  0  0  0  0  0  0  0  0
   -2.0516   -4.5103   -0.7420 H   0  0  0  0  0  0  0  0  0  0  0  0
   -3.4111   -3.3341   -0.2983 H   0  0  0  0  0  0  0  0  0  0  0  0
    0.2844    1.9881    1.1548 H   0  0  0  0  0  0  0  0  0  0  0  0
    0.7723    4.3678    1.6038 H   0  0  0  0  0  0  0  0  0  0  0  0
   -1.0226    6.0677    1.4227 H   0  0  0  0  0  0  0  0  0  0  0  0
   -3.3206    5.3838    0.7990 H   0  0  0  0  0  0  0  0  0  0  0  0
   -3.8374    3.0133    0.3669 H   0  0  0  0  0  0  0  0  0  0  0  0
   -0.5989   -1.9254   -3.2635 H   0  0  0  0  0  0  0  0  0  0  0  0
    2.4708    1.1146   -3.3673 H   0  0  0  0  0  0  0  0  0  0  0  0
    3.1513    0.5206   -1.0624 H   0  0  0  0  0  0  0  0  0  0  0  0
  1 28  1  0  0  0  0
  1 29  1  0  0  0  0
  1 30  1  0  0  0  0
  2  1  1  0  0  0  0
  2 31  1  0  0  0  0
  2 32  1  0  0  0  0
  3  2  1  0  0  0  0
  4  3  1  0  0  0  0
  5  4  2  0  0  0  0
  6  4  1  0  0  0  0
  6  7  1  6  0  0  0
  7 33  1  0  0  0  0
  8  6  1  0  0  0  0
  9  8  2  0  0  0  0
  9 34  1  0  0  0  0
  9 35  1  0  0  0  0
 10  8  1  0  0  0  0
 11 10  2  0  0  0  0
 12 11  1  0  0  0  0
 13 12  2  0  0  0  0
 14 13  1  0  0  0  0
 14 10  1  0  0  0  0
 15 12  1  0  0  0  0
 16 15  2  0  0  0  0
 16 36  1  0  0  0  0
 17 16  1  0  0  0  0
 17 37  1  0  0  0  0
 18 17  2  0  0  0  0
 18 38  1  0  0  0  0
 19 18  1  0  0  0  0
 19 39  1  0  0  0  0
 20 19  2  0  0  0  0
 20 15  1  0  0  0  0
 20 40  1  0  0  0  0
 21  6  1  0  0  0  0
 22 21  2  0  0  0  0
 22 41  1  0  0  0  0
 23 22  1  0  0  0  0
 24 23  1  0  0  0  0
 25 23  2  0  0  0  0
 25 42  1  0  0  0  0
 26 25  1  0  0  0  0
 26 43  1  0  0  0  0
 27 26  2  0  0  0  0
 27  3  1  0  0  0  0
 27 21  1  0  0  0  0
M  END
>  <MOL Chiral Flag>
0

>  <energy>
96.072314704349154

$$$$
> 180_AKC_s12639-020-01230-8
>175.sdf
 OpenBabel10052220173D

 30 32  0  0  0  0  0  0  0  0999 V2000
   -6.0411   -0.1252   -0.0771 O   0  0  0  0  0  0  0  0  0  0  0  0
   -4.6980   -0.1722    0.0336 C   0  0  0  0  0  0  0  0  0  0  0  0
   -3.9909   -1.3317   -0.3201 C   0  0  0  0  0  0  0  0  0  0  0  0
   -2.5988   -1.3701   -0.1947 C   0  0  0  0  0  0  0  0  0  0  0  0
   -1.9018   -0.2392    0.2563 C   0  0  0  0  0  0  0  0  0  0  0  0
   -2.6080    0.9227    0.5966 C   0  0  0  0  0  0  0  0  0  0  0  0
   -4.0030    0.9491    0.5013 C   0  0  0  0  0  0  0  0  0  0  0  0
   -0.4362   -0.2640    0.3512 C   0  0  0  0  0  0  0  0  0  0  0  0
    0.2040   -1.1345    1.2320 C   0  0  0  0  0  0  0  0  0  0  0  0
    1.5975   -1.1326    1.3108 C   0  0  0  0  0  0  0  0  0  0  0  0
    2.1333   -1.8818    2.1026 O   0  0  0  0  0  0  0  0  0  0  0  0
    2.3446   -0.2760    0.4567 C   0  0  0  0  0  0  0  0  0  0  0  0
    3.7780   -0.2046    0.4205 C   0  0  0  0  0  0  0  0  0  0  0  0
    4.5919   -0.9176    1.2336 O   0  0  0  0  0  0  0  0  0  0  0  0
    4.3989    0.6426   -0.5075 C   0  0  0  0  0  0  0  0  0  0  0  0
    3.6534    1.4220   -1.3889 C   0  0  0  0  0  0  0  0  0  0  0  0
    4.2881    2.2072   -2.2836 O   0  0  0  0  0  0  0  0  0  0  0  0
    2.2594    1.3840   -1.3414 C   0  0  0  0  0  0  0  0  0  0  0  0
    1.6043    0.5527   -0.4311 C   0  0  0  0  0  0  0  0  0  0  0  0
    0.2741    0.5420   -0.4269 O   0  0  0  0  0  0  0  0  0  0  0  0
   -6.5504   -0.8764   -0.4137 H   0  0  0  0  0  0  0  0  0  0  0  0
   -4.5185   -2.2002   -0.6940 H   0  0  0  0  0  0  0  0  0  0  0  0
   -2.0609   -2.2664   -0.4790 H   0  0  0  0  0  0  0  0  0  0  0  0
   -2.0797    1.7969    0.9574 H   0  0  0  0  0  0  0  0  0  0  0  0
   -4.5440    1.8429    0.7853 H   0  0  0  0  0  0  0  0  0  0  0  0
   -0.3774   -1.7900    1.8716 H   0  0  0  0  0  0  0  0  0  0  0  0
    4.3196   -1.5036    1.9447 H   0  0  0  0  0  0  0  0  0  0  0  0
    5.4810    0.6879   -0.5459 H   0  0  0  0  0  0  0  0  0  0  0  0
    3.8021    2.7436   -2.9263 H   0  0  0  0  0  0  0  0  0  0  0  0
    1.6790    1.9926   -2.0240 H   0  0  0  0  0  0  0  0  0  0  0  0
  1 21  1  0  0  0  0
  2  1  1  0  0  0  0
  3  2  2  0  0  0  0
  3 22  1  0  0  0  0
  4  3  1  0  0  0  0
  4 23  1  0  0  0  0
  5  4  2  0  0  0  0
  6  5  1  0  0  0  0
  6 24  1  0  0  0  0
  7  6  2  0  0  0  0
  7  2  1  0  0  0  0
  7 25  1  0  0  0  0
  8  5  1  0  0  0  0
  9  8  2  0  0  0  0
  9 26  1  0  0  0  0
 10  9  1  0  0  0  0
 11 10  2  0  0  0  0
 12 10  1  0  0  0  0
 13 12  2  0  0  0  0
 14 13  1  0  0  0  0
 14 27  1  0  0  0  0
 15 13  1  0  0  0  0
 15 28  1  0  0  0  0
 16 15  2  0  0  0  0
 17 16  1  0  0  0  0
 17 29  1  0  0  0  0
 18 16  1  0  0  0  0
 18 30  1  0  0  0  0
 19 18  2  0  0  0  0
 19 12  1  0  0  0  0
 20 19  1  0  0  0  0
 20  8  1  0  0  0  0
M  END
>  <MOL Chiral Flag>
0

>  <energy>
22.753565075569433

$$$$
> 181_AKC_D0NJ01206H
>176.sdf
 OpenBabel10052220183D

 49 53  0  0  0  0  0  0  0  0999 V2000
   -4.9905   -0.3659    0.1675 C   0  0  0  0  0  0  0  0  0  0  0  0
   -3.9449   -1.3848   -0.0241 N   0  3  0  0  0  0  0  0  0  0  0  0
   -3.0284   -0.9516   -1.1030 C   0  0  0  0  0  0  0  0  0  0  0  0
   -1.9430   -2.0007   -1.3326 C   0  0  0  0  0  0  0  0  0  0  0  0
   -1.2777   -2.2609   -0.0737 N   0  0  0  0  0  0  0  0  0  0  0  0
   -2.0921   -2.6646    1.0534 C   0  0  0  0  0  0  0  0  0  0  0  0
   -3.1970   -1.6043    1.2404 C   0  0  0  0  0  0  0  0  0  0  0  0
    0.0803   -1.8862    0.0847 C   0  0  0  0  0  0  0  0  0  0  0  0
    0.3961   -0.5668   -0.0069 N   0  0  0  0  0  0  0  0  0  0  0  0
    1.6630   -0.1825    0.0595 N   0  0  0  0  0  0  0  0  0  0  0  0
    2.2000    1.0427   -0.0197 C   0  0  0  0  0  0  0  0  0  0  0  0
    3.5520    0.9473    0.0110 N   0  0  0  0  0  0  0  0  0  0  0  0
    3.8574   -0.3460    0.1403 N   0  0  0  0  0  0  0  0  0  0  0  0
    2.6891   -1.0189    0.1679 C   0  0  0  0  0  0  0  0  0  0  0  0
    2.4726   -2.3932    0.2728 C   0  0  0  0  0  0  0  0  0  0  0  0
    1.1225   -2.8454    0.2403 C   0  0  0  0  0  0  0  0  0  0  0  0
    0.8618   -4.2249    0.3173 C   0  0  0  0  0  0  0  0  0  0  0  0
    1.9201   -5.1334    0.4319 C   0  0  0  0  0  0  0  0  0  0  0  0
    3.2436   -4.6804    0.4650 C   0  0  0  0  0  0  0  0  0  0  0  0
    3.5239   -3.3131    0.3849 C   0  0  0  0  0  0  0  0  0  0  0  0
    1.4410    2.3182   -0.1208 C   0  0  0  0  0  0  0  0  0  0  0  0
    0.1020    2.4009    0.3107 C   0  0  0  0  0  0  0  0  0  0  0  0
   -0.5972    3.6026    0.2249 C   0  0  0  0  0  0  0  0  0  0  0  0
    0.0150    4.7353   -0.3066 C   0  0  0  0  0  0  0  0  0  0  0  0
    1.3497    4.6821   -0.7511 C   0  0  0  0  0  0  0  0  0  0  0  0
    2.0618    3.4679   -0.6384 C   0  0  0  0  0  0  0  0  0  0  0  0
    1.9695    5.8400   -1.3156 N   0  0  0  0  0  0  0  0  0  0  0  0
    3.0919    5.7880   -1.7194 O   0  0  0  0  0  0  0  0  0  0  0  0
    1.3578    6.8610   -1.4205 O   0  0  0  0  0  0  0  0  0  0  0  0
   -5.5543   -0.2060   -0.7789 H   0  0  0  0  0  0  0  0  0  0  0  0
   -4.5508    0.6076    0.4813 H   0  0  0  0  0  0  0  0  0  0  0  0
   -5.7191   -0.6956    0.9388 H   0  0  0  0  0  0  0  0  0  0  0  0
   -4.4123   -2.2788   -0.3084 H   0  0  0  0  0  0  0  0  0  0  0  0
   -2.5380    0.0115   -0.8282 H   0  0  0  0  0  0  0  0  0  0  0  0
   -3.5813   -0.8000   -2.0570 H   0  0  0  0  0  0  0  0  0  0  0  0
   -1.2289   -1.6376   -2.1050 H   0  0  0  0  0  0  0  0  0  0  0  0
   -2.3979   -2.9458   -1.7012 H   0  0  0  0  0  0  0  0  0  0  0  0
   -1.4904   -2.7476    1.9855 H   0  0  0  0  0  0  0  0  0  0  0  0
   -2.5511   -3.6531    0.8373 H   0  0  0  0  0  0  0  0  0  0  0  0
   -2.7175   -0.6504    1.5625 H   0  0  0  0  0  0  0  0  0  0  0  0
   -3.8843   -1.9334    2.0509 H   0  0  0  0  0  0  0  0  0  0  0  0
   -0.1517   -4.6021    0.2835 H   0  0  0  0  0  0  0  0  0  0  0  0
    1.7140   -6.1945    0.4890 H   0  0  0  0  0  0  0  0  0  0  0  0
    4.0546   -5.3926    0.5474 H   0  0  0  0  0  0  0  0  0  0  0  0
    4.5535   -2.9770    0.4038 H   0  0  0  0  0  0  0  0  0  0  0  0
   -0.4055    1.5528    0.7420 H   0  0  0  0  0  0  0  0  0  0  0  0
   -1.6212    3.6547    0.5732 H   0  0  0  0  0  0  0  0  0  0  0  0
   -0.5536    5.6542   -0.3710 H   0  0  0  0  0  0  0  0  0  0  0  0
    3.0893    3.4118   -0.9753 H   0  0  0  0  0  0  0  0  0  0  0  0
  1 30  1  0  0  0  0
  1 31  1  0  0  0  0
  1 32  1  0  0  0  0
  2  1  1  0  0  0  0
  2 33  1  0  0  0  0
  3  2  1  0  0  0  0
  3 34  1  0  0  0  0
  3 35  1  0  0  0  0
  4  3  1  0  0  0  0
  4 36  1  0  0  0  0
  4 37  1  0  0  0  0
  5  4  1  0  0  0  0
  6  5  1  0  0  0  0
  6 38  1  0  0  0  0
  6 39  1  0  0  0  0
  7  6  1  0  0  0  0
  7  2  1  0  0  0  0
  7 40  1  0  0  0  0
  7 41  1  0  0  0  0
  8  5  1  0  0  0  0
  9  8  2  0  0  0  0
 10  9  1  0  0  0  0
 11 10  1  0  0  0  0
 12 11  2  0  0  0  0
 13 12  1  0  0  0  0
 14 13  2  0  0  0  0
 14 10  1  0  0  0  0
 15 14  1  0  0  0  0
 16 15  2  0  0  0  0
 16  8  1  0  0  0  0
 17 16  1  0  0  0  0
 17 42  1  0  0  0  0
 18 17  2  0  0  0  0
 18 43  1  0  0  0  0
 19 18  1  0  0  0  0
 19 44  1  0  0  0  0
 20 19  2  0  0  0  0
 20 15  1  0  0  0  0
 20 45  1  0  0  0  0
 21 11  1  0  0  0  0
 22 21  2  0  0  0  0
 22 46  1  0  0  0  0
 23 22  1  0  0  0  0
 23 47  1  0  0  0  0
 24 23  2  0  0  0  0
 24 48  1  0  0  0  0
 25 24  1  0  0  0  0
 26 25  2  0  0  0  0
 26 21  1  0  0  0  0
 26 49  1  0  0  0  0
 27 25  1  0  0  0  0
 28 27  2  0  0  0  0
 29 27  2  0  0  0  0
M  CHG  1   2   1
M  END
>  <MOL Chiral Flag>
0

>  <energy>
177.18629203083506

$$$$
> 182_AKC_ardp.201900325
>177.sdf
 OpenBabel10052220183D

 26 28  0  0  0  0  0  0  0  0999 V2000
   -6.7226    4.3894    1.6123 Cl  0  0  0  0  0  0  0  0  0  0  0  0
   -5.1842    3.5807    1.3740 C   0  0  0  0  0  0  0  0  0  0  0  0
   -4.5226    3.0020    2.4577 C   0  0  0  0  0  0  0  0  0  0  0  0
   -3.3022    2.3467    2.2682 C   0  0  0  0  0  0  0  0  0  0  0  0
   -2.7185    2.2631    0.9853 C   0  0  0  0  0  0  0  0  0  0  0  0
   -3.4007    2.8607   -0.1008 C   0  0  0  0  0  0  0  0  0  0  0  0
   -4.6228    3.5100    0.0986 C   0  0  0  0  0  0  0  0  0  0  0  0
   -1.4181    1.5261    0.8172 C   0  0  0  0  0  0  0  0  0  0  0  0
   -0.9536    0.9354    1.7836 O   0  0  0  0  0  0  0  0  0  0  0  0
   -0.7511    1.4972   -0.3780 N   0  0  0  0  0  0  0  0  0  0  0  0
    0.4442    0.7522   -0.5897 C   0  0  0  0  0  0  0  0  0  0  0  0
    1.0101   -0.1069    0.3116 N   0  0  0  0  0  0  0  0  0  0  0  0
    2.1311   -0.7091   -0.2188 C   0  0  0  0  0  0  0  0  0  0  0  0
    2.4517   -0.3346   -1.5119 C   0  0  0  0  0  0  0  0  0  0  0  0
    1.3214    0.7525   -2.0065 S   0  0  0  0  0  0  0  0  0  0  0  0
    3.5177   -0.8336   -2.1756 N   0  0  0  0  0  0  0  0  0  0  0  0
    4.3061   -1.7469   -1.5353 C   0  0  0  0  0  0  0  0  0  0  0  0
    5.6998   -2.4164   -2.3553 Cl  0  0  0  0  0  0  0  0  0  0  0  0
    4.0124   -2.1440   -0.2550 N   0  0  0  0  0  0  0  0  0  0  0  0
    2.9355   -1.6418    0.4198 C   0  0  0  0  0  0  0  0  0  0  0  0
   -4.9560    3.0550    3.4483 H   0  0  0  0  0  0  0  0  0  0  0  0
   -2.8140    1.9030    3.1268 H   0  0  0  0  0  0  0  0  0  0  0  0
   -3.0193    2.8255   -1.1071 H   0  0  0  0  0  0  0  0  0  0  0  0
   -5.1369    3.9544   -0.7444 H   0  0  0  0  0  0  0  0  0  0  0  0
   -1.1056    2.0268   -1.1814 H   0  0  0  0  0  0  0  0  0  0  0  0
    2.7180   -1.9702    1.4274 H   0  0  0  0  0  0  0  0  0  0  0  0
  2  1  1  0  0  0  0
  3  2  2  0  0  0  0
  3 21  1  0  0  0  0
  4  3  1  0  0  0  0
  4 22  1  0  0  0  0
  5  4  2  0  0  0  0
  6  5  1  0  0  0  0
  6 23  1  0  0  0  0
  7  6  2  0  0  0  0
  7  2  1  0  0  0  0
  7 24  1  0  0  0  0
  8  5  1  0  0  0  0
  9  8  2  0  0  0  0
 10  8  1  0  0  0  0
 10 25  1  0  0  0  0
 11 10  1  0  0  0  0
 12 11  2  0  0  0  0
 13 12  1  0  0  0  0
 14 13  2  0  0  0  0
 15 14  1  0  0  0  0
 15 11  1  0  0  0  0
 16 14  1  0  0  0  0
 17 16  2  0  0  0  0
 18 17  1  0  0  0  0
 19 17  1  0  0  0  0
 20 19  2  0  0  0  0
 20 13  1  0  0  0  0
 20 26  1  0  0  0  0
M  END
>  <MOL Chiral Flag>
0

>  <energy>
-1.1496587056857237

$$$$
> 183_AKC_acs.jmedchem.0c00570
>178.sdf
 OpenBabel10052220193D

 53 56  0  0  0  0  0  0  0  0999 V2000
   -1.3615   -2.7185   -1.7588 C   0  0  0  0  0  0  0  0  0  0  0  0
   -1.8129   -1.3855   -1.3979 N   0  0  0  0  0  0  0  0  0  0  0  0
   -3.0638   -1.3169   -0.6094 C   0  0  2  0  0  0  0  0  0  0  0  0
   -3.9477   -0.0527   -0.7769 C   0  0  0  0  0  0  0  0  0  0  0  0
   -3.5439    1.1132    0.1465 C   0  0  0  0  0  0  0  0  0  0  0  0
   -3.4905    0.6543    1.5530 N   0  3  2  0  0  0  0  0  0  0  0  0
   -3.2560    1.7815    2.4694 C   0  0  0  0  0  0  0  0  0  0  0  0
   -2.4419   -0.3802    1.6961 C   0  0  0  0  0  0  0  0  0  0  0  0
   -2.8385   -1.6295    0.8887 C   0  0  0  0  0  0  0  0  0  0  0  0
   -0.7723   -0.4206   -1.2492 C   0  0  0  0  0  0  0  0  0  0  0  0
    0.4131   -0.7681   -0.6205 N   0  0  0  0  0  0  0  0  0  0  0  0
    1.4808    0.0905   -0.5666 C   0  0  0  0  0  0  0  0  0  0  0  0
    2.5936   -0.1632    0.3012 N   0  0  0  0  0  0  0  0  0  0  0  0
    2.6100    0.4750    1.5992 C   0  0  0  0  0  0  0  0  0  0  0  0
    3.9240    0.0058    2.2259 C   0  0  0  0  0  0  0  0  0  0  0  0
    4.2039   -1.2909    1.4604 C   0  0  0  0  0  0  0  0  0  0  0  0
    3.8609   -0.8424    0.0213 C   0  0  1  0  0  0  0  0  0  0  0  0
    3.9132   -2.0122   -1.0333 C   0  0  0  0  0  0  0  0  0  0  0  0
    5.0922   -1.9690   -1.9380 C   0  0  0  0  0  0  0  0  0  0  0  0
    5.9815   -1.9950   -2.6843 N   0  0  0  0  0  0  0  0  0  0  0  0
    1.3306    1.3242   -1.1824 C   0  0  0  0  0  0  0  0  0  0  0  0
    2.3461    2.6212   -1.2997 S   0  0  0  0  0  0  0  0  0  0  0  0
    1.3838    3.6168   -2.2322 C   0  0  0  0  0  0  0  0  0  0  0  0
    0.1814    2.9287   -2.4638 C   0  0  0  0  0  0  0  0  0  0  0  0
    0.1621    1.6487   -1.8522 C   0  0  0  0  0  0  0  0  0  0  0  0
   -0.8817    0.7852   -1.8821 N   0  0  0  0  0  0  0  0  0  0  0  0
   -2.2079   -3.3607   -2.0849 H   0  0  0  0  0  0  0  0  0  0  0  0
   -0.8395   -3.1901   -0.9028 H   0  0  0  0  0  0  0  0  0  0  0  0
   -0.6641   -2.6506   -2.6220 H   0  0  0  0  0  0  0  0  0  0  0  0
   -3.7028   -2.1388   -1.0084 H   0  0  0  0  0  0  0  0  0  0  0  0
   -4.9770   -0.3305   -0.4474 H   0  0  0  0  0  0  0  0  0  0  0  0
   -4.0238    0.2555   -1.8405 H   0  0  0  0  0  0  0  0  0  0  0  0
   -4.3086    1.9164    0.0370 H   0  0  0  0  0  0  0  0  0  0  0  0
   -2.5685    1.5428   -0.1554 H   0  0  0  0  0  0  0  0  0  0  0  0
   -4.4185    0.2448    1.8231 H   0  0  0  0  0  0  0  0  0  0  0  0
   -2.2956    2.2932    2.2489 H   0  0  0  0  0  0  0  0  0  0  0  0
   -3.2446    1.4251    3.5243 H   0  0  0  0  0  0  0  0  0  0  0  0
   -4.0874    2.5184    2.3913 H   0  0  0  0  0  0  0  0  0  0  0  0
   -2.3439   -0.6825    2.7627 H   0  0  0  0  0  0  0  0  0  0  0  0
   -1.4545    0.0149    1.3694 H   0  0  0  0  0  0  0  0  0  0  0  0
   -3.7992   -1.9860    1.3205 H   0  0  0  0  0  0  0  0  0  0  0  0
   -2.0985   -2.4474    1.0153 H   0  0  0  0  0  0  0  0  0  0  0  0
    1.7433    0.1050    2.1864 H   0  0  0  0  0  0  0  0  0  0  0  0
    2.5764    1.5846    1.5233 H   0  0  0  0  0  0  0  0  0  0  0  0
    3.9082   -0.0312    3.3373 H   0  0  0  0  0  0  0  0  0  0  0  0
    4.7346    0.7091    1.9350 H   0  0  0  0  0  0  0  0  0  0  0  0
    3.4647   -2.0588    1.8014 H   0  0  0  0  0  0  0  0  0  0  0  0
    5.2216   -1.6957    1.6287 H   0  0  0  0  0  0  0  0  0  0  0  0
    4.5975   -0.0350   -0.2416 H   0  0  0  0  0  0  0  0  0  0  0  0
    3.0381   -2.0273   -1.7039 H   0  0  0  0  0  0  0  0  0  0  0  0
    3.9412   -3.0080   -0.5356 H   0  0  0  0  0  0  0  0  0  0  0  0
    1.6380    4.6025   -2.5931 H   0  0  0  0  0  0  0  0  0  0  0  0
   -0.6372    3.3330   -3.0460 H   0  0  0  0  0  0  0  0  0  0  0  0
  1 27  1  0  0  0  0
  1 28  1  0  0  0  0
  1 29  1  0  0  0  0
  2  1  1  0  0  0  0
  3  2  1  0  0  0  0
  3 30  1  6  0  0  0
  4  3  1  0  0  0  0
  4 31  1  0  0  0  0
  4 32  1  0  0  0  0
  5  4  1  0  0  0  0
  5 33  1  0  0  0  0
  5 34  1  0  0  0  0
  6  5  1  0  0  0  0
  6 35  1  1  0  0  0
  7  6  1  0  0  0  0
  7 36  1  0  0  0  0
  7 37  1  0  0  0  0
  7 38  1  0  0  0  0
  8  6  1  0  0  0  0
  8 39  1  0  0  0  0
  8 40  1  0  0  0  0
  9  8  1  0  0  0  0
  9  3  1  0  0  0  0
  9 41  1  0  0  0  0
  9 42  1  0  0  0  0
 10  2  1  0  0  0  0
 11 10  2  0  0  0  0
 12 11  1  0  0  0  0
 13 12  1  0  0  0  0
 14 13  1  0  0  0  0
 14 43  1  0  0  0  0
 14 44  1  0  0  0  0
 15 14  1  0  0  0  0
 15 45  1  0  0  0  0
 15 46  1  0  0  0  0
 16 15  1  0  0  0  0
 16 47  1  0  0  0  0
 16 48  1  0  0  0  0
 17 16  1  0  0  0  0
 17 13  1  0  0  0  0
 17 49  1  6  0  0  0
 18 17  1  0  0  0  0
 18 50  1  0  0  0  0
 18 51  1  0  0  0  0
 19 18  1  0  0  0  0
 20 19  3  0  0  0  0
 21 12  2  0  0  0  0
 22 21  1  0  0  0  0
 23 22  1  0  0  0  0
 23 52  1  0  0  0  0
 24 23  2  0  0  0  0
 24 53  1  0  0  0  0
 25 24  1  0  0  0  0
 25 21  1  0  0  0  0
 26 25  2  0  0  0  0
 26 10  1  0  0  0  0
M  CHG  1   6   1
M  END
>  <MOL Chiral Flag>
0

>  <energy>
-47.499390999544033

$$$$
> 184_AKC
>179.sdf
 OpenBabel10052220193D

 38 40  0  0  0  0  0  0  0  0999 V2000
   -9.0087    0.2314   -2.0154 Br  0  0  0  0  0  0  0  0  0  0  0  0
   -8.1628   -1.2737   -1.1957 C   0  0  0  0  0  0  0  0  0  0  0  0
   -6.7969   -1.2378   -0.9051 C   0  0  0  0  0  0  0  0  0  0  0  0
   -6.1655   -2.3484   -0.3317 C   0  0  0  0  0  0  0  0  0  0  0  0
   -6.8960   -3.5195   -0.0499 C   0  0  0  0  0  0  0  0  0  0  0  0
   -8.2839   -3.5290   -0.3231 C   0  0  0  0  0  0  0  0  0  0  0  0
   -8.9074   -2.4147   -0.8947 C   0  0  0  0  0  0  0  0  0  0  0  0
   -6.2353   -4.7631    0.4744 C   0  0  0  0  0  0  0  0  0  0  0  0
   -6.9405   -5.7255    0.7459 O   0  0  0  0  0  0  0  0  0  0  0  0
   -4.7245   -4.9287    0.6170 C   0  0  0  0  0  0  0  0  0  0  0  0
   -3.8290   -4.5557   -0.9449 S   0  0  0  0  0  0  0  0  0  0  0  0
   -2.3308   -3.7243   -0.3302 C   0  0  0  0  0  0  0  0  0  0  0  0
   -1.3819   -4.2877    0.4761 N   0  0  0  0  0  0  0  0  0  0  0  0
   -0.2359   -3.5672    0.5632 N   0  0  0  0  0  0  0  0  0  0  0  0
   -0.2498   -2.4333   -0.1950 C   0  0  0  0  0  0  0  0  0  0  0  0
   -1.7060   -2.3298   -0.9663 S   0  0  0  0  0  0  0  0  0  0  0  0
    0.8495   -1.5456   -0.4063 N   0  0  0  0  0  0  0  0  0  0  0  0
    2.0150   -1.6575    0.1455 C   0  0  0  0  0  0  0  0  0  0  0  0
    3.0892   -0.6582   -0.1502 C   0  0  0  0  0  0  0  0  0  0  0  0
    4.3077   -0.6932    0.5528 C   0  0  0  0  0  0  0  0  0  0  0  0
    5.3004    0.2690    0.3095 C   0  0  0  0  0  0  0  0  0  0  0  0
    5.0997    1.2806   -0.6494 C   0  0  0  0  0  0  0  0  0  0  0  0
    3.8910    1.2975   -1.3708 C   0  0  0  0  0  0  0  0  0  0  0  0
    2.8980    0.3425   -1.1219 C   0  0  0  0  0  0  0  0  0  0  0  0
    6.0981    2.2808   -0.8835 N   0  0  0  0  0  0  0  0  0  0  0  0
    7.1103    2.2832   -0.2448 O   0  0  0  0  0  0  0  0  0  0  0  0
    5.9155    3.1420   -1.6876 O   0  0  0  0  0  0  0  0  0  0  0  0
   -6.2198   -0.3522   -1.1363 H   0  0  0  0  0  0  0  0  0  0  0  0
   -5.1086   -2.2896   -0.1253 H   0  0  0  0  0  0  0  0  0  0  0  0
   -8.8837   -4.4075   -0.1188 H   0  0  0  0  0  0  0  0  0  0  0  0
   -9.9673   -2.4447   -1.1187 H   0  0  0  0  0  0  0  0  0  0  0  0
   -4.5182   -5.9994    0.8470 H   0  0  0  0  0  0  0  0  0  0  0  0
   -4.3445   -4.3188    1.4579 H   0  0  0  0  0  0  0  0  0  0  0  0
    2.2167   -2.4615    0.8498 H   0  0  0  0  0  0  0  0  0  0  0  0
    4.4860   -1.4535    1.3026 H   0  0  0  0  0  0  0  0  0  0  0  0
    6.2232    0.2303    0.8764 H   0  0  0  0  0  0  0  0  0  0  0  0
    3.7112    2.0578   -2.1204 H   0  0  0  0  0  0  0  0  0  0  0  0
    1.9776    0.3894   -1.6882 H   0  0  0  0  0  0  0  0  0  0  0  0
  2  1  1  0  0  0  0
  3  2  2  0  0  0  0
  3 28  1  0  0  0  0
  4  3  1  0  0  0  0
  4 29  1  0  0  0  0
  5  4  2  0  0  0  0
  6  5  1  0  0  0  0
  6 30  1  0  0  0  0
  7  6  2  0  0  0  0
  7  2  1  0  0  0  0
  7 31  1  0  0  0  0
  8  5  1  0  0  0  0
  9  8  2  0  0  0  0
 10  8  1  0  0  0  0
 10 32  1  0  0  0  0
 10 33  1  0  0  0  0
 11 10  1  0  0  0  0
 12 11  1  0  0  0  0
 13 12  2  0  0  0  0
 14 13  1  0  0  0  0
 15 14  2  0  0  0  0
 16 15  1  0  0  0  0
 16 12  1  0  0  0  0
 17 15  1  0  0  0  0
 18 17  2  0  0  0  0
 18 34  1  0  0  0  0
 19 18  1  0  0  0  0
 20 19  2  0  0  0  0
 20 35  1  0  0  0  0
 21 20  1  0  0  0  0
 21 36  1  0  0  0  0
 22 21  2  0  0  0  0
 23 22  1  0  0  0  0
 23 37  1  0  0  0  0
 24 23  2  0  0  0  0
 24 19  1  0  0  0  0
 24 38  1  0  0  0  0
 25 22  1  0  0  0  0
 26 25  2  0  0  0  0
 27 25  2  0  0  0  0
M  END
>  <MOL Chiral Flag>
0

>  <energy>
115.77424697594718

$$$$
> 185_AKC_D0MD00123F
>180.sdf
 OpenBabel10102213003D

102106  0  0  1  0  0  0  0  0999 V2000
   -1.5379   25.0437   10.5084 O   0  0  0  0  0  0  0  0  0  0  0  0
   -1.6115   23.0884   13.7823 C   0  0  0  0  0  0  0  0  0  0  0  0
   -2.4423   22.6214   14.3528 H   0  0  0  0  0  0  0  0  0  0  0  0
   -1.2542   23.9588   14.3759 H   0  0  0  0  0  0  0  0  0  0  0  0
    1.9683   25.1162   11.5893 O   0  0  0  0  0  0  0  0  0  0  0  0
   -2.1646   23.6677   12.4580 C   0  0  0  0  0  0  0  0  0  0  0  0
   -2.9582   24.4069   12.7011 H   0  0  0  0  0  0  0  0  0  0  0  0
   -2.6462   22.8636   11.8796 H   0  0  0  0  0  0  0  0  0  0  0  0
    4.7033   17.4757   18.6699 O   0  0  0  0  0  0  0  0  0  0  0  0
   -1.0521   24.3775   11.6395 C   0  0  1  0  0  0  0  0  0  0  0  0
   -0.6622   25.1797   12.3058 H   0  0  0  0  0  0  0  0  0  0  0  0
    3.1247   17.4882   17.0793 O   0  0  0  0  0  0  0  0  0  0  0  0
    0.1718   23.4423   11.3252 C   0  0  1  0  0  0  0  0  0  0  0  0
    0.6607   22.8279   12.7076 C   0  0  2  0  0  0  0  0  0  0  0  0
    0.9217   23.7326   13.3047 H   0  0  0  0  0  0  0  0  0  0  0  0
    1.9953   22.0344   12.6378 C   0  0  0  0  0  0  0  0  0  0  0  0
    2.7607   22.6010   12.0748 H   0  0  0  0  0  0  0  0  0  0  0  0
    1.8614   21.0719   12.1096 H   0  0  0  0  0  0  0  0  0  0  0  0
    2.5966   21.8672   14.0517 C   0  0  0  0  0  0  0  0  0  0  0  0
    3.5855   21.3671   13.9726 H   0  0  0  0  0  0  0  0  0  0  0  0
    2.7747   22.8877   14.4480 H   0  0  0  0  0  0  0  0  0  0  0  0
    1.6704   21.0835   15.0138 C   0  0  2  0  0  0  0  0  0  0  0  0
    0.2377   21.7679   14.9907 C   0  0  1  0  0  0  0  0  0  0  0  0
    0.4046   22.7924   15.3627 H   0  0  0  0  0  0  0  0  0  0  0  0
   -0.4326   22.0743   13.5815 C   0  0  1  0  0  0  0  0  0  0  0  0
   -0.6277   21.0831   16.0456 C   0  0  0  0  0  0  0  0  0  0  0  0
   -1.6469   21.4366   16.1810 H   0  0  0  0  0  0  0  0  0  0  0  0
    0.0259   20.6067   17.0992 C   0  0  0  0  0  0  0  0  0  0  0  0
   -0.6828   20.4768   17.8782 H   0  0  0  0  0  0  0  0  0  0  0  0
    1.2454   20.2388   17.4226 C   0  0  0  0  0  0  0  0  0  0  0  0
    2.1893   21.1066   16.5632 C   0  0  1  0  0  0  0  0  0  0  0  0
    3.6761   20.6095   16.6498 C   0  0  0  0  0  0  0  0  0  0  0  0
    3.8633   19.6851   16.0857 H   0  0  0  0  0  0  0  0  0  0  0  0
    4.3585   21.3763   16.2238 H   0  0  0  0  0  0  0  0  0  0  0  0
    4.0724   20.3016   18.0896 C   0  0  0  0  0  0  0  0  0  0  0  0
    3.9609   21.2079   18.7087 H   0  0  0  0  0  0  0  0  0  0  0  0
    5.1522   20.0442   18.1602 H   0  0  0  0  0  0  0  0  0  0  0  0
    3.2028   19.1426   18.6383 C   0  0  2  0  0  0  0  0  0  0  0  0
    1.7000   19.3176   18.2985 C   0  0  0  0  0  0  0  0  0  0  0  0
    0.7648   18.2827   18.9249 C   0  0  0  0  0  0  0  0  0  0  0  0
    1.0674   17.2824   18.5491 H   0  0  0  0  0  0  0  0  0  0  0  0
   -0.2979   18.4125   18.6327 H   0  0  0  0  0  0  0  0  0  0  0  0
    0.9050   18.2853   20.4713 C   0  0  0  0  0  0  0  0  0  0  0  0
    2.4043   18.1115   20.8553 C   0  0  0  0  0  0  0  0  0  0  0  0
    2.5237   18.1585   21.9602 H   0  0  0  0  0  0  0  0  0  0  0  0
    2.7569   17.1086   20.5284 H   0  0  0  0  0  0  0  0  0  0  0  0
    3.3091   19.1719   20.1994 C   0  0  0  0  0  0  0  0  0  0  0  0
    4.3598   19.0201   20.5308 H   0  0  0  0  0  0  0  0  0  0  0  0
    3.0139   20.1721   20.5803 H   0  0  0  0  0  0  0  0  0  0  0  0
   -0.1549   22.3670   10.2535 C   0  0  0  0  0  0  0  0  0  0  0  0
   -0.3409   22.8382    9.2662 H   0  0  0  0  0  0  0  0  0  0  0  0
   -1.0410   21.7636   10.4589 H   0  0  0  0  0  0  0  0  0  0  0  0
    0.7063   21.6822   10.1081 H   0  0  0  0  0  0  0  0  0  0  0  0
    1.3090   24.3020   10.6828 C   0  0  0  0  0  0  0  0  0  0  0  0
    2.0870   23.6247   10.2722 H   0  0  0  0  0  0  0  0  0  0  0  0
    0.9383   24.8664    9.7972 H   0  0  0  0  0  0  0  0  0  0  0  0
   -1.0228   20.7713   12.9641 C   0  0  0  0  0  0  0  0  0  0  0  0
   -1.6056   20.2128   13.7252 H   0  0  0  0  0  0  0  0  0  0  0  0
   -0.2816   20.1069   12.5107 H   0  0  0  0  0  0  0  0  0  0  0  0
   -1.7607   20.9395   12.1735 H   0  0  0  0  0  0  0  0  0  0  0  0
    1.6229   19.5897   14.5272 C   0  0  0  0  0  0  0  0  0  0  0  0
    1.3548   19.4565   13.4806 H   0  0  0  0  0  0  0  0  0  0  0  0
    0.9245   18.9696   15.1241 H   0  0  0  0  0  0  0  0  0  0  0  0
    2.6095   19.0998   14.5566 H   0  0  0  0  0  0  0  0  0  0  0  0
    2.1772   22.5564   17.1903 C   0  0  0  0  0  0  0  0  0  0  0  0
    2.4836   22.5713   18.2501 H   0  0  0  0  0  0  0  0  0  0  0  0
    1.1736   23.0159   17.2557 H   0  0  0  0  0  0  0  0  0  0  0  0
    2.8436   23.2503   16.6413 H   0  0  0  0  0  0  0  0  0  0  0  0
    3.7376   17.8299   18.0544 C   0  0  0  0  0  0  0  0  0  0  0  0
    0.3241   19.5931   21.0577 C   0  0  0  0  0  0  0  0  0  0  0  0
    0.4337   19.6042   22.1640 H   0  0  0  0  0  0  0  0  0  0  0  0
   -0.7573   19.6758   20.8162 H   0  0  0  0  0  0  0  0  0  0  0  0
    0.8194   20.4964   20.6497 H   0  0  0  0  0  0  0  0  0  0  0  0
    0.1128   17.1011   21.0631 C   0  0  0  0  0  0  0  0  0  0  0  0
    0.2093   17.0787   22.1708 H   0  0  0  0  0  0  0  0  0  0  0  0
    0.4957   16.1350   20.6675 H   0  0  0  0  0  0  0  0  0  0  0  0
   -0.9652   17.1765   20.8062 H   0  0  0  0  0  0  0  0  0  0  0  0
   -2.3144   24.5430    9.5020 C   0  0  0  0  0  0  0  0  0  0  0  0
   -2.8669   23.4607    9.6188 O   0  0  0  0  0  0  0  0  0  0  0  0
   -2.4919   25.2926    8.2046 C   0  0  0  0  0  0  0  0  0  0  0  0
   -1.7449   26.6293    8.0823 C   0  0  0  0  0  0  0  0  0  0  0  0
   -3.5752   25.4647    8.0234 H   0  0  0  0  0  0  0  0  0  0  0  0
   -2.1126   24.6270    7.3989 H   0  0  0  0  0  0  0  0  0  0  0  0
   -2.3039   27.7237    9.0012 C   0  0  0  0  0  0  0  0  0  0  0  0
   -1.8714   26.9709    7.0306 H   0  0  0  0  0  0  0  0  0  0  0  0
   -0.6585   26.4783    8.2665 H   0  0  0  0  0  0  0  0  0  0  0  0
   -1.6162   29.0333    8.7350 C   0  0  0  0  0  0  0  0  0  0  0  0
   -2.1696   27.4381   10.0650 H   0  0  0  0  0  0  0  0  0  0  0  0
   -3.3900   27.8576    8.8065 H   0  0  0  0  0  0  0  0  0  0  0  0
   -0.9996   29.5963    9.6249 O   0  0  0  0  0  0  0  0  0  0  0  0
   -1.6899   29.5984    7.5136 O   0  0  0  0  0  0  0  0  0  0  0  0
    2.2533   26.4206   11.3651 C   0  0  0  0  0  0  0  0  0  0  0  0
    1.5330   27.1022   10.6477 O   0  0  0  0  0  0  0  0  0  0  0  0
    3.5840   26.9431   11.8514 C   0  0  0  0  0  0  0  0  0  0  0  0
    4.0334   28.2606   11.1947 C   0  0  0  0  0  0  0  0  0  0  0  0
    3.5606   27.0425   12.9580 H   0  0  0  0  0  0  0  0  0  0  0  0
    4.3547   26.1808   11.6018 H   0  0  0  0  0  0  0  0  0  0  0  0
    4.1814   28.1659    9.6913 C   0  0  0  0  0  0  0  0  0  0  0  0
    5.0279   28.5298   11.6137 H   0  0  0  0  0  0  0  0  0  0  0  0
    3.3162   29.0695   11.4461 H   0  0  0  0  0  0  0  0  0  0  0  0
    4.5600   29.1397    9.0617 O   0  0  0  0  0  0  0  0  0  0  0  0
    3.9073   27.0203    9.0332 O   0  0  0  0  0  0  0  0  0  0  0  0
  1 78  1  0  0  0  0
  2  4  1  0  0  0  0
  2  3  1  0  0  0  0
  5 92  1  0  0  0  0
  6  7  1  0  0  0  0
  6  2  1  0  0  0  0
  8  6  1  0  0  0  0
 10 11  1  1  0  0  0
 10  1  1  0  0  0  0
 10  6  1  0  0  0  0
 12 69  2  0  0  0  0
 13 50  1  6  0  0  0
 13 10  1  0  0  0  0
 13 14  1  0  0  0  0
 14 15  1  1  0  0  0
 14 25  1  0  0  0  0
 16 14  1  0  0  0  0
 16 19  1  0  0  0  0
 17 16  1  0  0  0  0
 18 16  1  0  0  0  0
 19 21  1  0  0  0  0
 19 22  1  0  0  0  0
 20 19  1  0  0  0  0
 22 61  1  6  0  0  0
 22 31  1  0  0  0  0
 23 22  1  0  0  0  0
 23 24  1  1  0  0  0
 23 26  1  0  0  0  0
 25 57  1  6  0  0  0
 25  2  1  0  0  0  0
 25 23  1  0  0  0  0
 26 28  2  0  0  0  0
 27 26  1  0  0  0  0
 28 30  2  0  0  0  0
 28 29  1  0  0  0  0
 30 39  2  0  0  0  0
 31 32  1  0  0  0  0
 31 65  1  1  0  0  0
 31 30  1  0  0  0  0
 32 35  1  0  0  0  0
 33 32  1  0  0  0  0
 34 32  1  0  0  0  0
 35 37  1  0  0  0  0
 35 38  1  0  0  0  0
 35 36  1  0  0  0  0
 38 69  1  6  0  0  0
 38 47  1  0  0  0  0
 39 38  1  0  0  0  0
 39 40  1  0  0  0  0
 40 43  1  0  0  0  0
 41 40  1  0  0  0  0
 42 40  1  0  0  0  0
 43 44  1  0  0  0  0
 43 74  1  0  0  0  0
 43 70  1  0  0  0  0
 44 45  1  0  0  0  0
 46 44  1  0  0  0  0
 47 48  1  0  0  0  0
 47 49  1  0  0  0  0
 47 44  1  0  0  0  0
 50 52  1  0  0  0  0
 51 50  1  0  0  0  0
 53 50  1  0  0  0  0
 54 13  1  0  0  0  0
 54  5  1  0  0  0  0
 55 54  1  0  0  0  0
 56 54  1  0  0  0  0
 57 58  1  0  0  0  0
 59 57  1  0  0  0  0
 60 57  1  0  0  0  0
 61 64  1  0  0  0  0
 61 63  1  0  0  0  0
 62 61  1  0  0  0  0
 65 66  1  0  0  0  0
 67 65  1  0  0  0  0
 68 65  1  0  0  0  0
 69  9  2  0  0  0  0
 70 71  1  0  0  0  0
 72 70  1  0  0  0  0
 73 70  1  0  0  0  0
 74 75  1  0  0  0  0
 76 74  1  0  0  0  0
 77 74  1  0  0  0  0
 78 79  2  0  0  0  0
 78 80  1  0  0  0  0
 80 81  1  0  0  0  0
 80 82  1  0  0  0  0
 80 83  1  0  0  0  0
 81 84  1  0  0  0  0
 81 85  1  0  0  0  0
 81 86  1  0  0  0  0
 84 87  1  0  0  0  0
 84 88  1  0  0  0  0
 84 89  1  0  0  0  0
 87 90  2  0  0  0  0
 87 91  1  0  0  0  0
 92 93  2  0  0  0  0
 92 94  1  0  0  0  0
 94 95  1  0  0  0  0
 94 96  1  0  0  0  0
 94 97  1  0  0  0  0
 95 98  1  0  0  0  0
 95 99  1  0  0  0  0
 95100  1  0  0  0  0
 98101  2  0  0  0  0
 98102  1  0  0  0  0
M  END
$$$$
> 186_AKC_AAC.01766-19
>181.sdf
 OpenBabel10052220223D

 50 54  0  0  0  0  0  0  0  0999 V2000
    3.5699   -3.0955    1.6712 C   0  0  0  0  0  0  0  0  0  0  0  0
    2.9240   -2.4123    0.6621 O   0  0  0  0  0  0  0  0  0  0  0  0
    1.6824   -2.7114    0.1956 C   0  0  0  0  0  0  0  0  0  0  0  0
    1.2070   -4.0289    0.1383 C   0  0  0  0  0  0  0  0  0  0  0  0
   -0.0822   -4.2844   -0.3189 C   0  0  0  0  0  0  0  0  0  0  0  0
   -0.9208   -3.2396   -0.7212 C   0  0  0  0  0  0  0  0  0  0  0  0
   -0.4686   -1.8984   -0.7027 C   0  0  0  0  0  0  0  0  0  0  0  0
   -1.2312   -0.7450   -1.1131 C   0  0  0  0  0  0  0  0  0  0  0  0
   -2.5729   -0.7119   -1.6367 N   0  0  0  0  0  0  0  0  0  0  0  0
   -3.5244   -1.7791   -1.8738 C   0  0  0  0  0  0  0  0  0  0  0  0
   -4.4393   -2.0471   -0.6921 C   0  0  0  0  0  0  0  0  0  0  0  0
   -5.4901   -2.9671   -0.8523 C   0  0  0  0  0  0  0  0  0  0  0  0
   -6.4008   -3.1954    0.1844 C   0  0  0  0  0  0  0  0  0  0  0  0
   -6.2752   -2.5066    1.3920 C   0  0  0  0  0  0  0  0  0  0  0  0
   -5.2345   -1.5918    1.5686 C   0  0  0  0  0  0  0  0  0  0  0  0
   -4.3167   -1.3598    0.5358 C   0  0  0  0  0  0  0  0  0  0  0  0
   -0.6302    0.4682   -1.0175 N   0  0  0  0  0  0  0  0  0  0  0  0
    0.6205    0.6675   -0.5560 C   0  0  0  0  0  0  0  0  0  0  0  0
    1.1425    2.0125   -0.4362 N   0  0  0  0  0  0  0  0  0  0  0  0
    0.6498    3.1571   -1.0048 C   0  0  0  0  0  0  0  0  0  0  0  0
   -0.4462    3.2301   -1.9027 N   0  0  0  0  0  0  0  0  0  0  0  0
    1.3528    4.2592   -0.6501 N   0  0  0  0  0  0  0  0  0  0  0  0
    2.3134    3.7924    0.1611 C   0  0  0  0  0  0  0  0  0  0  0  0
    3.2935    4.5312    0.8125 C   0  0  0  0  0  0  0  0  0  0  0  0
    4.1995    3.8406    1.6341 C   0  0  0  0  0  0  0  0  0  0  0  0
    4.1010    2.4380    1.7801 C   0  0  0  0  0  0  0  0  0  0  0  0
    3.0931    1.7177    1.1069 C   0  0  0  0  0  0  0  0  0  0  0  0
    2.2032    2.4349    0.2925 C   0  0  0  0  0  0  0  0  0  0  0  0
    1.3492   -0.3960   -0.1623 N   0  0  0  0  0  0  0  0  0  0  0  0
    0.8604   -1.6599   -0.2323 C   0  0  0  0  0  0  0  0  0  0  0  0
    3.6998   -4.1696    1.4348 H   0  0  0  0  0  0  0  0  0  0  0  0
    2.9917   -2.9772    2.6133 H   0  0  0  0  0  0  0  0  0  0  0  0
    4.5726   -2.6461    1.8241 H   0  0  0  0  0  0  0  0  0  0  0  0
    1.8273   -4.8610    0.4417 H   0  0  0  0  0  0  0  0  0  0  0  0
   -0.4407   -5.3058   -0.3560 H   0  0  0  0  0  0  0  0  0  0  0  0
   -1.8967   -3.5242   -1.0253 H   0  0  0  0  0  0  0  0  0  0  0  0
   -2.9052    0.2246   -1.9173 H   0  0  0  0  0  0  0  0  0  0  0  0
   -4.2212   -1.4043   -2.6557 H   0  0  0  0  0  0  0  0  0  0  0  0
   -3.0771   -2.6450   -2.3877 H   0  0  0  0  0  0  0  0  0  0  0  0
   -5.6112   -3.4957   -1.7894 H   0  0  0  0  0  0  0  0  0  0  0  0
   -7.2116   -3.8994    0.0467 H   0  0  0  0  0  0  0  0  0  0  0  0
   -6.9885   -2.6777    2.1890 H   0  0  0  0  0  0  0  0  0  0  0  0
   -5.1461   -1.0533    2.5040 H   0  0  0  0  0  0  0  0  0  0  0  0
   -3.5324   -0.6323    0.6941 H   0  0  0  0  0  0  0  0  0  0  0  0
   -0.7320    4.1462   -2.2750 H   0  0  0  0  0  0  0  0  0  0  0  0
   -0.9282    2.3992   -2.2603 H   0  0  0  0  0  0  0  0  0  0  0  0
    3.3522    5.6057    0.6953 H   0  0  0  0  0  0  0  0  0  0  0  0
    4.9723    4.3865    2.1595 H   0  0  0  0  0  0  0  0  0  0  0  0
    4.8021    1.9158    2.4182 H   0  0  0  0  0  0  0  0  0  0  0  0
    3.0284    0.6495    1.2384 H   0  0  0  0  0  0  0  0  0  0  0  0
  1 31  1  0  0  0  0
  1 32  1  0  0  0  0
  1 33  1  0  0  0  0
  2  1  1  0  0  0  0
  3  2  1  0  0  0  0
  4  3  2  0  0  0  0
  4 34  1  0  0  0  0
  5  4  1  0  0  0  0
  5 35  1  0  0  0  0
  6  5  2  0  0  0  0
  6 36  1  0  0  0  0
  7  6  1  0  0  0  0
  8  7  2  0  0  0  0
  9  8  1  0  0  0  0
  9 37  1  0  0  0  0
 10  9  1  0  0  0  0
 10 38  1  0  0  0  0
 10 39  1  0  0  0  0
 11 10  1  0  0  0  0
 12 11  2  0  0  0  0
 12 40  1  0  0  0  0
 13 12  1  0  0  0  0
 13 41  1  0  0  0  0
 14 13  2  0  0  0  0
 14 42  1  0  0  0  0
 15 14  1  0  0  0  0
 15 43  1  0  0  0  0
 16 15  2  0  0  0  0
 16 11  1  0  0  0  0
 16 44  1  0  0  0  0
 17  8  1  0  0  0  0
 18 17  2  0  0  0  0
 19 18  1  0  0  0  0
 20 19  1  0  0  0  0
 21 20  1  0  0  0  0
 21 45  1  0  0  0  0
 21 46  1  0  0  0  0
 22 20  2  0  0  0  0
 23 22  1  0  0  0  0
 24 23  1  0  0  0  0
 24 47  1  0  0  0  0
 25 24  2  0  0  0  0
 25 48  1  0  0  0  0
 26 25  1  0  0  0  0
 26 49  1  0  0  0  0
 27 26  2  0  0  0  0
 27 50  1  0  0  0  0
 28 27  1  0  0  0  0
 28 23  2  0  0  0  0
 28 19  1  0  0  0  0
 29 18  1  0  0  0  0
 30 29  2  0  0  0  0
 30  3  1  0  0  0  0
 30  7  1  0  0  0  0
M  END
>  <MOL Chiral Flag>
0

>  <energy>
61.838377501280121

$$$$
> 187_AKC_j.ejmech.2016.08.048
>182.sdf
 OpenBabel10052220233D

 55 60  0  0  0  0  0  0  0  0999 V2000
    1.7711   -4.1579   -2.0066 O   0  0  0  0  0  0  0  0  0  0  0  0
    0.9685   -3.6200   -1.2582 C   0  0  0  0  0  0  0  0  0  0  0  0
   -0.0341   -4.3569   -0.7166 N   0  0  0  0  0  0  0  0  0  0  0  0
   -1.1680   -3.7508   -0.2231 N   0  0  0  0  0  0  0  0  0  0  0  0
   -1.7608   -4.1701    0.8352 C   0  0  0  0  0  0  0  0  0  0  0  0
   -3.1450   -3.7499    1.1108 C   0  0  0  0  0  0  0  0  0  0  0  0
   -3.8696   -3.9834    2.2826 C   0  0  0  0  0  0  0  0  0  0  0  0
   -5.2416   -3.6120    2.1796 C   0  0  0  0  0  0  0  0  0  0  0  0
   -5.5883   -3.1108    0.9181 C   0  0  0  0  0  0  0  0  0  0  0  0
   -4.2016   -3.0962    0.0044 S   0  0  0  0  0  0  0  0  0  0  0  0
   -6.9468   -2.7769    0.4563 C   0  0  0  0  0  0  0  0  0  0  0  0
   -7.3276   -2.4090   -0.8392 C   0  0  0  0  0  0  0  0  0  0  0  0
   -8.7334   -2.2319   -0.9814 C   0  0  0  0  0  0  0  0  0  0  0  0
   -9.4492   -2.4590    0.1982 C   0  0  0  0  0  0  0  0  0  0  0  0
   -8.3367   -2.8678    1.3587 S   0  0  0  0  0  0  0  0  0  0  0  0
    1.1677   -2.2031   -0.8811 C   0  0  0  0  0  0  0  0  0  0  0  0
    0.9569   -1.8300    0.4118 N   0  0  0  0  0  0  0  0  0  0  0  0
    1.2590   -0.6106    0.8941 N   0  0  0  0  0  0  0  0  0  0  0  0
    1.1259   -0.4228    2.3439 C   0  0  0  0  0  0  0  0  0  0  0  0
    0.9703   -1.5642    3.1707 C   0  0  0  0  0  0  0  0  0  0  0  0
    0.8858   -1.4451    4.5599 C   0  0  0  0  0  0  0  0  0  0  0  0
    0.9441   -0.1913    5.1604 C   0  0  0  0  0  0  0  0  0  0  0  0
    1.0799    0.9499    4.3736 C   0  0  0  0  0  0  0  0  0  0  0  0
    1.1698    0.8468    2.9807 C   0  0  0  0  0  0  0  0  0  0  0  0
    1.7695    0.3585    0.0192 C   0  0  0  0  0  0  0  0  0  0  0  0
    2.1423    1.4367    0.4272 O   0  0  0  0  0  0  0  0  0  0  0  0
    1.9468    0.0157   -1.3349 C   0  0  0  0  0  0  0  0  0  0  0  0
    1.6912   -1.2568   -1.7449 C   0  0  0  0  0  0  0  0  0  0  0  0
    2.0528   -1.3170   -3.0699 C   0  0  0  0  0  0  0  0  0  0  0  0
    2.5029   -0.1010   -3.4410 N   0  0  0  0  0  0  0  0  0  0  0  0
    2.4240    0.7247   -2.3999 N   0  0  0  0  0  0  0  0  0  0  0  0
    2.7832    2.1217   -2.5407 C   0  0  0  0  0  0  0  0  0  0  0  0
    3.7292    2.4918   -3.5175 C   0  0  0  0  0  0  0  0  0  0  0  0
    4.0793    3.8323   -3.7009 C   0  0  0  0  0  0  0  0  0  0  0  0
    3.4800    4.8248   -2.9256 C   0  0  0  0  0  0  0  0  0  0  0  0
    2.5202    4.4799   -1.9742 C   0  0  0  0  0  0  0  0  0  0  0  0
    2.1658    3.1406   -1.7843 C   0  0  0  0  0  0  0  0  0  0  0  0
   -0.0610   -5.3737   -0.8919 H   0  0  0  0  0  0  0  0  0  0  0  0
   -1.2929   -4.9145    1.4723 H   0  0  0  0  0  0  0  0  0  0  0  0
   -3.4429   -4.4322    3.1691 H   0  0  0  0  0  0  0  0  0  0  0  0
   -5.9521   -3.7531    2.9830 H   0  0  0  0  0  0  0  0  0  0  0  0
   -6.6331   -2.2908   -1.6604 H   0  0  0  0  0  0  0  0  0  0  0  0
   -9.2063   -1.9593   -1.9159 H   0  0  0  0  0  0  0  0  0  0  0  0
  -10.5220   -2.3926    0.3221 H   0  0  0  0  0  0  0  0  0  0  0  0
    0.9358   -2.5581    2.7443 H   0  0  0  0  0  0  0  0  0  0  0  0
    0.7818   -2.3317    5.1727 H   0  0  0  0  0  0  0  0  0  0  0  0
    0.8823   -0.1033    6.2376 H   0  0  0  0  0  0  0  0  0  0  0  0
    1.1186    1.9236    4.8452 H   0  0  0  0  0  0  0  0  0  0  0  0
    1.2607    1.7690    2.4396 H   0  0  0  0  0  0  0  0  0  0  0  0
    1.9935   -2.1729   -3.7281 H   0  0  0  0  0  0  0  0  0  0  0  0
    4.2039    1.7372   -4.1315 H   0  0  0  0  0  0  0  0  0  0  0  0
    4.8139    4.1013   -4.4487 H   0  0  0  0  0  0  0  0  0  0  0  0
    3.7483    5.8629   -3.0723 H   0  0  0  0  0  0  0  0  0  0  0  0
    2.0381    5.2533   -1.3901 H   0  0  0  0  0  0  0  0  0  0  0  0
    1.3828    2.9249   -1.0797 H   0  0  0  0  0  0  0  0  0  0  0  0
  2  1  2  0  0  0  0
  3  2  1  0  0  0  0
  3 38  1  0  0  0  0
  4  3  1  0  0  0  0
  5  4  2  0  0  0  0
  5 39  1  0  0  0  0
  6  5  1  0  0  0  0
  7  6  2  0  0  0  0
  7 40  1  0  0  0  0
  8  7  1  0  0  0  0
  8 41  1  0  0  0  0
  9  8  2  0  0  0  0
 10  9  1  0  0  0  0
 10  6  1  0  0  0  0
 11  9  1  0  0  0  0
 12 11  2  0  0  0  0
 12 42  1  0  0  0  0
 13 12  1  0  0  0  0
 13 43  1  0  0  0  0
 14 13  2  0  0  0  0
 14 44  1  0  0  0  0
 15 14  1  0  0  0  0
 15 11  1  0  0  0  0
 16  2  1  0  0  0  0
 17 16  2  0  0  0  0
 18 17  1  0  0  0  0
 19 18  1  0  0  0  0
 20 19  2  0  0  0  0
 20 45  1  0  0  0  0
 21 20  1  0  0  0  0
 21 46  1  0  0  0  0
 22 21  2  0  0  0  0
 22 47  1  0  0  0  0
 23 22  1  0  0  0  0
 23 48  1  0  0  0  0
 24 23  2  0  0  0  0
 24 19  1  0  0  0  0
 24 49  1  0  0  0  0
 25 18  1  0  0  0  0
 26 25  2  0  0  0  0
 27 25  1  0  0  0  0
 28 27  2  0  0  0  0
 28 16  1  0  0  0  0
 29 28  1  0  0  0  0
 29 50  1  0  0  0  0
 30 29  2  0  0  0  0
 31 30  1  0  0  0  0
 31 27  1  0  0  0  0
 32 31  1  0  0  0  0
 33 32  2  0  0  0  0
 33 51  1  0  0  0  0
 34 33  1  0  0  0  0
 34 52  1  0  0  0  0
 35 34  2  0  0  0  0
 35 53  1  0  0  0  0
 36 35  1  0  0  0  0
 36 54  1  0  0  0  0
 37 36  2  0  0  0  0
 37 32  1  0  0  0  0
 37 55  1  0  0  0  0
M  END
>  <MOL Chiral Flag>
0

>  <energy>
218.23050348845052

$$$$
> 188_AKC_jhet.3990
>183.sdf
 OpenBabel10052220243D

 40 43  0  0  0  0  0  0  0  0999 V2000
   -0.6712   -2.7624    2.9262 N   0  0  0  0  0  0  0  0  0  0  0  0
   -0.8809   -2.1482    1.9680 C   0  0  0  0  0  0  0  0  0  0  0  0
   -1.1452   -1.3795    0.7760 C   0  0  0  0  0  0  0  0  0  0  0  0
   -0.3212   -1.4315   -0.3482 C   0  0  0  0  0  0  0  0  0  0  0  0
   -0.9239   -0.3569   -1.4483 S   0  0  0  0  0  0  0  0  0  0  0  0
   -2.2373    0.2112   -0.6140 C   0  0  0  0  0  0  0  0  0  0  0  0
   -2.2343   -0.4417    0.6472 C   0  0  0  0  0  0  0  0  0  0  0  0
   -3.1265   -0.1431    1.8317 C   0  0  0  0  0  0  0  0  0  0  0  0
   -4.5038    0.4862    1.6242 C   0  0  0  0  0  0  0  0  0  0  0  0
   -4.5543    1.8113    0.8668 C   0  0  0  0  0  0  0  0  0  0  0  0
   -4.4393    1.6037   -0.6390 C   0  0  0  0  0  0  0  0  0  0  0  0
   -3.0322    1.3596   -1.1581 C   0  0  0  0  0  0  0  0  0  0  0  0
    0.8553   -2.2167   -0.5101 N   0  0  0  0  0  0  0  0  0  0  0  0
    1.7848   -1.8512   -1.3264 C   0  0  0  0  0  0  0  0  0  0  0  0
    2.9671   -2.6816   -1.5902 C   0  0  0  0  0  0  0  0  0  0  0  0
    4.0286   -2.2781   -2.3907 C   0  0  0  0  0  0  0  0  0  0  0  0
    4.8940   -3.3438   -2.4210 C   0  0  0  0  0  0  0  0  0  0  0  0
    6.1102   -3.5016   -3.0773 C   0  0  0  0  0  0  0  0  0  0  0  0
    6.7755   -4.7334   -2.9427 C   0  0  0  0  0  0  0  0  0  0  0  0
    6.2107   -5.7673   -2.1585 C   0  0  0  0  0  0  0  0  0  0  0  0
    4.9790   -5.5716   -1.5007 C   0  0  0  0  0  0  0  0  0  0  0  0
    4.3462   -4.3389   -1.6552 C   0  0  0  0  0  0  0  0  0  0  0  0
    3.1692   -3.9419   -1.1340 N   0  0  0  0  0  0  0  0  0  0  0  0
   -2.5314    0.4817    2.5316 H   0  0  0  0  0  0  0  0  0  0  0  0
   -3.3331   -1.1013    2.3572 H   0  0  0  0  0  0  0  0  0  0  0  0
   -4.9054    0.6705    2.6456 H   0  0  0  0  0  0  0  0  0  0  0  0
   -5.1895   -0.2400    1.1353 H   0  0  0  0  0  0  0  0  0  0  0  0
   -5.5788    2.2116    1.0313 H   0  0  0  0  0  0  0  0  0  0  0  0
   -3.8337    2.5638    1.2564 H   0  0  0  0  0  0  0  0  0  0  0  0
   -5.1216    0.7846   -0.9572 H   0  0  0  0  0  0  0  0  0  0  0  0
   -4.7895    2.5318   -1.1430 H   0  0  0  0  0  0  0  0  0  0  0  0
   -2.4145    2.2738   -1.0336 H   0  0  0  0  0  0  0  0  0  0  0  0
   -3.1409    1.1975   -2.2540 H   0  0  0  0  0  0  0  0  0  0  0  0
    1.7152   -0.9017   -1.8503 H   0  0  0  0  0  0  0  0  0  0  0  0
    4.1438   -1.3273   -2.8949 H   0  0  0  0  0  0  0  0  0  0  0  0
    6.5283   -2.7038   -3.6781 H   0  0  0  0  0  0  0  0  0  0  0  0
    7.7210   -4.8906   -3.4454 H   0  0  0  0  0  0  0  0  0  0  0  0
    6.7274   -6.7135   -2.0661 H   0  0  0  0  0  0  0  0  0  0  0  0
    4.5374   -6.3570   -0.9018 H   0  0  0  0  0  0  0  0  0  0  0  0
    2.5339   -4.5018   -0.5226 H   0  0  0  0  0  0  0  0  0  0  0  0
  2  1  3  0  0  0  0
  3  2  1  0  0  0  0
  4  3  2  0  0  0  0
  5  4  1  0  0  0  0
  6  5  1  0  0  0  0
  7  6  2  0  0  0  0
  7  3  1  0  0  0  0
  8  7  1  0  0  0  0
  8 24  1  0  0  0  0
  8 25  1  0  0  0  0
  9  8  1  0  0  0  0
  9 26  1  0  0  0  0
  9 27  1  0  0  0  0
 10  9  1  0  0  0  0
 10 28  1  0  0  0  0
 10 29  1  0  0  0  0
 11 10  1  0  0  0  0
 11 30  1  0  0  0  0
 11 31  1  0  0  0  0
 12 11  1  0  0  0  0
 12  6  1  0  0  0  0
 12 32  1  0  0  0  0
 12 33  1  0  0  0  0
 13  4  1  0  0  0  0
 14 13  2  0  0  0  0
 14 34  1  0  0  0  0
 15 14  1  0  0  0  0
 16 15  2  0  0  0  0
 16 35  1  0  0  0  0
 17 16  1  0  0  0  0
 18 17  2  0  0  0  0
 18 36  1  0  0  0  0
 19 18  1  0  0  0  0
 19 37  1  0  0  0  0
 20 19  2  0  0  0  0
 20 38  1  0  0  0  0
 21 20  1  0  0  0  0
 21 39  1  0  0  0  0
 22 21  2  0  0  0  0
 22 17  1  0  0  0  0
 23 22  1  0  0  0  0
 23 15  1  0  0  0  0
 23 40  1  0  0  0  0
M  END
>  <MOL Chiral Flag>
0

>  <energy>
78.977436917181663

$$$$
> 189_AKC_acs.jmedchem.9b02016
>184.sdf
 OpenBabel10102213173D

 72 75  0  0  0  0  0  0  0  0999 V2000
    1.8091   -3.1968   -0.9089 O   0  0  0  0  0  0  0  0  0  0  0  0
    1.2302   -2.3868   -1.6167 C   0  0  0  0  0  0  0  0  0  0  0  0
    0.1008   -2.8117   -2.5195 C   0  0  0  0  0  0  0  0  0  0  0  0
   -0.2995   -4.2910   -2.4496 C   0  0  0  0  0  0  0  0  0  0  0  0
   -1.6117   -4.4763   -3.2279 C   0  0  0  0  0  0  0  0  0  0  0  0
   -2.1322   -5.9148   -3.1948 C   0  0  0  0  0  0  0  0  0  0  0  0
   -3.5412   -5.9742   -3.8069 C   0  0  0  0  0  0  0  0  0  0  0  0
   -4.0989   -7.4000   -3.7935 C   0  0  0  0  0  0  0  0  0  0  0  0
   -5.5413   -7.4294   -4.2437 C   0  0  0  0  0  0  0  0  0  0  0  0
   -6.3648   -6.8166   -3.5856 O   0  0  0  0  0  0  0  0  0  0  0  0
   -5.8993   -8.1380   -5.3596 N   0  0  0  0  0  0  0  0  0  0  0  0
   -7.2311   -8.3231   -5.8818 C   0  0  0  0  0  0  0  0  0  0  0  0
   -8.4129   -7.8976   -5.2191 C   0  0  0  0  0  0  0  0  0  0  0  0
   -9.6692   -8.1420   -5.7851 C   0  0  0  0  0  0  0  0  0  0  0  0
   -9.7767   -8.8048   -7.0064 C   0  0  0  0  0  0  0  0  0  0  0  0
   -8.6279   -9.2288   -7.6705 C   0  0  0  0  0  0  0  0  0  0  0  0
   -7.3680   -8.9933   -7.1141 C   0  0  0  0  0  0  0  0  0  0  0  0
    1.5654   -1.0714   -1.5948 N   0  0  0  0  0  0  0  0  0  0  0  0
    2.5169   -0.5625   -0.7678 O   0  0  0  0  0  0  0  0  0  0  0  0
    2.0081    0.5426    0.0248 C   0  0  0  0  0  0  0  0  0  0  0  0
    0.9209    1.3559   -0.7552 C   0  0  0  0  0  0  0  0  0  0  0  0
    1.2735    1.9766   -1.9784 C   0  0  0  0  0  0  0  0  0  0  0  0
    0.3265    2.6791   -2.7260 C   0  0  0  0  0  0  0  0  0  0  0  0
   -0.9896    2.7728   -2.2773 C   0  0  0  0  0  0  0  0  0  0  0  0
   -1.3644    2.1597   -1.0822 C   0  0  0  0  0  0  0  0  0  0  0  0
   -0.4251    1.4527   -0.3256 C   0  0  0  0  0  0  0  0  0  0  0  0
    1.5045    0.0592    1.4050 C   0  0  0  0  0  0  0  0  0  0  0  0
    1.0619    1.0106    2.3560 C   0  0  0  0  0  0  0  0  0  0  0  0
    0.6199    0.6102    3.6189 C   0  0  0  0  0  0  0  0  0  0  0  0
    0.6202   -0.7402    3.9637 C   0  0  0  0  0  0  0  0  0  0  0  0
    1.0689   -1.6919    3.0481 C   0  0  0  0  0  0  0  0  0  0  0  0
    1.5119   -1.2982    1.7809 C   0  0  0  0  0  0  0  0  0  0  0  0
    3.2259    1.4307    0.3721 C   0  0  0  0  0  0  0  0  0  0  0  0
    4.3728    0.8215    0.9270 C   0  0  0  0  0  0  0  0  0  0  0  0
    5.4914    1.5840    1.2761 C   0  0  0  0  0  0  0  0  0  0  0  0
    5.4863    2.9655    1.0862 C   0  0  0  0  0  0  0  0  0  0  0  0
    4.3617    3.5907    0.5518 C   0  0  0  0  0  0  0  0  0  0  0  0
    3.2386    2.8392    0.1990 C   0  0  0  0  0  0  0  0  0  0  0  0
    0.3498   -2.5482   -3.5708 H   0  0  0  0  0  0  0  0  0  0  0  0
   -0.7736   -2.2018   -2.2021 H   0  0  0  0  0  0  0  0  0  0  0  0
   -0.4791   -4.5761   -1.3895 H   0  0  0  0  0  0  0  0  0  0  0  0
    0.5116   -4.9289   -2.8642 H   0  0  0  0  0  0  0  0  0  0  0  0
   -1.4794   -4.1599   -4.2864 H   0  0  0  0  0  0  0  0  0  0  0  0
   -2.3760   -3.8191   -2.7554 H   0  0  0  0  0  0  0  0  0  0  0  0
   -1.4313   -6.5771   -3.7485 H   0  0  0  0  0  0  0  0  0  0  0  0
   -2.1951   -6.2596   -2.1391 H   0  0  0  0  0  0  0  0  0  0  0  0
   -4.2070   -5.3163   -3.2045 H   0  0  0  0  0  0  0  0  0  0  0  0
   -3.5239   -5.5976   -4.8537 H   0  0  0  0  0  0  0  0  0  0  0  0
   -4.0616   -7.8080   -2.7603 H   0  0  0  0  0  0  0  0  0  0  0  0
   -3.4607   -8.0389   -4.4413 H   0  0  0  0  0  0  0  0  0  0  0  0
   -5.1356   -8.5926   -5.8832 H   0  0  0  0  0  0  0  0  0  0  0  0
   -8.4055   -7.3957   -4.2708 H   0  0  0  0  0  0  0  0  0  0  0  0
  -10.5648   -7.8195   -5.2690 H   0  0  0  0  0  0  0  0  0  0  0  0
  -10.7521   -8.9931   -7.4364 H   0  0  0  0  0  0  0  0  0  0  0  0
   -8.7122   -9.7454   -8.6179 H   0  0  0  0  0  0  0  0  0  0  0  0
   -6.4894   -9.3357   -7.6463 H   0  0  0  0  0  0  0  0  0  0  0  0
    1.1084   -0.4752   -2.2963 H   0  0  0  0  0  0  0  0  0  0  0  0
    2.2881    1.9042   -2.3507 H   0  0  0  0  0  0  0  0  0  0  0  0
    0.6139    3.1461   -3.6590 H   0  0  0  0  0  0  0  0  0  0  0  0
   -1.7228    3.3140   -2.8611 H   0  0  0  0  0  0  0  0  0  0  0  0
   -2.3904    2.2244   -0.7434 H   0  0  0  0  0  0  0  0  0  0  0  0
   -0.7682    0.9747    0.5782 H   0  0  0  0  0  0  0  0  0  0  0  0
    1.0582    2.0655    2.1110 H   0  0  0  0  0  0  0  0  0  0  0  0
    0.2794    1.3500    4.3319 H   0  0  0  0  0  0  0  0  0  0  0  0
    0.2800   -1.0489    4.9438 H   0  0  0  0  0  0  0  0  0  0  0  0
    1.0798   -2.7389    3.3225 H   0  0  0  0  0  0  0  0  0  0  0  0
    1.8692   -2.0540    1.1150 H   0  0  0  0  0  0  0  0  0  0  0  0
    4.3975   -0.2491    1.0881 H   0  0  0  0  0  0  0  0  0  0  0  0
    6.3635    1.1021    1.6980 H   0  0  0  0  0  0  0  0  0  0  0  0
    6.3523    3.5542    1.3600 H   0  0  0  0  0  0  0  0  0  0  0  0
    4.3551    4.6647    0.4153 H   0  0  0  0  0  0  0  0  0  0  0  0
    2.3860    3.3743   -0.1876 H   0  0  0  0  0  0  0  0  0  0  0  0
  2  1  2  0  0  0  0
  3  2  1  0  0  0  0
  3 39  1  0  0  0  0
  3 40  1  0  0  0  0
  4  3  1  0  0  0  0
  4 41  1  0  0  0  0
  4 42  1  0  0  0  0
  5  4  1  0  0  0  0
  5 43  1  0  0  0  0
  5 44  1  0  0  0  0
  6  5  1  0  0  0  0
  6 45  1  0  0  0  0
  6 46  1  0  0  0  0
  7  6  1  0  0  0  0
  7 47  1  0  0  0  0
  7 48  1  0  0  0  0
  8  7  1  0  0  0  0
  8 49  1  0  0  0  0
  8 50  1  0  0  0  0
  9  8  1  0  0  0  0
 10  9  2  0  0  0  0
 11  9  1  0  0  0  0
 11 51  1  0  0  0  0
 12 11  1  0  0  0  0
 13 12  2  0  0  0  0
 13 52  1  0  0  0  0
 14 13  1  0  0  0  0
 14 53  1  0  0  0  0
 15 14  2  0  0  0  0
 15 54  1  0  0  0  0
 16 15  1  0  0  0  0
 16 55  1  0  0  0  0
 17 16  2  0  0  0  0
 17 12  1  0  0  0  0
 17 56  1  0  0  0  0
 18  2  1  0  0  0  0
 18 57  1  0  0  0  0
 19 18  1  0  0  0  0
 20 19  1  0  0  0  0
 21 20  1  0  0  0  0
 22 21  2  0  0  0  0
 22 58  1  0  0  0  0
 23 22  1  0  0  0  0
 23 59  1  0  0  0  0
 24 23  2  0  0  0  0
 24 60  1  0  0  0  0
 25 24  1  0  0  0  0
 25 61  1  0  0  0  0
 26 25  2  0  0  0  0
 26 21  1  0  0  0  0
 26 62  1  0  0  0  0
 27 20  1  0  0  0  0
 28 27  2  0  0  0  0
 28 63  1  0  0  0  0
 29 28  1  0  0  0  0
 29 64  1  0  0  0  0
 30 29  2  0  0  0  0
 30 65  1  0  0  0  0
 31 30  1  0  0  0  0
 31 66  1  0  0  0  0
 32 31  2  0  0  0  0
 32 27  1  0  0  0  0
 32 67  1  0  0  0  0
 33 20  1  0  0  0  0
 34 33  2  0  0  0  0
 34 68  1  0  0  0  0
 35 34  1  0  0  0  0
 35 69  1  0  0  0  0
 36 35  2  0  0  0  0
 36 70  1  0  0  0  0
 37 36  1  0  0  0  0
 37 71  1  0  0  0  0
 38 37  2  0  0  0  0
 38 33  1  0  0  0  0
 38 72  1  0  0  0  0
M  END
>  <MOL Chiral Flag>
0

>  <energy>
150.09246228630562

$$$$
> 190_AKC_0103-5053.20200003
>185.sdf
 OpenBabel10052220243D

 39 43  0  0  0  0  0  0  0  0999 V2000
   -1.9905    1.3216   -2.7547 Cl  0  0  0  0  0  0  0  0  0  0  0  0
   -3.0170    0.6788   -1.4773 C   0  0  0  0  0  0  0  0  0  0  0  0
   -2.4649    0.1794   -0.2808 C   0  0  0  0  0  0  0  0  0  0  0  0
   -3.3133   -0.3407    0.7094 C   0  0  0  0  0  0  0  0  0  0  0  0
   -4.6975   -0.3549    0.5135 C   0  0  0  0  0  0  0  0  0  0  0  0
   -5.2415    0.1333   -0.6769 C   0  0  0  0  0  0  0  0  0  0  0  0
   -4.4036    0.6440   -1.6719 C   0  0  0  0  0  0  0  0  0  0  0  0
   -1.0121    0.2119   -0.0470 C   0  0  0  0  0  0  0  0  0  0  0  0
   -0.2230   -0.9361   -0.1355 C   0  0  0  0  0  0  0  0  0  0  0  0
   -0.5996   -2.1972   -0.4542 N   0  0  0  0  0  0  0  0  0  0  0  0
    0.5374   -2.9282   -0.4413 C   0  0  0  0  0  0  0  0  0  0  0  0
    1.6207   -2.1446   -0.1082 C   0  0  0  0  0  0  0  0  0  0  0  0
    2.9098   -2.6679   -0.0326 C   0  0  0  0  0  0  0  0  0  0  0  0
    3.0823   -4.0366   -0.3147 C   0  0  0  0  0  0  0  0  0  0  0  0
    1.9715   -4.8410   -0.6640 C   0  0  0  0  0  0  0  0  0  0  0  0
    0.6791   -4.2842   -0.7281 C   0  0  0  0  0  0  0  0  0  0  0  0
    1.1321   -0.8723    0.0806 C   0  0  0  0  0  0  0  0  0  0  0  0
    1.7612    0.3233    0.4012 C   0  0  0  0  0  0  0  0  0  0  0  0
    0.9576    1.4810    0.4786 C   0  0  0  0  0  0  0  0  0  0  0  0
   -0.3942    1.3974    0.2476 N   0  0  0  0  0  0  0  0  0  0  0  0
    1.5717    2.7845    0.7862 C   0  0  0  0  0  0  0  0  0  0  0  0
    0.9060    3.8619    0.8757 N   0  0  0  0  0  0  0  0  0  0  0  0
    1.7827    4.9581    1.1827 C   0  0  0  0  0  0  0  0  0  0  0  0
    3.1772    4.2880    1.1324 C   0  0  0  0  0  0  0  0  0  0  0  0
    2.8844    2.9510    0.9706 O   0  0  0  0  0  0  0  0  0  0  0  0
   -2.9023   -0.7159    1.6387 H   0  0  0  0  0  0  0  0  0  0  0  0
   -5.3494   -0.7428    1.2858 H   0  0  0  0  0  0  0  0  0  0  0  0
   -6.3132    0.1165   -0.8286 H   0  0  0  0  0  0  0  0  0  0  0  0
   -4.8323    1.0147   -2.5944 H   0  0  0  0  0  0  0  0  0  0  0  0
   -1.5613   -2.5335   -0.6820 H   0  0  0  0  0  0  0  0  0  0  0  0
    3.7551   -2.0444    0.2290 H   0  0  0  0  0  0  0  0  0  0  0  0
    4.0710   -4.4750   -0.2688 H   0  0  0  0  0  0  0  0  0  0  0  0
    2.1166   -5.8905   -0.8855 H   0  0  0  0  0  0  0  0  0  0  0  0
   -0.1752   -4.8905   -0.9984 H   0  0  0  0  0  0  0  0  0  0  0  0
    2.8301    0.3614    0.5681 H   0  0  0  0  0  0  0  0  0  0  0  0
    1.6950    5.7827    0.4436 H   0  0  0  0  0  0  0  0  0  0  0  0
    1.5452    5.3124    2.2089 H   0  0  0  0  0  0  0  0  0  0  0  0
    3.7599    4.4788    2.0583 H   0  0  0  0  0  0  0  0  0  0  0  0
    3.7443    4.6154    0.2343 H   0  0  0  0  0  0  0  0  0  0  0  0
  2  1  1  0  0  0  0
  3  2  2  0  0  0  0
  4  3  1  0  0  0  0
  4 26  1  0  0  0  0
  5  4  2  0  0  0  0
  5 27  1  0  0  0  0
  6  5  1  0  0  0  0
  6 28  1  0  0  0  0
  7  6  2  0  0  0  0
  7  2  1  0  0  0  0
  7 29  1  0  0  0  0
  8  3  1  0  0  0  0
  9  8  2  0  0  0  0
 10  9  1  0  0  0  0
 10 30  1  0  0  0  0
 11 10  1  0  0  0  0
 12 11  2  0  0  0  0
 13 12  1  0  0  0  0
 13 31  1  0  0  0  0
 14 13  2  0  0  0  0
 14 32  1  0  0  0  0
 15 14  1  0  0  0  0
 15 33  1  0  0  0  0
 16 15  2  0  0  0  0
 16 11  1  0  0  0  0
 16 34  1  0  0  0  0
 17 12  1  0  0  0  0
 17  9  1  0  0  0  0
 18 17  2  0  0  0  0
 18 35  1  0  0  0  0
 19 18  1  0  0  0  0
 20 19  2  0  0  0  0
 20  8  1  0  0  0  0
 21 19  1  0  0  0  0
 22 21  2  0  0  0  0
 23 22  1  0  0  0  0
 23 36  1  0  0  0  0
 23 37  1  0  0  0  0
 24 23  1  0  0  0  0
 24 38  1  0  0  0  0
 24 39  1  0  0  0  0
 25 24  1  0  0  0  0
 25 21  1  0  0  0  0
M  END
>  <MOL Chiral Flag>
0

>  <energy>
99.819659046671006

$$$$
> 191_AKC_cbdv.202000142
>186.sdf
 OpenBabel10052220253D

 36 38  0  0  0  0  0  0  0  0999 V2000
   -4.3756    0.1100   -0.0019 C   0  0  0  0  0  0  0  0  0  0  0  0
   -3.5607   -1.0640   -0.6087 C   0  0  0  0  0  0  0  0  0  0  0  0
   -2.2447   -0.5400   -1.1710 C   0  0  0  0  0  0  0  0  0  0  0  0
   -1.3537    0.0241   -0.0180 C   0  0  0  0  0  0  0  0  0  0  0  0
   -2.1996    0.6357    1.1449 C   0  0  0  0  0  0  0  0  0  0  0  0
   -3.4888    1.2349    0.5967 C   0  0  0  0  0  0  0  0  0  0  0  0
   -0.5125    1.0205   -0.5788 O   0  0  0  0  0  0  0  0  0  0  0  0
    0.5612    1.1217    0.2016 O   0  0  0  0  0  0  0  0  0  0  0  0
    1.3535   -0.0370   -0.0092 C   0  0  0  0  0  0  0  0  0  0  0  0
    2.2018   -0.2650    1.2833 C   0  0  0  0  0  0  0  0  0  0  0  0
    3.4965   -0.9919    0.9407 C   0  0  0  0  0  0  0  0  0  0  0  0
    4.3758   -0.0933    0.0300 C   0  0  0  0  0  0  0  0  0  0  0  0
    3.5533    0.8328   -0.9060 C   0  0  0  0  0  0  0  0  0  0  0  0
    2.2422    0.1521   -1.2803 C   0  0  0  0  0  0  0  0  0  0  0  0
    0.5127   -1.1573   -0.2398 O   0  0  0  0  0  0  0  0  0  0  0  0
   -0.5618   -1.0168    0.5339 O   0  0  0  0  0  0  0  0  0  0  0  0
   -5.0220    0.5929   -0.7665 H   0  0  0  0  0  0  0  0  0  0  0  0
   -5.0410   -0.3350    0.7693 H   0  0  0  0  0  0  0  0  0  0  0  0
   -3.2975   -1.8014    0.1820 H   0  0  0  0  0  0  0  0  0  0  0  0
   -4.1801   -1.5895   -1.3664 H   0  0  0  0  0  0  0  0  0  0  0  0
   -2.5157    0.2702   -1.8849 H   0  0  0  0  0  0  0  0  0  0  0  0
   -1.6850   -1.3080   -1.7469 H   0  0  0  0  0  0  0  0  0  0  0  0
   -1.5919    1.3698    1.7163 H   0  0  0  0  0  0  0  0  0  0  0  0
   -2.5086   -0.1590    1.8607 H   0  0  0  0  0  0  0  0  0  0  0  0
   -4.0691    1.7943    1.3611 H   0  0  0  0  0  0  0  0  0  0  0  0
   -3.1918    1.9569   -0.1964 H   0  0  0  0  0  0  0  0  0  0  0  0
    1.5982   -0.7969    2.0497 H   0  0  0  0  0  0  0  0  0  0  0  0
    2.5046    0.7105    1.7263 H   0  0  0  0  0  0  0  0  0  0  0  0
    4.0796   -1.2896    1.8381 H   0  0  0  0  0  0  0  0  0  0  0  0
    3.2065   -1.9219    0.4028 H   0  0  0  0  0  0  0  0  0  0  0  0
    5.0341    0.5715    0.6304 H   0  0  0  0  0  0  0  0  0  0  0  0
    5.0297   -0.7792   -0.5509 H   0  0  0  0  0  0  0  0  0  0  0  0
    4.1701    1.1066   -1.7885 H   0  0  0  0  0  0  0  0  0  0  0  0
    3.2830    1.7744   -0.3783 H   0  0  0  0  0  0  0  0  0  0  0  0
    2.5193   -0.8360   -1.7120 H   0  0  0  0  0  0  0  0  0  0  0  0
    1.6782    0.7031   -2.0632 H   0  0  0  0  0  0  0  0  0  0  0  0
  1 17  1  0  0  0  0
  1 18  1  0  0  0  0
  2  1  1  0  0  0  0
  2 19  1  0  0  0  0
  2 20  1  0  0  0  0
  3  2  1  0  0  0  0
  3 21  1  0  0  0  0
  3 22  1  0  0  0  0
  4  3  1  0  0  0  0
  5  4  1  0  0  0  0
  5 23  1  0  0  0  0
  5 24  1  0  0  0  0
  6  5  1  0  0  0  0
  6  1  1  0  0  0  0
  6 25  1  0  0  0  0
  6 26  1  0  0  0  0
  7  4  1  0  0  0  0
  8  7  1  0  0  0  0
  9  8  1  0  0  0  0
 10  9  1  0  0  0  0
 10 27  1  0  0  0  0
 10 28  1  0  0  0  0
 11 10  1  0  0  0  0
 11 29  1  0  0  0  0
 11 30  1  0  0  0  0
 12 11  1  0  0  0  0
 12 31  1  0  0  0  0
 12 32  1  0  0  0  0
 13 12  1  0  0  0  0
 13 33  1  0  0  0  0
 13 34  1  0  0  0  0
 14 13  1  0  0  0  0
 14  9  1  0  0  0  0
 14 35  1  0  0  0  0
 14 36  1  0  0  0  0
 15  9  1  0  0  0  0
 16 15  1  0  0  0  0
 16  4  1  0  0  0  0
M  END
>  <MOL Chiral Flag>
0

>  <energy>
75.198570097407838

$$$$
> 192_AKC_S0031182021002079
>187.sdf
 OpenBabel10052220253D

 33 35  0  0  0  0  0  0  0  0999 V2000
   -2.5143    1.8956   -1.7616 C   0  0  0  0  0  0  0  0  0  0  0  0
   -2.5283    0.7869   -0.8106 N   0  0  0  0  0  0  0  0  0  0  0  0
   -3.6304    0.2584   -0.2446 C   0  0  0  0  0  0  0  0  0  0  0  0
   -3.2265   -0.7558    0.5956 C   0  0  0  0  0  0  0  0  0  0  0  0
   -1.8884   -0.8725    0.5544 N   0  0  0  0  0  0  0  0  0  0  0  0
   -1.4798    0.0861   -0.3057 C   0  0  0  0  0  0  0  0  0  0  0  0
   -0.0371    0.3476   -0.5434 C   0  0  0  0  0  0  0  0  0  0  0  0
    0.3238    1.3496   -1.1439 O   0  0  0  0  0  0  0  0  0  0  0  0
    0.8793   -0.5204   -0.0316 N   0  0  0  0  0  0  0  0  0  0  0  0
    2.2670   -0.2383    0.0616 C   0  0  0  0  0  0  0  0  0  0  0  0
    3.2144   -0.9047   -0.7407 C   0  0  0  0  0  0  0  0  0  0  0  0
    2.8324   -1.7755   -1.7774 C   0  0  0  0  0  0  0  0  0  0  0  0
    3.8084   -2.4173   -2.5479 C   0  0  0  0  0  0  0  0  0  0  0  0
    5.1654   -2.2088   -2.2838 C   0  0  0  0  0  0  0  0  0  0  0  0
    5.5568   -1.3457   -1.2578 C   0  0  0  0  0  0  0  0  0  0  0  0
    4.5916   -0.6844   -0.4915 C   0  0  0  0  0  0  0  0  0  0  0  0
    4.9800    0.1589    0.5027 N   0  0  0  0  0  0  0  0  0  0  0  0
    4.0756    0.8140    1.2759 C   0  0  0  0  0  0  0  0  0  0  0  0
    2.7094    0.6260    1.0702 C   0  0  0  0  0  0  0  0  0  0  0  0
   -4.0563   -1.5536    1.4229 N   0  0  0  0  0  0  0  0  0  0  0  0
   -5.2354   -1.3674    1.4517 O   0  0  0  0  0  0  0  0  0  0  0  0
   -3.5717   -2.3832    2.1305 O   0  0  0  0  0  0  0  0  0  0  0  0
   -1.9257    2.7421   -1.3536 H   0  0  0  0  0  0  0  0  0  0  0  0
   -2.0737    1.5586   -2.7235 H   0  0  0  0  0  0  0  0  0  0  0  0
   -3.5497    2.2511   -1.9589 H   0  0  0  0  0  0  0  0  0  0  0  0
   -4.6448    0.5951   -0.4185 H   0  0  0  0  0  0  0  0  0  0  0  0
    0.5535   -1.3800    0.4335 H   0  0  0  0  0  0  0  0  0  0  0  0
    1.7871   -1.9497   -1.9999 H   0  0  0  0  0  0  0  0  0  0  0  0
    3.5126   -3.0799   -3.3508 H   0  0  0  0  0  0  0  0  0  0  0  0
    5.9159   -2.7155   -2.8767 H   0  0  0  0  0  0  0  0  0  0  0  0
    6.6102   -1.1913   -1.0578 H   0  0  0  0  0  0  0  0  0  0  0  0
    4.4175    1.4637    2.0705 H   0  0  0  0  0  0  0  0  0  0  0  0
    1.9948    1.1226    1.7151 H   0  0  0  0  0  0  0  0  0  0  0  0
  1 23  1  0  0  0  0
  1 24  1  0  0  0  0
  1 25  1  0  0  0  0
  2  1  1  0  0  0  0
  3  2  1  0  0  0  0
  3 26  1  0  0  0  0
  4  3  2  0  0  0  0
  5  4  1  0  0  0  0
  6  5  2  0  0  0  0
  6  2  1  0  0  0  0
  7  6  1  0  0  0  0
  8  7  2  0  0  0  0
  9  7  1  0  0  0  0
  9 27  1  0  0  0  0
 10  9  1  0  0  0  0
 11 10  2  0  0  0  0
 12 11  1  0  0  0  0
 12 28  1  0  0  0  0
 13 12  2  0  0  0  0
 13 29  1  0  0  0  0
 14 13  1  0  0  0  0
 14 30  1  0  0  0  0
 15 14  2  0  0  0  0
 15 31  1  0  0  0  0
 16 15  1  0  0  0  0
 16 11  1  0  0  0  0
 17 16  2  0  0  0  0
 18 17  1  0  0  0  0
 18 32  1  0  0  0  0
 19 18  2  0  0  0  0
 19 10  1  0  0  0  0
 19 33  1  0  0  0  0
 20  4  1  0  0  0  0
 21 20  2  0  0  0  0
 22 20  2  0  0  0  0
M  END
>  <MOL Chiral Flag>
0

>  <energy>
125.9333727439718

$$$$
> 193_AKC_S0031182021002079
>188.sdf
 OpenBabel10052220253D

 40 42  0  0  0  0  0  0  0  0999 V2000
    1.9906    1.8050   -0.8402 C   0  0  0  0  0  0  0  0  0  0  0  0
    0.6837    1.8716   -0.0344 C   0  0  2  0  0  0  0  0  0  0  0  0
    0.7029    0.9669    1.1154 N   0  0  0  0  0  0  0  0  0  0  0  0
    0.6824    1.4207    2.4069 C   0  0  0  0  0  0  0  0  0  0  0  0
    0.6788    2.6253    2.6211 O   0  0  0  0  0  0  0  0  0  0  0  0
    0.6660    0.5185    3.6035 C   0  0  0  0  0  0  0  0  0  0  0  0
    0.7197    1.0498    4.8478 N   0  0  0  0  0  0  0  0  0  0  0  0
    0.6706   -0.0023    5.6834 C   0  0  0  0  0  0  0  0  0  0  0  0
    0.5828   -1.1658    4.9594 C   0  0  0  0  0  0  0  0  0  0  0  0
    0.5797   -0.8452    3.6514 N   0  0  0  0  0  0  0  0  0  0  0  0
    0.4836   -1.8384    2.5836 C   0  0  0  0  0  0  0  0  0  0  0  0
    0.7029    0.1070    7.0971 N   0  0  0  0  0  0  0  0  0  0  0  0
    0.6540   -0.8721    7.7782 O   0  0  0  0  0  0  0  0  0  0  0  0
    0.7808    1.1814    7.6116 O   0  0  0  0  0  0  0  0  0  0  0  0
   -0.5744    1.6540   -0.8874 C   0  0  0  0  0  0  0  0  0  0  0  0
   -0.8936    0.4469   -1.6010 C   0  0  0  0  0  0  0  0  0  0  0  0
   -0.0658   -0.7027   -1.5965 C   0  0  0  0  0  0  0  0  0  0  0  0
   -0.4211   -1.8454   -2.3174 C   0  0  0  0  0  0  0  0  0  0  0  0
   -1.6009   -1.8779   -3.0534 C   0  0  0  0  0  0  0  0  0  0  0  0
   -2.4400   -0.7681   -3.0741 C   0  0  0  0  0  0  0  0  0  0  0  0
   -2.1021    0.3918   -2.3585 C   0  0  0  0  0  0  0  0  0  0  0  0
   -2.9642    1.4925   -2.3973 C   0  0  0  0  0  0  0  0  0  0  0  0
   -2.6532    2.6518   -1.7023 C   0  0  0  0  0  0  0  0  0  0  0  0
   -1.4793    2.7354   -0.9615 C   0  0  0  0  0  0  0  0  0  0  0  0
    2.2090    0.8232   -1.2892 H   0  0  0  0  0  0  0  0  0  0  0  0
    2.8442    2.0599   -0.1765 H   0  0  0  0  0  0  0  0  0  0  0  0
    1.9585    2.5524   -1.6618 H   0  0  0  0  0  0  0  0  0  0  0  0
    0.6653    2.9222    0.3274 H   0  0  0  0  0  0  0  0  0  0  0  0
    0.7310   -0.0310    0.9337 H   0  0  0  0  0  0  0  0  0  0  0  0
    0.5231   -2.1724    5.3546 H   0  0  0  0  0  0  0  0  0  0  0  0
   -0.4260   -1.6532    1.9740 H   0  0  0  0  0  0  0  0  0  0  0  0
    1.4009   -1.8197    1.9597 H   0  0  0  0  0  0  0  0  0  0  0  0
    0.3989   -2.8623    3.0076 H   0  0  0  0  0  0  0  0  0  0  0  0
    0.8532   -0.7498   -1.0508 H   0  0  0  0  0  0  0  0  0  0  0  0
    0.2264   -2.7129   -2.3041 H   0  0  0  0  0  0  0  0  0  0  0  0
   -1.8671   -2.7677   -3.6094 H   0  0  0  0  0  0  0  0  0  0  0  0
   -3.3563   -0.8117   -3.6513 H   0  0  0  0  0  0  0  0  0  0  0  0
   -3.8839    1.4521   -2.9693 H   0  0  0  0  0  0  0  0  0  0  0  0
   -3.3282    3.4973   -1.7376 H   0  0  0  0  0  0  0  0  0  0  0  0
   -1.2759    3.6595   -0.4346 H   0  0  0  0  0  0  0  0  0  0  0  0
  1 25  1  0  0  0  0
  1 26  1  0  0  0  0
  1 27  1  0  0  0  0
  2  1  1  0  0  0  0
  2 28  1  1  0  0  0
  3  2  1  0  0  0  0
  3 29  1  0  0  0  0
  4  3  1  0  0  0  0
  5  4  2  0  0  0  0
  6  4  1  0  0  0  0
  7  6  2  0  0  0  0
  8  7  1  0  0  0  0
  9  8  2  0  0  0  0
  9 30  1  0  0  0  0
 10  9  1  0  0  0  0
 10  6  1  0  0  0  0
 11 10  1  0  0  0  0
 11 31  1  0  0  0  0
 11 32  1  0  0  0  0
 11 33  1  0  0  0  0
 12  8  1  0  0  0  0
 13 12  2  0  0  0  0
 14 12  2  0  0  0  0
 15  2  1  0  0  0  0
 16 15  2  0  0  0  0
 17 16  1  0  0  0  0
 17 34  1  0  0  0  0
 18 17  2  0  0  0  0
 18 35  1  0  0  0  0
 19 18  1  0  0  0  0
 19 36  1  0  0  0  0
 20 19  2  0  0  0  0
 20 37  1  0  0  0  0
 21 20  1  0  0  0  0
 21 16  1  0  0  0  0
 22 21  2  0  0  0  0
 22 38  1  0  0  0  0
 23 22  1  0  0  0  0
 23 39  1  0  0  0  0
 24 23  2  0  0  0  0
 24 15  1  0  0  0  0
 24 40  1  0  0  0  0
M  END
>  <MOL Chiral Flag>
0

>  <energy>
124.69099876143477

$$$$
> 194_AKC
>189.sdf
 OpenBabel10052220263D

 64 68  0  0  0  0  0  0  0  0999 V2000
    1.8894   -1.7828   -2.7525 O   0  0  0  0  0  0  0  0  0  0  0  0
    0.8990   -1.1208   -2.4814 C   0  0  0  0  0  0  0  0  0  0  0  0
   -0.2857   -1.1761   -3.4174 C   0  0  0  0  0  0  0  0  0  0  0  0
   -1.6290   -1.2573   -2.7152 C   0  0  0  0  0  0  0  0  0  0  0  0
   -1.9239   -2.2764   -1.7914 C   0  0  0  0  0  0  0  0  0  0  0  0
   -3.1806   -2.3192   -1.1590 C   0  0  0  0  0  0  0  0  0  0  0  0
   -4.1654   -1.3499   -1.4654 C   0  0  0  0  0  0  0  0  0  0  0  0
   -5.4187   -1.3559   -0.9284 O   0  0  0  0  0  0  0  0  0  0  0  0
   -5.8600   -2.0599    0.1756 C   0  0  0  0  0  0  0  0  0  0  0  0
   -7.3626   -2.1606    0.1208 C   0  0  0  0  0  0  0  0  0  0  0  0
   -8.1805   -1.6810    1.0773 C   0  0  0  0  0  0  0  0  0  0  0  0
   -9.9683   -1.9949    0.9966 S   0  0  0  0  0  0  0  0  0  0  0  0
  -10.1471   -3.1216    2.0241 O   0  0  0  0  0  0  0  0  0  0  0  0
  -10.1632   -2.8809   -0.2446 O   0  0  0  0  0  0  0  0  0  0  0  0
  -11.5296   -1.0927    1.1326 C   0  0  0  0  0  0  0  0  0  0  0  0
  -12.7187   -1.7350    0.7466 C   0  0  0  0  0  0  0  0  0  0  0  0
  -13.9480   -1.0828    0.8610 C   0  0  0  0  0  0  0  0  0  0  0  0
  -14.0037    0.2174    1.3642 C   0  0  0  0  0  0  0  0  0  0  0  0
  -12.8265    0.8675    1.7524 C   0  0  0  0  0  0  0  0  0  0  0  0
  -11.5877    0.2153    1.6383 C   0  0  0  0  0  0  0  0  0  0  0  0
   -3.8596   -0.3462   -2.3876 C   0  0  0  0  0  0  0  0  0  0  0  0
   -2.6069   -0.2915   -2.9981 C   0  0  0  0  0  0  0  0  0  0  0  0
    0.8496   -0.3644   -1.3449 N   0  0  0  0  0  0  0  0  0  0  0  0
    1.9300   -0.2506   -0.3553 C   0  0  2  0  0  0  0  0  0  0  0  0
    2.4641   -1.6452    0.1052 C   0  0  0  0  0  0  0  0  0  0  0  0
    3.5593   -1.4671    1.1791 C   0  0  1  0  0  0  0  0  0  0  0  0
    4.7249   -0.6278    0.6040 C   0  0  0  0  0  0  0  0  0  0  0  0
    4.2005    0.7593    0.1747 C   0  0  2  0  0  0  0  0  0  0  0  0
    3.6038    1.4788    1.4062 C   0  0  0  0  0  0  0  0  0  0  0  0
    2.4421    0.6416    1.9778 C   0  0  2  0  0  0  0  0  0  0  0  0
    2.9595   -0.7489    2.4024 C   0  0  0  0  0  0  0  0  0  0  0  0
    1.3592    0.4818    0.8946 C   0  0  0  0  0  0  0  0  0  0  0  0
    3.1128    0.5866   -0.9166 C   0  0  0  0  0  0  0  0  0  0  0  0
   -0.2544   -0.2606   -4.0463 H   0  0  0  0  0  0  0  0  0  0  0  0
   -0.1658   -2.0410   -4.1063 H   0  0  0  0  0  0  0  0  0  0  0  0
   -1.1817   -3.0307   -1.5589 H   0  0  0  0  0  0  0  0  0  0  0  0
   -3.3767   -3.1145   -0.4546 H   0  0  0  0  0  0  0  0  0  0  0  0
   -5.4960   -1.5675    1.1035 H   0  0  0  0  0  0  0  0  0  0  0  0
   -5.4939   -3.1067    0.1516 H   0  0  0  0  0  0  0  0  0  0  0  0
   -7.7852   -2.6849   -0.7288 H   0  0  0  0  0  0  0  0  0  0  0  0
   -7.7717   -1.1689    1.9434 H   0  0  0  0  0  0  0  0  0  0  0  0
  -12.6919   -2.7462    0.3622 H   0  0  0  0  0  0  0  0  0  0  0  0
  -14.8577   -1.5895    0.5627 H   0  0  0  0  0  0  0  0  0  0  0  0
  -14.9599    0.7184    1.4552 H   0  0  0  0  0  0  0  0  0  0  0  0
  -12.8779    1.8750    2.1451 H   0  0  0  0  0  0  0  0  0  0  0  0
  -10.6847    0.7244    1.9471 H   0  0  0  0  0  0  0  0  0  0  0  0
   -4.6032    0.4008   -2.6336 H   0  0  0  0  0  0  0  0  0  0  0  0
   -2.4047    0.5012   -3.7071 H   0  0  0  0  0  0  0  0  0  0  0  0
   -0.0313    0.1371   -1.1512 H   0  0  0  0  0  0  0  0  0  0  0  0
    1.6314   -2.2617    0.5075 H   0  0  0  0  0  0  0  0  0  0  0  0
    2.9267   -2.2083   -0.7288 H   0  0  0  0  0  0  0  0  0  0  0  0
    3.9406   -2.4652    1.4868 H   0  0  0  0  0  0  0  0  0  0  0  0
    5.5200   -0.5087    1.3733 H   0  0  0  0  0  0  0  0  0  0  0  0
    5.1780   -1.1461   -0.2692 H   0  0  0  0  0  0  0  0  0  0  0  0
    5.0401    1.3654   -0.2305 H   0  0  0  0  0  0  0  0  0  0  0  0
    4.3856    1.6162    2.1856 H   0  0  0  0  0  0  0  0  0  0  0  0
    3.2357    2.4878    1.1176 H   0  0  0  0  0  0  0  0  0  0  0  0
    2.0074    1.1575    2.8612 H   0  0  0  0  0  0  0  0  0  0  0  0
    2.1267   -1.3555    2.8225 H   0  0  0  0  0  0  0  0  0  0  0  0
    3.7319   -0.6415    3.1948 H   0  0  0  0  0  0  0  0  0  0  0  0
    0.9730    1.4854    0.6080 H   0  0  0  0  0  0  0  0  0  0  0  0
    0.5059   -0.1003    1.3096 H   0  0  0  0  0  0  0  0  0  0  0  0
    3.5560    0.0920   -1.8078 H   0  0  0  0  0  0  0  0  0  0  0  0
    2.7494    1.5892   -1.2345 H   0  0  0  0  0  0  0  0  0  0  0  0
  2  1  2  0  0  0  0
  3  2  1  0  0  0  0
  3 34  1  0  0  0  0
  3 35  1  0  0  0  0
  4  3  1  0  0  0  0
  5  4  2  0  0  0  0
  5 36  1  0  0  0  0
  6  5  1  0  0  0  0
  6 37  1  0  0  0  0
  7  6  2  0  0  0  0
  8  7  1  0  0  0  0
  9  8  1  0  0  0  0
  9 38  1  0  0  0  0
  9 39  1  0  0  0  0
 10  9  1  0  0  0  0
 10 40  1  0  0  0  0
 11 10  2  0  0  0  0
 11 41  1  0  0  0  0
 12 11  1  0  0  0  0
 13 12  2  0  0  0  0
 14 12  2  0  0  0  0
 15 12  1  0  0  0  0
 16 15  2  0  0  0  0
 16 42  1  0  0  0  0
 17 16  1  0  0  0  0
 17 43  1  0  0  0  0
 18 17  2  0  0  0  0
 18 44  1  0  0  0  0
 19 18  1  0  0  0  0
 19 45  1  0  0  0  0
 20 19  2  0  0  0  0
 20 15  1  0  0  0  0
 20 46  1  0  0  0  0
 21  7  1  0  0  0  0
 21 47  1  0  0  0  0
 22 21  2  0  0  0  0
 22  4  1  0  0  0  0
 22 48  1  0  0  0  0
 23  2  1  0  0  0  0
 23 49  1  0  0  0  0
 24 23  1  6  0  0  0
 25 24  1  0  0  0  0
 25 50  1  0  0  0  0
 25 51  1  0  0  0  0
 26 25  1  0  0  0  0
 26 52  1  1  0  0  0
 27 26  1  0  0  0  0
 27 53  1  0  0  0  0
 27 54  1  0  0  0  0
 28 27  1  0  0  0  0
 28 55  1  6  0  0  0
 29 28  1  0  0  0  0
 29 56  1  0  0  0  0
 29 57  1  0  0  0  0
 30 29  1  0  0  0  0
 30 58  1  1  0  0  0
 31 30  1  0  0  0  0
 31 26  1  0  0  0  0
 31 59  1  0  0  0  0
 31 60  1  0  0  0  0
 32 30  1  0  0  0  0
 32 24  1  0  0  0  0
 32 61  1  0  0  0  0
 32 62  1  0  0  0  0
 33 28  1  0  0  0  0
 33 24  1  0  0  0  0
 33 63  1  0  0  0  0
 33 64  1  0  0  0  0
M  END
>  <MOL Chiral Flag>
0

>  <energy>
102.485026009271

$$$$
> 195_AKC
>190.sdf
 OpenBabel10052220263D

 39 42  0  0  0  0  0  0  0  0999 V2000
    5.7963   -3.6777    0.3472 F   0  0  0  0  0  0  0  0  0  0  0  0
    5.9811   -2.3385    0.4541 C   0  0  0  0  0  0  0  0  0  0  0  0
    4.8852   -1.4751    0.3592 C   0  0  0  0  0  0  0  0  0  0  0  0
    5.0616   -0.0727    0.4600 C   0  0  0  0  0  0  0  0  0  0  0  0
    6.3701    0.4213    0.6556 C   0  0  0  0  0  0  0  0  0  0  0  0
    7.4574   -0.4519    0.7529 C   0  0  0  0  0  0  0  0  0  0  0  0
    7.2632   -1.8286    0.6516 C   0  0  0  0  0  0  0  0  0  0  0  0
    3.9197    0.9036    0.3406 C   0  0  0  0  0  0  0  0  0  0  0  0
    4.1848    2.0938    0.3109 O   0  0  0  0  0  0  0  0  0  0  0  0
    2.6148    0.4794    0.2768 N   0  0  0  0  0  0  0  0  0  0  0  0
    1.4396    1.2914    0.0768 C   0  0  0  0  0  0  0  0  0  0  0  0
    0.1890    0.6571    0.1679 C   0  0  0  0  0  0  0  0  0  0  0  0
   -1.0235    1.3381   -0.0624 C   0  0  0  0  0  0  0  0  0  0  0  0
   -2.2840    0.5293    0.0398 C   0  0  0  0  0  0  0  0  0  0  0  0
   -2.2907   -0.7150    0.5961 N   0  0  0  0  0  0  0  0  0  0  0  0
   -3.5611   -1.1289    0.4793 C   0  0  0  0  0  0  0  0  0  0  0  0
   -4.3004   -0.1723   -0.1375 C   0  0  0  0  0  0  0  0  0  0  0  0
   -3.5185    0.8785   -0.4198 N   0  0  0  0  0  0  0  0  0  0  0  0
   -5.6552   -0.3456   -0.4079 C   0  0  0  0  0  0  0  0  0  0  0  0
   -6.2513   -1.5597   -0.0110 C   0  0  0  0  0  0  0  0  0  0  0  0
   -5.4802   -2.5542    0.6399 C   0  0  0  0  0  0  0  0  0  0  0  0
   -4.1107   -2.3390    0.8903 C   0  0  0  0  0  0  0  0  0  0  0  0
   -0.9639    2.7222   -0.3815 C   0  0  0  0  0  0  0  0  0  0  0  0
   -2.3750    3.7339   -0.6550 Cl  0  0  0  0  0  0  0  0  0  0  0  0
    0.2784    3.3599   -0.4635 C   0  0  0  0  0  0  0  0  0  0  0  0
    1.4670    2.6647   -0.2450 C   0  0  0  0  0  0  0  0  0  0  0  0
    3.9215   -1.9249    0.1932 H   0  0  0  0  0  0  0  0  0  0  0  0
    6.5525    1.4856    0.7346 H   0  0  0  0  0  0  0  0  0  0  0  0
    8.4542   -0.0586    0.9040 H   0  0  0  0  0  0  0  0  0  0  0  0
    8.1083   -2.5012    0.7226 H   0  0  0  0  0  0  0  0  0  0  0  0
    2.4344   -0.5238    0.3816 H   0  0  0  0  0  0  0  0  0  0  0  0
    0.1678   -0.3993    0.4054 H   0  0  0  0  0  0  0  0  0  0  0  0
   -3.8383    1.7336   -0.9142 H   0  0  0  0  0  0  0  0  0  0  0  0
   -6.2304    0.4228   -0.9077 H   0  0  0  0  0  0  0  0  0  0  0  0
   -7.3015   -1.7334   -0.2049 H   0  0  0  0  0  0  0  0  0  0  0  0
   -5.9434   -3.4842    0.9428 H   0  0  0  0  0  0  0  0  0  0  0  0
   -3.5067   -3.0904    1.3825 H   0  0  0  0  0  0  0  0  0  0  0  0
    0.3244    4.4145   -0.7075 H   0  0  0  0  0  0  0  0  0  0  0  0
    2.3770    3.2239   -0.3508 H   0  0  0  0  0  0  0  0  0  0  0  0
  2  1  1  0  0  0  0
  3  2  2  0  0  0  0
  3 27  1  0  0  0  0
  4  3  1  0  0  0  0
  5  4  2  0  0  0  0
  5 28  1  0  0  0  0
  6  5  1  0  0  0  0
  6 29  1  0  0  0  0
  7  6  2  0  0  0  0
  7  2  1  0  0  0  0
  7 30  1  0  0  0  0
  8  4  1  0  0  0  0
  9  8  2  0  0  0  0
 10  8  1  0  0  0  0
 10 31  1  0  0  0  0
 11 10  1  0  0  0  0
 12 11  2  0  0  0  0
 12 32  1  0  0  0  0
 13 12  1  0  0  0  0
 14 13  1  0  0  0  0
 15 14  2  0  0  0  0
 16 15  1  0  0  0  0
 17 16  2  0  0  0  0
 18 17  1  0  0  0  0
 18 14  1  0  0  0  0
 18 33  1  0  0  0  0
 19 17  1  0  0  0  0
 19 34  1  0  0  0  0
 20 19  2  0  0  0  0
 20 35  1  0  0  0  0
 21 20  1  0  0  0  0
 21 36  1  0  0  0  0
 22 21  2  0  0  0  0
 22 16  1  0  0  0  0
 22 37  1  0  0  0  0
 23 13  2  0  0  0  0
 24 23  1  0  0  0  0
 25 23  1  0  0  0  0
 25 38  1  0  0  0  0
 26 25  2  0  0  0  0
 26 11  1  0  0  0  0
 26 39  1  0  0  0  0
M  END
>  <MOL Chiral Flag>
0

>  <energy>
52.867298023972474

$$$$
> 196_AKC
>191.sdf
 OpenBabel10052220263D

 35 38  0  0  0  0  0  0  0  0999 V2000
    1.9273   -3.1774    2.1530 Cl  0  0  0  0  0  0  0  0  0  0  0  0
    0.3899   -2.8193    1.3558 C   0  0  0  0  0  0  0  0  0  0  0  0
    0.1476   -1.6686    0.5464 C   0  0  0  0  0  0  0  0  0  0  0  0
   -1.1685   -1.4755   -0.0000 C   0  0  0  0  0  0  0  0  0  0  0  0
   -2.1787   -2.4653    0.2411 C   0  0  0  0  0  0  0  0  0  0  0  0
   -3.5228   -2.4714   -0.2704 N   0  0  0  0  0  0  0  0  0  0  0  0
   -4.2715   -1.4814   -0.8339 C   0  0  0  0  0  0  0  0  0  0  0  0
   -3.8271   -0.3539   -0.9823 O   0  0  0  0  0  0  0  0  0  0  0  0
   -5.6957   -1.7990   -1.1922 C   0  0  0  0  0  0  0  0  0  0  0  0
   -6.7231   -0.9300   -1.5871 C   0  0  0  0  0  0  0  0  0  0  0  0
   -7.9743   -1.5941   -1.7970 C   0  0  0  0  0  0  0  0  0  0  0  0
   -7.9277   -2.9731   -1.5777 C   0  0  0  0  0  0  0  0  0  0  0  0
   -6.3791   -3.3224   -1.1322 S   0  0  0  0  0  0  0  0  0  0  0  0
   -1.8550   -3.5724    1.0343 C   0  0  0  0  0  0  0  0  0  0  0  0
   -0.6123   -3.7358    1.5871 C   0  0  0  0  0  0  0  0  0  0  0  0
    1.3000   -0.7375    0.2988 C   0  0  0  0  0  0  0  0  0  0  0  0
    1.2553    0.5448   -0.1678 N   0  0  0  0  0  0  0  0  0  0  0  0
    2.5623    0.9222   -0.1465 C   0  0  0  0  0  0  0  0  0  0  0  0
    3.3193   -0.1142    0.2900 C   0  0  0  0  0  0  0  0  0  0  0  0
    2.5415   -1.1109    0.5562 O   0  0  0  0  0  0  0  0  0  0  0  0
    4.7005   -0.0517    0.4233 C   0  0  0  0  0  0  0  0  0  0  0  0
    5.3298    1.1588    0.0999 C   0  0  0  0  0  0  0  0  0  0  0  0
    4.5586    2.2611   -0.3443 C   0  0  0  0  0  0  0  0  0  0  0  0
    3.1503    2.1475   -0.4759 C   0  0  0  0  0  0  0  0  0  0  0  0
   -1.3723   -0.6139   -0.6229 H   0  0  0  0  0  0  0  0  0  0  0  0
   -4.0144   -3.3641   -0.1333 H   0  0  0  0  0  0  0  0  0  0  0  0
   -6.6009    0.1370   -1.7026 H   0  0  0  0  0  0  0  0  0  0  0  0
   -8.8828   -1.0856   -2.0904 H   0  0  0  0  0  0  0  0  0  0  0  0
   -8.7443   -3.6790   -1.6697 H   0  0  0  0  0  0  0  0  0  0  0  0
   -2.6008   -4.3301    1.2386 H   0  0  0  0  0  0  0  0  0  0  0  0
   -0.4222   -4.6018    2.2063 H   0  0  0  0  0  0  0  0  0  0  0  0
    5.2672   -0.9070    0.7714 H   0  0  0  0  0  0  0  0  0  0  0  0
    6.4058    1.2452    0.1984 H   0  0  0  0  0  0  0  0  0  0  0  0
    5.0560    3.1927   -0.5808 H   0  0  0  0  0  0  0  0  0  0  0  0
    2.5592    2.9877   -0.8108 H   0  0  0  0  0  0  0  0  0  0  0  0
  2  1  1  0  0  0  0
  3  2  2  0  0  0  0
  4  3  1  0  0  0  0
  4 25  1  0  0  0  0
  5  4  2  0  0  0  0
  6  5  1  0  0  0  0
  6 26  1  0  0  0  0
  7  6  1  0  0  0  0
  8  7  2  0  0  0  0
  9  7  1  0  0  0  0
 10  9  2  0  0  0  0
 10 27  1  0  0  0  0
 11 10  1  0  0  0  0
 11 28  1  0  0  0  0
 12 11  2  0  0  0  0
 12 29  1  0  0  0  0
 13 12  1  0  0  0  0
 13  9  1  0  0  0  0
 14  5  1  0  0  0  0
 14 30  1  0  0  0  0
 15 14  2  0  0  0  0
 15  2  1  0  0  0  0
 15 31  1  0  0  0  0
 16  3  1  0  0  0  0
 17 16  2  0  0  0  0
 18 17  1  0  0  0  0
 19 18  2  0  0  0  0
 20 19  1  0  0  0  0
 20 16  1  0  0  0  0
 21 19  1  0  0  0  0
 21 32  1  0  0  0  0
 22 21  2  0  0  0  0
 22 33  1  0  0  0  0
 23 22  1  0  0  0  0
 23 34  1  0  0  0  0
 24 23  2  0  0  0  0
 24 18  1  0  0  0  0
 24 35  1  0  0  0  0
M  END
>  <MOL Chiral Flag>
0

>  <energy>
48.155794379908293

$$$$
> 197_AKC_D0RA00287A
>192.sdf
 OpenBabel10052220273D

 39 40  0  0  0  0  0  0  0  0999 V2000
   -5.2883   -0.9702    3.2831 F   0  0  0  0  0  0  0  0  0  0  0  0
   -4.2931   -1.9023    3.0465 C   0  0  0  0  0  0  0  0  0  0  0  0
   -3.6640   -2.1862    4.2458 F   0  0  0  0  0  0  0  0  0  0  0  0
   -4.8716   -3.0625    2.5647 F   0  0  0  0  0  0  0  0  0  0  0  0
   -3.3306   -1.3537    2.0218 C   0  0  0  0  0  0  0  0  0  0  0  0
   -3.8126   -1.0049    0.7535 C   0  0  0  0  0  0  0  0  0  0  0  0
   -2.9531   -0.4724   -0.2068 C   0  0  0  0  0  0  0  0  0  0  0  0
   -1.5849   -0.2779    0.0818 C   0  0  0  0  0  0  0  0  0  0  0  0
   -1.0977   -0.6395    1.3435 C   0  0  0  0  0  0  0  0  0  0  0  0
   -1.9632   -1.1734    2.3099 C   0  0  0  0  0  0  0  0  0  0  0  0
   -0.7118    0.3088   -0.8808 N   0  0  0  0  0  0  0  0  0  0  0  0
   -1.1796    0.7025   -1.9648 N   0  0  0  0  0  0  0  0  0  0  0  0
   -0.4552    1.3557   -2.9407 N   0  0  0  0  0  0  0  0  0  0  0  0
    0.9577    1.6422   -2.9656 C   0  0  0  0  0  0  0  0  0  0  0  0
    1.4015    2.3355   -3.9681 N   0  0  0  0  0  0  0  0  0  0  0  0
    1.8745    1.2191   -1.9333 N   0  0  0  0  0  0  0  0  0  0  0  0
    3.2346    1.1601   -2.2052 N   0  0  0  0  0  0  0  0  0  0  0  0
    4.1883    1.0702   -1.2305 C   0  0  0  0  0  0  0  0  0  0  0  0
    3.8382    1.0368   -0.0611 O   0  0  0  0  0  0  0  0  0  0  0  0
    5.6748    1.0585   -1.5800 C   0  0  0  0  0  0  0  0  0  0  0  0
    6.6877    1.0135   -0.5725 C   0  0  0  0  0  0  0  0  0  0  0  0
    6.3317    0.9590    1.1531 Cl  0  0  0  0  0  0  0  0  0  0  0  0
    8.0448    1.0174   -0.9345 C   0  0  0  0  0  0  0  0  0  0  0  0
    8.4278    1.0651   -2.2728 C   0  0  0  0  0  0  0  0  0  0  0  0
   10.1276    1.0703   -2.7090 Cl  0  0  0  0  0  0  0  0  0  0  0  0
    7.4608    1.1103   -3.2667 C   0  0  0  0  0  0  0  0  0  0  0  0
    6.1075    1.1078   -2.9359 C   0  0  0  0  0  0  0  0  0  0  0  0
   -4.8610   -1.1370    0.5121 H   0  0  0  0  0  0  0  0  0  0  0  0
   -3.3603   -0.2029   -1.1731 H   0  0  0  0  0  0  0  0  0  0  0  0
   -0.0520   -0.4952    1.5827 H   0  0  0  0  0  0  0  0  0  0  0  0
   -1.5664   -1.4351    3.2819 H   0  0  0  0  0  0  0  0  0  0  0  0
   -0.9980    1.6758   -3.7561 H   0  0  0  0  0  0  0  0  0  0  0  0
    2.3811    2.6319   -4.0510 H   0  0  0  0  0  0  0  0  0  0  0  0
    1.5352    0.9609   -0.9997 H   0  0  0  0  0  0  0  0  0  0  0  0
    3.5256    1.1862   -3.1787 H   0  0  0  0  0  0  0  0  0  0  0  0
    8.8085    0.9851   -0.1675 H   0  0  0  0  0  0  0  0  0  0  0  0
    7.7553    1.1496   -4.3088 H   0  0  0  0  0  0  0  0  0  0  0  0
    5.4312    1.1474   -3.7677 H   0  0  0  0  0  0  0  0  0  0  0  0
    0.7603    2.6522   -4.7091 H   0  0  0  0  0  0  0  0  0  0  0  0
  2  1  1  0  0  0  0
  3  2  1  0  0  0  0
  4  2  1  0  0  0  0
  5  2  1  0  0  0  0
  6  5  2  0  0  0  0
  6 28  1  0  0  0  0
  7  6  1  0  0  0  0
  7 29  1  0  0  0  0
  8  7  2  0  0  0  0
  9  8  1  0  0  0  0
  9 30  1  0  0  0  0
 10  9  2  0  0  0  0
 10  5  1  0  0  0  0
 10 31  1  0  0  0  0
 11  8  1  0  0  0  0
 12 11  2  0  0  0  0
 13 12  1  0  0  0  0
 13 32  1  0  0  0  0
 14 13  1  0  0  0  0
 15 14  2  0  0  0  0
 15 33  1  0  0  0  0
 15 39  1  0  0  0  0
 16 14  1  0  0  0  0
 16 34  1  0  0  0  0
 17 16  1  0  0  0  0
 17 35  1  0  0  0  0
 18 17  1  0  0  0  0
 19 18  2  0  0  0  0
 20 18  1  0  0  0  0
 21 20  2  0  0  0  0
 22 21  1  0  0  0  0
 23 21  1  0  0  0  0
 23 36  1  0  0  0  0
 24 23  2  0  0  0  0
 25 24  1  0  0  0  0
 26 24  1  0  0  0  0
 26 37  1  0  0  0  0
 27 26  2  0  0  0  0
 27 20  1  0  0  0  0
 27 38  1  0  0  0  0
M  END
>  <MOL Chiral Flag>
0

>  <energy>
43.166650132952732

$$$$
> 198_AKC_s11686-019-00146-5
>193.sdf
 OpenBabel10052220273D

 43 45  0  0  0  0  0  0  0  0999 V2000
   -1.8063    2.0587    0.1831 C   0  0  0  0  0  0  0  0  0  0  0  0
   -2.4272    0.7500   -0.3899 C   0  0  0  0  0  0  0  0  0  0  0  0
   -3.9561    1.0270   -0.5183 C   0  0  0  0  0  0  0  0  0  0  0  0
   -1.7138    0.2054   -1.6758 C   0  0  2  0  0  0  0  0  0  0  0  0
   -2.4426   -1.1399   -1.9081 C   0  0  0  0  0  0  0  0  0  0  0  0
   -2.6580   -1.6667   -0.4722 C   0  0  0  0  0  0  0  0  0  0  0  0
   -2.0873   -0.5227    0.4056 C   0  0  2  0  0  0  0  0  0  0  0  0
   -2.5066   -0.6237    1.8809 C   0  0  0  0  0  0  0  0  0  0  0  0
   -0.6105   -0.5991    0.1794 C   0  0  0  0  0  0  0  0  0  0  0  0
   -0.2658   -0.1496   -1.2004 C   0  0  0  0  0  0  0  0  0  0  0  0
    0.1925   -0.9410    1.1185 N   0  0  0  0  0  0  0  0  0  0  0  0
    1.5309   -1.1967    0.9737 N   0  0  0  0  0  0  0  0  0  0  0  0
    2.3182   -0.8577    1.9260 C   0  0  0  0  0  0  0  0  0  0  0  0
    3.5129   -1.6750    2.2845 C   0  0  0  0  0  0  0  0  0  0  0  0
    3.9084   -1.5512    3.6320 C   0  0  0  0  0  0  0  0  0  0  0  0
    4.8556   -2.3969    4.1908 C   0  0  0  0  0  0  0  0  0  0  0  0
    5.4382   -3.3918    3.4216 C   0  0  0  0  0  0  0  0  0  0  0  0
    5.1052   -3.5225    2.0741 C   0  0  0  0  0  0  0  0  0  0  0  0
    4.1549   -2.6671    1.4626 C   0  0  0  0  0  0  0  0  0  0  0  0
    3.8821   -2.8435    0.0616 N   0  0  0  0  0  0  0  0  0  0  0  0
    3.3605   -1.9758   -0.5698 O   0  0  0  0  0  0  0  0  0  0  0  0
    4.3534   -3.7713   -0.5229 O   0  0  0  0  0  0  0  0  0  0  0  0
   -1.9899    2.9025   -0.5153 H   0  0  0  0  0  0  0  0  0  0  0  0
   -0.7161    2.0053    0.3654 H   0  0  0  0  0  0  0  0  0  0  0  0
   -2.2763    2.3082    1.1590 H   0  0  0  0  0  0  0  0  0  0  0  0
   -4.5592    0.1760   -0.8829 H   0  0  0  0  0  0  0  0  0  0  0  0
   -4.3753    1.2906    0.4772 H   0  0  0  0  0  0  0  0  0  0  0  0
   -4.1364    1.8767   -1.2083 H   0  0  0  0  0  0  0  0  0  0  0  0
   -1.7173    0.8420   -2.5865 H   0  0  0  0  0  0  0  0  0  0  0  0
   -1.8894   -1.8387   -2.5720 H   0  0  0  0  0  0  0  0  0  0  0  0
   -3.4280   -0.9484   -2.3826 H   0  0  0  0  0  0  0  0  0  0  0  0
   -3.7424   -1.8294   -0.2965 H   0  0  0  0  0  0  0  0  0  0  0  0
   -2.1348   -2.6306   -0.2761 H   0  0  0  0  0  0  0  0  0  0  0  0
   -3.6092   -0.5693    1.9784 H   0  0  0  0  0  0  0  0  0  0  0  0
   -2.1640   -1.5924    2.3068 H   0  0  0  0  0  0  0  0  0  0  0  0
   -2.0487    0.1982    2.4708 H   0  0  0  0  0  0  0  0  0  0  0  0
    0.3678    0.7604   -1.1417 H   0  0  0  0  0  0  0  0  0  0  0  0
    0.2427   -0.9052   -1.8365 H   0  0  0  0  0  0  0  0  0  0  0  0
    1.9081   -0.2369    2.7206 H   0  0  0  0  0  0  0  0  0  0  0  0
    3.4352   -0.8193    4.2772 H   0  0  0  0  0  0  0  0  0  0  0  0
    5.1119   -2.2975    5.2377 H   0  0  0  0  0  0  0  0  0  0  0  0
    6.1539   -4.0666    3.8722 H   0  0  0  0  0  0  0  0  0  0  0  0
    5.5905   -4.3038    1.5043 H   0  0  0  0  0  0  0  0  0  0  0  0
  1 23  1  0  0  0  0
  1 24  1  0  0  0  0
  1 25  1  0  0  0  0
  2  1  1  0  0  0  0
  3  2  1  0  0  0  0
  3 26  1  0  0  0  0
  3 27  1  0  0  0  0
  3 28  1  0  0  0  0
  4  2  1  0  0  0  0
  4 29  1  6  0  0  0
  5  4  1  0  0  0  0
  5 30  1  0  0  0  0
  5 31  1  0  0  0  0
  6  5  1  0  0  0  0
  6 32  1  0  0  0  0
  6 33  1  0  0  0  0
  7  6  1  0  0  0  0
  7  2  1  0  0  0  0
  7  8  1  1  0  0  0
  8 34  1  0  0  0  0
  8 35  1  0  0  0  0
  8 36  1  0  0  0  0
  9  7  1  0  0  0  0
 10  9  1  0  0  0  0
 10  4  1  0  0  0  0
 10 37  1  0  0  0  0
 10 38  1  0  0  0  0
 11  9  2  0  0  0  0
 12 11  1  0  0  0  0
 13 12  2  0  0  0  0
 13 39  1  0  0  0  0
 14 13  1  0  0  0  0
 15 14  2  0  0  0  0
 15 40  1  0  0  0  0
 16 15  1  0  0  0  0
 16 41  1  0  0  0  0
 17 16  2  0  0  0  0
 17 42  1  0  0  0  0
 18 17  1  0  0  0  0
 18 43  1  0  0  0  0
 19 18  2  0  0  0  0
 19 14  1  0  0  0  0
 20 19  1  0  0  0  0
 21 20  2  0  0  0  0
 22 20  2  0  0  0  0
M  END
>  <MOL Chiral Flag>
0

>  <energy>
102.82732746593813

$$$$
> 199_AKC_ardp.201900241
>194.sdf
 OpenBabel10052220273D

 41 42  0  0  0  0  0  0  0  0999 V2000
   -8.2812   -3.7622   -1.9461 C   0  0  0  0  0  0  0  0  0  0  0  0
   -7.2542   -2.6689   -1.6717 C   0  0  0  0  0  0  0  0  0  0  0  0
   -5.8206   -3.1851   -1.8676 C   0  0  0  0  0  0  0  0  0  0  0  0
   -4.8190   -2.0330   -1.7602 C   0  0  0  0  0  0  0  0  0  0  0  0
   -3.3605   -2.4979   -1.9197 C   0  0  0  0  0  0  0  0  0  0  0  0
   -2.4556   -1.2617   -1.9675 C   0  0  0  0  0  0  0  0  0  0  0  0
   -0.9467   -1.5276   -2.0548 C   0  0  0  0  0  0  0  0  0  0  0  0
   -0.3880   -2.2340   -0.8066 C   0  0  0  0  0  0  0  0  0  0  0  0
    1.0667   -1.9167   -0.6179 C   0  0  0  0  0  0  0  0  0  0  0  0
    1.5699   -0.6548   -0.3986 C   0  0  0  0  0  0  0  0  0  0  0  0
    2.9149   -0.8483   -0.2264 C   0  0  0  0  0  0  0  0  0  0  0  0
    3.1916   -2.1638   -0.3447 N   0  0  0  0  0  0  0  0  0  0  0  0
    2.0612   -2.7764   -0.5772 O   0  0  0  0  0  0  0  0  0  0  0  0
    3.8854    0.2121    0.0715 C   0  0  0  0  0  0  0  0  0  0  0  0
    5.2403    0.0577    0.3042 C   0  0  0  0  0  0  0  0  0  0  0  0
    5.7284    1.3247    0.5552 C   0  0  0  0  0  0  0  0  0  0  0  0
    4.6400    2.1710    0.4580 C   0  0  0  0  0  0  0  0  0  0  0  0
    3.5603    1.4825    0.1714 O   0  0  0  0  0  0  0  0  0  0  0  0
    4.6540    3.5774    0.6384 N   0  0  0  0  0  0  0  0  0  0  0  0
    5.6728    4.1415    0.9020 O   0  0  0  0  0  0  0  0  0  0  0  0
    3.6440    4.2029    0.5257 O   0  0  0  0  0  0  0  0  0  0  0  0
   -9.3042   -3.3617   -1.7823 H   0  0  0  0  0  0  0  0  0  0  0  0
   -8.1213   -4.6304   -1.2735 H   0  0  0  0  0  0  0  0  0  0  0  0
   -8.2011   -4.0965   -3.0031 H   0  0  0  0  0  0  0  0  0  0  0  0
   -7.3749   -2.2978   -0.6296 H   0  0  0  0  0  0  0  0  0  0  0  0
   -7.4560   -1.8281   -2.3708 H   0  0  0  0  0  0  0  0  0  0  0  0
   -5.6015   -3.9635   -1.1041 H   0  0  0  0  0  0  0  0  0  0  0  0
   -5.7230   -3.6343   -2.8799 H   0  0  0  0  0  0  0  0  0  0  0  0
   -5.0594   -1.3004   -2.5629 H   0  0  0  0  0  0  0  0  0  0  0  0
   -4.9305   -1.5251   -0.7757 H   0  0  0  0  0  0  0  0  0  0  0  0
   -3.2368   -3.0704   -2.8643 H   0  0  0  0  0  0  0  0  0  0  0  0
   -3.0936   -3.1521   -1.0614 H   0  0  0  0  0  0  0  0  0  0  0  0
   -2.6366   -0.6412   -1.0618 H   0  0  0  0  0  0  0  0  0  0  0  0
   -2.7425   -0.6573   -2.8564 H   0  0  0  0  0  0  0  0  0  0  0  0
   -0.5007   -0.5125   -2.1288 H   0  0  0  0  0  0  0  0  0  0  0  0
   -0.6621   -2.0838   -2.9754 H   0  0  0  0  0  0  0  0  0  0  0  0
   -0.5759   -3.3278   -0.8688 H   0  0  0  0  0  0  0  0  0  0  0  0
   -0.8901   -1.8435    0.1040 H   0  0  0  0  0  0  0  0  0  0  0  0
    1.0227    0.2777   -0.3496 H   0  0  0  0  0  0  0  0  0  0  0  0
    5.8048   -0.8648    0.2985 H   0  0  0  0  0  0  0  0  0  0  0  0
    6.7508    1.5960    0.7831 H   0  0  0  0  0  0  0  0  0  0  0  0
  1 22  1  0  0  0  0
  1 23  1  0  0  0  0
  1 24  1  0  0  0  0
  2  1  1  0  0  0  0
  2 25  1  0  0  0  0
  2 26  1  0  0  0  0
  3  2  1  0  0  0  0
  3 27  1  0  0  0  0
  3 28  1  0  0  0  0
  4  3  1  0  0  0  0
  4 29  1  0  0  0  0
  4 30  1  0  0  0  0
  5  4  1  0  0  0  0
  5 31  1  0  0  0  0
  5 32  1  0  0  0  0
  6  5  1  0  0  0  0
  6 33  1  0  0  0  0
  6 34  1  0  0  0  0
  7  6  1  0  0  0  0
  7 35  1  0  0  0  0
  7 36  1  0  0  0  0
  8  7  1  0  0  0  0
  8 37  1  0  0  0  0
  8 38  1  0  0  0  0
  9  8  1  0  0  0  0
 10  9  2  0  0  0  0
 10 39  1  0  0  0  0
 11 10  1  0  0  0  0
 12 11  2  0  0  0  0
 13 12  1  0  0  0  0
 13  9  1  0  0  0  0
 14 11  1  0  0  0  0
 15 14  2  0  0  0  0
 15 40  1  0  0  0  0
 16 15  1  0  0  0  0
 16 41  1  0  0  0  0
 17 16  2  0  0  0  0
 18 17  1  0  0  0  0
 18 14  1  0  0  0  0
 19 17  1  0  0  0  0
 20 19  2  0  0  0  0
 21 19  2  0  0  0  0
M  END
>  <MOL Chiral Flag>
0

>  <energy>
50.466483903685095

$$$$
> 200_AKC_molecules25030465
>195.sdf
 OpenBabel10052220283D

 43 47  0  0  0  0  0  0  0  0999 V2000
   -6.0431    0.1271   -0.2125 O   0  0  0  0  0  0  0  0  0  0  0  0
   -4.8486   -0.0981   -0.3321 C   0  0  0  0  0  0  0  0  0  0  0  0
   -4.0220   -0.5302    0.8417 C   0  0  0  0  0  0  0  0  0  0  0  0
   -2.8866    0.4879    1.0310 C   0  0  0  0  0  0  0  0  0  0  0  0
   -2.0531    0.6582   -0.2803 C   0  0  0  0  0  0  0  0  0  0  0  0
   -3.0046    1.1190   -1.4151 C   0  0  0  0  0  0  0  0  0  0  0  0
   -4.1486    0.1163   -1.6402 C   0  0  0  0  0  0  0  0  0  0  0  0
   -1.0471    1.6458   -0.1427 O   0  0  0  0  0  0  0  0  0  0  0  0
   -0.1826    1.2594    0.7956 O   0  0  0  0  0  0  0  0  0  0  0  0
    0.4453    0.0570    0.3801 C   0  0  2  0  0  0  0  0  0  0  0  0
   -0.5663   -0.9297    0.2542 O   0  0  0  0  0  0  0  0  0  0  0  0
   -1.4302   -0.5490   -0.6869 O   0  0  0  0  0  0  0  0  0  0  0  0
    1.4280   -0.3919    1.5014 C   0  0  2  0  0  0  0  0  0  0  0  0
    2.5273    0.6792    1.7089 C   0  0  0  0  0  0  0  0  0  0  0  0
    3.3257    0.8630    0.3999 C   0  0  1  0  0  0  0  0  0  0  0  0
    3.9897   -0.4761    0.0107 C   0  0  0  0  0  0  0  0  0  0  0  0
    2.8997   -1.5509   -0.1953 C   0  0  1  0  0  0  0  0  0  0  0  0
    2.1024   -1.7313    1.1149 C   0  0  0  0  0  0  0  0  0  0  0  0
    1.9452   -1.1035   -1.3239 C   0  0  0  0  0  0  0  0  0  0  0  0
    1.2747    0.2370   -0.9385 C   0  0  2  0  0  0  0  0  0  0  0  0
    2.3707    1.3094   -0.7286 C   0  0  0  0  0  0  0  0  0  0  0  0
   -3.5907   -1.5321    0.6295 H   0  0  0  0  0  0  0  0  0  0  0  0
   -4.6390   -0.5993    1.7638 H   0  0  0  0  0  0  0  0  0  0  0  0
   -3.3277    1.4721    1.3061 H   0  0  0  0  0  0  0  0  0  0  0  0
   -2.2451    0.1608    1.8766 H   0  0  0  0  0  0  0  0  0  0  0  0
   -2.4378    1.2491   -2.3626 H   0  0  0  0  0  0  0  0  0  0  0  0
   -3.4425    2.1054   -1.1418 H   0  0  0  0  0  0  0  0  0  0  0  0
   -3.7313   -0.8533   -1.9870 H   0  0  0  0  0  0  0  0  0  0  0  0
   -4.8503    0.4945   -2.4153 H   0  0  0  0  0  0  0  0  0  0  0  0
    0.8673   -0.5274    2.4525 H   0  0  0  0  0  0  0  0  0  0  0  0
    3.2133    0.3647    2.5264 H   0  0  0  0  0  0  0  0  0  0  0  0
    2.0710    1.6461    2.0134 H   0  0  0  0  0  0  0  0  0  0  0  0
    4.1121    1.6346    0.5491 H   0  0  0  0  0  0  0  0  0  0  0  0
    4.5794   -0.3498   -0.9241 H   0  0  0  0  0  0  0  0  0  0  0  0
    4.6932   -0.7974    0.8101 H   0  0  0  0  0  0  0  0  0  0  0  0
    3.3799   -2.5142   -0.4738 H   0  0  0  0  0  0  0  0  0  0  0  0
    2.7860   -2.0598    1.9289 H   0  0  0  0  0  0  0  0  0  0  0  0
    1.3356   -2.5255    0.9859 H   0  0  0  0  0  0  0  0  0  0  0  0
    2.5151   -0.9827   -2.2714 H   0  0  0  0  0  0  0  0  0  0  0  0
    1.1711   -1.8824   -1.4974 H   0  0  0  0  0  0  0  0  0  0  0  0
    0.6136    0.5592   -1.7717 H   0  0  0  0  0  0  0  0  0  0  0  0
    1.9063    2.2855   -0.4689 H   0  0  0  0  0  0  0  0  0  0  0  0
    2.9445    1.4531   -1.6705 H   0  0  0  0  0  0  0  0  0  0  0  0
  2  1  2  0  0  0  0
  3  2  1  0  0  0  0
  3 22  1  0  0  0  0
  3 23  1  0  0  0  0
  4  3  1  0  0  0  0
  4 24  1  0  0  0  0
  4 25  1  0  0  0  0
  5  4  1  0  0  0  0
  6  5  1  0  0  0  0
  6 26  1  0  0  0  0
  6 27  1  0  0  0  0
  7  6  1  0  0  0  0
  7  2  1  0  0  0  0
  7 28  1  0  0  0  0
  7 29  1  0  0  0  0
  8  5  1  0  0  0  0
  9  8  1  0  0  0  0
 10  9  1  1  0  0  0
 11 10  1  0  0  0  0
 12 11  1  0  0  0  0
 12  5  1  0  0  0  0
 13 10  1  0  0  0  0
 13 30  1  1  0  0  0
 14 13  1  0  0  0  0
 14 31  1  0  0  0  0
 14 32  1  0  0  0  0
 15 14  1  0  0  0  0
 15 33  1  1  0  0  0
 16 15  1  0  0  0  0
 16 34  1  0  0  0  0
 16 35  1  0  0  0  0
 17 16  1  0  0  0  0
 17 36  1  6  0  0  0
 18 17  1  0  0  0  0
 18 13  1  0  0  0  0
 18 37  1  0  0  0  0
 18 38  1  0  0  0  0
 19 17  1  0  0  0  0
 19 39  1  0  0  0  0
 19 40  1  0  0  0  0
 20 19  1  0  0  0  0
 20 10  1  0  0  0  0
 20 41  1  6  0  0  0
 21 20  1  0  0  0  0
 21 15  1  0  0  0  0
 21 42  1  0  0  0  0
 21 43  1  0  0  0  0
M  END
>  <MOL Chiral Flag>
0

>  <energy>
79.87824516262593

$$$$
> 201_AKC_j.cbi.2019.108850
>196.sdf
 OpenBabel10052220283D

 54 55  0  0  0  0  0  0  0  0999 V2000
   -4.4545   -8.4452    1.9348 C   0  0  0  0  0  0  0  0  0  0  0  0
   -4.2060   -7.7499    0.5978 C   0  0  0  0  0  0  0  0  0  0  0  0
   -3.3256   -6.5061    0.7787 C   0  0  0  0  0  0  0  0  0  0  0  0
   -3.1526   -5.7110   -0.5366 C   0  0  0  0  0  0  0  0  0  0  0  0
   -1.6963   -5.4691   -0.9753 C   0  0  0  0  0  0  0  0  0  0  0  0
   -0.8698   -4.6952    0.0656 C   0  0  0  0  0  0  0  0  0  0  0  0
    0.4855   -4.2532   -0.5045 C   0  0  0  0  0  0  0  0  0  0  0  0
    1.3094   -3.5069    0.5570 C   0  0  0  0  0  0  0  0  0  0  0  0
    2.6675   -3.0599   -0.0085 C   0  0  0  0  0  0  0  0  0  0  0  0
    3.5633   -2.3832    1.0472 C   0  0  0  0  0  0  0  0  0  0  0  0
    3.1573   -1.0275    1.4378 N   0  0  0  0  0  0  0  0  0  0  0  0
    2.1541   -0.2588    0.9574 C   0  0  0  0  0  0  0  0  0  0  0  0
    2.2334    0.9547    1.6094 C   0  0  0  0  0  0  0  0  0  0  0  0
    1.3529    2.1439    1.3801 C   0  0  0  0  0  0  0  0  0  0  0  0
    1.5254    2.5510    0.0407 O   0  0  0  0  0  0  0  0  0  0  0  0
    0.4419    3.3482   -0.3749 C   0  0  0  0  0  0  0  0  0  0  0  0
    0.7842    3.9245   -1.7457 C   0  0  1  0  0  0  0  0  0  0  0  0
    0.4594    3.0728   -2.9116 C   0  0  0  0  0  0  0  0  0  0  0  0
   -0.3435    4.1799   -2.5321 O   0  0  0  0  0  0  0  0  0  0  0  0
    3.2736    0.8799    2.4645 N   0  3  0  0  0  0  0  0  0  0  0  0
    3.7708    1.9188    3.3603 C   0  0  0  0  0  0  0  0  0  0  0  0
    3.8192   -0.3195    2.3450 N   0  0  0  0  0  0  0  0  0  0  0  0
   -5.1025   -9.3335    1.7810 H   0  0  0  0  0  0  0  0  0  0  0  0
   -3.4958   -8.7757    2.3880 H   0  0  0  0  0  0  0  0  0  0  0  0
   -4.9678   -7.7521    2.6356 H   0  0  0  0  0  0  0  0  0  0  0  0
   -3.7052   -8.4602   -0.0969 H   0  0  0  0  0  0  0  0  0  0  0  0
   -5.1872   -7.4578    0.1655 H   0  0  0  0  0  0  0  0  0  0  0  0
   -2.3505   -6.8274    1.1981 H   0  0  0  0  0  0  0  0  0  0  0  0
   -3.8069   -5.8331    1.5235 H   0  0  0  0  0  0  0  0  0  0  0  0
   -3.6523   -4.7238   -0.4175 H   0  0  0  0  0  0  0  0  0  0  0  0
   -3.6798   -6.2198   -1.3736 H   0  0  0  0  0  0  0  0  0  0  0  0
   -1.7441   -4.8709   -1.9118 H   0  0  0  0  0  0  0  0  0  0  0  0
   -1.1988   -6.4362   -1.2108 H   0  0  0  0  0  0  0  0  0  0  0  0
   -1.4283   -3.7876    0.3777 H   0  0  0  0  0  0  0  0  0  0  0  0
   -0.6994   -5.3363    0.9565 H   0  0  0  0  0  0  0  0  0  0  0  0
    0.3099   -3.5789   -1.3721 H   0  0  0  0  0  0  0  0  0  0  0  0
    1.0525   -5.1439   -0.8559 H   0  0  0  0  0  0  0  0  0  0  0  0
    0.7342   -2.6329    0.9243 H   0  0  0  0  0  0  0  0  0  0  0  0
    1.4874   -4.1937    1.4141 H   0  0  0  0  0  0  0  0  0  0  0  0
    3.1967   -3.9760   -0.3509 H   0  0  0  0  0  0  0  0  0  0  0  0
    2.5432   -2.3929   -0.8893 H   0  0  0  0  0  0  0  0  0  0  0  0
    4.5879   -2.3045    0.6247 H   0  0  0  0  0  0  0  0  0  0  0  0
    3.6167   -3.0341    1.9466 H   0  0  0  0  0  0  0  0  0  0  0  0
    1.4453   -0.5359    0.1888 H   0  0  0  0  0  0  0  0  0  0  0  0
    1.6388    2.9770    2.0578 H   0  0  0  0  0  0  0  0  0  0  0  0
    0.3072    1.8267    1.6005 H   0  0  0  0  0  0  0  0  0  0  0  0
   -0.4856    2.7327   -0.4339 H   0  0  0  0  0  0  0  0  0  0  0  0
    0.2825    4.2081    0.3149 H   0  0  0  0  0  0  0  0  0  0  0  0
    1.6038    4.6592   -1.8922 H   0  0  0  0  0  0  0  0  0  0  0  0
    0.9282    3.3207   -3.8864 H   0  0  0  0  0  0  0  0  0  0  0  0
   -0.1511    2.1559   -2.7707 H   0  0  0  0  0  0  0  0  0  0  0  0
    2.9788    2.2060    4.0829 H   0  0  0  0  0  0  0  0  0  0  0  0
    4.0735    2.8094    2.7696 H   0  0  0  0  0  0  0  0  0  0  0  0
    4.6541    1.5497    3.9235 H   0  0  0  0  0  0  0  0  0  0  0  0
  1 23  1  0  0  0  0
  1 24  1  0  0  0  0
  1 25  1  0  0  0  0
  2  1  1  0  0  0  0
  2 26  1  0  0  0  0
  2 27  1  0  0  0  0
  3  2  1  0  0  0  0
  3 28  1  0  0  0  0
  3 29  1  0  0  0  0
  4  3  1  0  0  0  0
  4 30  1  0  0  0  0
  4 31  1  0  0  0  0
  5  4  1  0  0  0  0
  5 32  1  0  0  0  0
  5 33  1  0  0  0  0
  6  5  1  0  0  0  0
  6 34  1  0  0  0  0
  6 35  1  0  0  0  0
  7  6  1  0  0  0  0
  7 36  1  0  0  0  0
  7 37  1  0  0  0  0
  8  7  1  0  0  0  0
  8 38  1  0  0  0  0
  8 39  1  0  0  0  0
  9  8  1  0  0  0  0
  9 40  1  0  0  0  0
  9 41  1  0  0  0  0
 10  9  1  0  0  0  0
 10 42  1  0  0  0  0
 10 43  1  0  0  0  0
 11 10  1  0  0  0  0
 12 11  1  0  0  0  0
 12 44  1  0  0  0  0
 13 12  2  0  0  0  0
 14 13  1  0  0  0  0
 14 45  1  0  0  0  0
 14 46  1  0  0  0  0
 15 14  1  0  0  0  0
 16 15  1  0  0  0  0
 16 47  1  0  0  0  0
 16 48  1  0  0  0  0
 17 16  1  0  0  0  0
 17 49  1  6  0  0  0
 18 17  1  0  0  0  0
 18 50  1  0  0  0  0
 18 51  1  0  0  0  0
 19 18  1  0  0  0  0
 19 17  1  0  0  0  0
 20 13  1  0  0  0  0
 21 20  1  0  0  0  0
 21 52  1  0  0  0  0
 21 53  1  0  0  0  0
 21 54  1  0  0  0  0
 22 20  2  0  0  0  0
 22 11  1  0  0  0  0
M  CHG  1  20   1
M  END
>  <MOL Chiral Flag>
0

>  <energy>
65.910109705830394

$$$$
> 202_AKC_1871526518666181113114820
>197.sdf
 OpenBabel10052220293D

 58 61  0  0  0  0  0  0  0  0999 V2000
   -2.3658    1.5101   -3.2359 C   0  0  0  0  0  0  0  0  0  0  0  0
   -3.8373    1.5923   -2.8639 C   0  0  0  0  0  0  0  0  0  0  0  0
   -4.4435    1.3421   -1.6858 C   0  0  0  0  0  0  0  0  0  0  0  0
   -5.9192    1.5430   -1.5170 C   0  0  0  0  0  0  0  0  0  0  0  0
   -6.8162    1.4969   -2.6111 C   0  0  0  0  0  0  0  0  0  0  0  0
   -8.1831    1.7145   -2.4187 C   0  0  0  0  0  0  0  0  0  0  0  0
   -8.6759    1.9945   -1.1449 C   0  0  0  0  0  0  0  0  0  0  0  0
   -7.8045    2.0407   -0.0546 C   0  0  0  0  0  0  0  0  0  0  0  0
   -6.4350    1.8045   -0.2346 C   0  0  0  0  0  0  0  0  0  0  0  0
   -1.3434    0.9186   -2.3271 N   0  3  2  0  0  0  0  0  0  0  0  0
   -1.0828    1.6894   -1.0845 C   0  0  0  0  0  0  0  0  0  0  0  0
    0.0583    1.0325   -0.2590 C   0  0  0  0  0  0  0  0  0  0  0  0
    1.3045    0.9720   -1.0614 N   0  3  2  0  0  0  0  0  0  0  0  0
    1.0784    0.2626   -2.3413 C   0  0  0  0  0  0  0  0  0  0  0  0
   -0.0801    0.8865   -3.1167 C   0  0  0  0  0  0  0  0  0  0  0  0
    2.5442    0.5057   -0.3541 C   0  0  0  0  0  0  0  0  0  0  0  0
    2.7978   -1.0107   -0.1902 C   0  0  0  0  0  0  0  0  0  0  0  0
    1.7945   -2.0064   -0.1982 C   0  0  0  0  0  0  0  0  0  0  0  0
    2.1351   -3.3575   -0.0614 C   0  0  0  0  0  0  0  0  0  0  0  0
    3.4668   -3.7380    0.0962 C   0  0  0  0  0  0  0  0  0  0  0  0
    4.4676   -2.7700    0.1262 C   0  0  0  0  0  0  0  0  0  0  0  0
    4.1380   -1.4205   -0.0126 C   0  0  0  0  0  0  0  0  0  0  0  0
    2.8248    1.2830    0.9373 C   0  0  0  0  0  0  0  0  0  0  0  0
    3.0712    2.6688    0.8739 C   0  0  0  0  0  0  0  0  0  0  0  0
    3.3525    3.3927    2.0379 C   0  0  0  0  0  0  0  0  0  0  0  0
    3.3882    2.7482    3.2749 C   0  0  0  0  0  0  0  0  0  0  0  0
    3.1409    1.3773    3.3552 C   0  0  0  0  0  0  0  0  0  0  0  0
    2.8609    0.6458    2.1977 C   0  0  0  0  0  0  0  0  0  0  0  0
   -2.0587    2.5368   -3.5357 H   0  0  0  0  0  0  0  0  0  0  0  0
   -2.3868    0.8897   -4.1618 H   0  0  0  0  0  0  0  0  0  0  0  0
   -4.4519    1.9462   -3.6811 H   0  0  0  0  0  0  0  0  0  0  0  0
   -3.8748    1.0505   -0.8199 H   0  0  0  0  0  0  0  0  0  0  0  0
   -6.4759    1.2757   -3.6119 H   0  0  0  0  0  0  0  0  0  0  0  0
   -8.8607    1.6689   -3.2624 H   0  0  0  0  0  0  0  0  0  0  0  0
   -9.7344    2.1748   -1.0038 H   0  0  0  0  0  0  0  0  0  0  0  0
   -8.1911    2.2651    0.9312 H   0  0  0  0  0  0  0  0  0  0  0  0
   -5.7736    1.8562    0.6209 H   0  0  0  0  0  0  0  0  0  0  0  0
   -1.6291   -0.0603   -2.0845 H   0  0  0  0  0  0  0  0  0  0  0  0
   -1.9666    1.7406   -0.4314 H   0  0  0  0  0  0  0  0  0  0  0  0
   -0.8020    2.7376   -1.3328 H   0  0  0  0  0  0  0  0  0  0  0  0
   -0.2692    0.0306    0.0697 H   0  0  0  0  0  0  0  0  0  0  0  0
    0.2160    1.6459    0.6546 H   0  0  0  0  0  0  0  0  0  0  0  0
    1.5049    1.9682   -1.3230 H   0  0  0  0  0  0  0  0  0  0  0  0
    0.8248   -0.7988   -2.1976 H   0  0  0  0  0  0  0  0  0  0  0  0
    1.9926    0.3109   -2.9753 H   0  0  0  0  0  0  0  0  0  0  0  0
   -0.2096    0.2972   -4.0530 H   0  0  0  0  0  0  0  0  0  0  0  0
    0.2177    1.9219   -3.4070 H   0  0  0  0  0  0  0  0  0  0  0  0
    3.3773    0.7904   -1.0417 H   0  0  0  0  0  0  0  0  0  0  0  0
    0.7554   -1.7704   -0.3042 H   0  0  0  0  0  0  0  0  0  0  0  0
    1.3596   -4.1123   -0.0780 H   0  0  0  0  0  0  0  0  0  0  0  0
    3.7243   -4.7844    0.1995 H   0  0  0  0  0  0  0  0  0  0  0  0
    5.5015   -3.0632    0.2536 H   0  0  0  0  0  0  0  0  0  0  0  0
    4.9340   -0.6851    0.0095 H   0  0  0  0  0  0  0  0  0  0  0  0
    3.0585    3.1856   -0.0760 H   0  0  0  0  0  0  0  0  0  0  0  0
    3.5478    4.4558    1.9785 H   0  0  0  0  0  0  0  0  0  0  0  0
    3.6088    3.3103    4.1735 H   0  0  0  0  0  0  0  0  0  0  0  0
    3.1685    0.8787    4.3153 H   0  0  0  0  0  0  0  0  0  0  0  0
    2.6733   -0.4151    2.2946 H   0  0  0  0  0  0  0  0  0  0  0  0
  1 29  1  0  0  0  0
  1 30  1  0  0  0  0
  2  1  1  0  0  0  0
  2 31  1  0  0  0  0
  3  2  2  0  0  0  0
  3 32  1  0  0  0  0
  4  3  1  0  0  0  0
  5  4  2  0  0  0  0
  5 33  1  0  0  0  0
  6  5  1  0  0  0  0
  6 34  1  0  0  0  0
  7  6  2  0  0  0  0
  7 35  1  0  0  0  0
  8  7  1  0  0  0  0
  8 36  1  0  0  0  0
  9  8  2  0  0  0  0
  9  4  1  0  0  0  0
  9 37  1  0  0  0  0
 10  1  1  0  0  0  0
 10 38  1  1  0  0  0
 11 10  1  0  0  0  0
 11 39  1  0  0  0  0
 11 40  1  0  0  0  0
 12 11  1  0  0  0  0
 12 41  1  0  0  0  0
 12 42  1  0  0  0  0
 13 12  1  0  0  0  0
 13 43  1  6  0  0  0
 14 13  1  0  0  0  0
 14 44  1  0  0  0  0
 14 45  1  0  0  0  0
 15 14  1  0  0  0  0
 15 10  1  0  0  0  0
 15 46  1  0  0  0  0
 15 47  1  0  0  0  0
 16 13  1  0  0  0  0
 16 48  1  0  0  0  0
 17 16  1  0  0  0  0
 18 17  2  0  0  0  0
 18 49  1  0  0  0  0
 19 18  1  0  0  0  0
 19 50  1  0  0  0  0
 20 19  2  0  0  0  0
 20 51  1  0  0  0  0
 21 20  1  0  0  0  0
 21 52  1  0  0  0  0
 22 21  2  0  0  0  0
 22 17  1  0  0  0  0
 22 53  1  0  0  0  0
 23 16  1  0  0  0  0
 24 23  2  0  0  0  0
 24 54  1  0  0  0  0
 25 24  1  0  0  0  0
 25 55  1  0  0  0  0
 26 25  2  0  0  0  0
 26 56  1  0  0  0  0
 27 26  1  0  0  0  0
 27 57  1  0  0  0  0
 28 27  2  0  0  0  0
 28 23  1  0  0  0  0
 28 58  1  0  0  0  0
M  CHG  2  10   1  13   1
M  END
>  <MOL Chiral Flag>
0

>  <energy>
138.82874508383151

$$$$
> 203_AKC_1568026620666200616142120
>198.sdf
 OpenBabel10052220293D

 47 50  0  0  0  0  0  0  0  0999 V2000
    4.6248    0.5769    1.7595 C   0  0  0  0  0  0  0  0  0  0  0  0
    3.7239    0.5635    0.6516 O   0  0  0  0  0  0  0  0  0  0  0  0
    4.1281   -0.3955   -0.2526 C   0  0  0  0  0  0  0  0  0  0  0  0
    3.5611   -1.6926   -0.2736 C   0  0  0  0  0  0  0  0  0  0  0  0
    4.1294   -2.6247   -1.1503 C   0  0  0  0  0  0  0  0  0  0  0  0
    3.4996   -3.8274   -0.9370 N   0  0  0  0  0  0  0  0  0  0  0  0
    2.4706   -3.6695   -0.0499 C   0  0  0  0  0  0  0  0  0  0  0  0
    2.4174   -2.3344    0.3158 C   0  0  0  0  0  0  0  0  0  0  0  0
    1.2418   -1.7568    0.9407 C   0  0  0  0  0  0  0  0  0  0  0  0
    1.1368   -0.4749    1.0712 N   0  0  0  0  0  0  0  0  0  0  0  0
   -0.1478   -0.0359    0.9974 C   0  0  0  0  0  0  0  0  0  0  0  0
   -0.7737    0.4440   -0.1364 C   0  0  0  0  0  0  0  0  0  0  0  0
   -0.0361    0.6710   -1.3522 C   0  0  0  0  0  0  0  0  0  0  0  0
    0.4983    0.8680   -2.3622 N   0  0  0  0  0  0  0  0  0  0  0  0
   -2.2079    0.5505   -0.0040 C   0  0  0  0  0  0  0  0  0  0  0  0
   -2.5790    0.4029    1.3280 C   0  0  0  0  0  0  0  0  0  0  0  0
   -3.8987    0.5026    2.0484 C   0  0  0  0  0  0  0  0  0  0  0  0
   -5.1343    0.8251    1.2167 C   0  0  0  0  0  0  0  0  0  0  0  0
   -5.1652    2.2582    0.6776 C   0  0  0  0  0  0  0  0  0  0  0  0
   -5.0622    2.3468   -0.8419 C   0  0  0  0  0  0  0  0  0  0  0  0
   -3.6529    2.1475   -1.3947 C   0  0  0  0  0  0  0  0  0  0  0  0
   -3.1052    0.7393   -1.2040 C   0  0  0  0  0  0  0  0  0  0  0  0
   -1.2181   -0.0144    2.3197 S   0  0  0  0  0  0  0  0  0  0  0  0
    5.1333   -2.2928   -2.0706 C   0  0  0  0  0  0  0  0  0  0  0  0
    5.5958   -0.9749   -2.0889 C   0  0  0  0  0  0  0  0  0  0  0  0
    5.1160   -0.0404   -1.1790 C   0  0  0  0  0  0  0  0  0  0  0  0
    4.8688   -0.4324    2.1130 H   0  0  0  0  0  0  0  0  0  0  0  0
    4.1457    1.1149    2.5827 H   0  0  0  0  0  0  0  0  0  0  0  0
    5.5429    1.1123    1.4932 H   0  0  0  0  0  0  0  0  0  0  0  0
    3.7143   -4.6796   -1.4364 H   0  0  0  0  0  0  0  0  0  0  0  0
    1.7998   -4.4934    0.1567 H   0  0  0  0  0  0  0  0  0  0  0  0
    0.3908   -2.4478    1.0990 H   0  0  0  0  0  0  0  0  0  0  0  0
   -3.8092    1.2546    2.8444 H   0  0  0  0  0  0  0  0  0  0  0  0
   -4.0833   -0.4569    2.5507 H   0  0  0  0  0  0  0  0  0  0  0  0
   -5.9986    0.7135    1.8858 H   0  0  0  0  0  0  0  0  0  0  0  0
   -5.2889    0.0798    0.4304 H   0  0  0  0  0  0  0  0  0  0  0  0
   -6.1327    2.6953    0.9575 H   0  0  0  0  0  0  0  0  0  0  0  0
   -4.4009    2.8876    1.1478 H   0  0  0  0  0  0  0  0  0  0  0  0
   -5.4014    3.3441   -1.1494 H   0  0  0  0  0  0  0  0  0  0  0  0
   -5.7537    1.6348   -1.3104 H   0  0  0  0  0  0  0  0  0  0  0  0
   -2.9710    2.9035   -0.9881 H   0  0  0  0  0  0  0  0  0  0  0  0
   -3.7129    2.3369   -2.4752 H   0  0  0  0  0  0  0  0  0  0  0  0
   -2.5276    0.4946   -2.1054 H   0  0  0  0  0  0  0  0  0  0  0  0
   -3.9012   -0.0122   -1.1988 H   0  0  0  0  0  0  0  0  0  0  0  0
    5.5149   -3.0208   -2.7793 H   0  0  0  0  0  0  0  0  0  0  0  0
    6.3423   -0.6756   -2.8202 H   0  0  0  0  0  0  0  0  0  0  0  0
    5.4946    0.9778   -1.1926 H   0  0  0  0  0  0  0  0  0  0  0  0
  1 27  1  0  0  0  0
  1 28  1  0  0  0  0
  1 29  1  0  0  0  0
  2  1  1  0  0  0  0
  3  2  1  0  0  0  0
  4  3  2  0  0  0  0
  5  4  1  0  0  0  0
  6  5  1  0  0  0  0
  6 30  1  0  0  0  0
  7  6  1  0  0  0  0
  7 31  1  0  0  0  0
  8  7  2  0  0  0  0
  8  4  1  0  0  0  0
  9  8  1  0  0  0  0
  9 32  1  0  0  0  0
 10  9  2  0  0  0  0
 11 10  1  0  0  0  0
 12 11  2  0  0  0  0
 13 12  1  0  0  0  0
 14 13  3  0  0  0  0
 15 12  1  0  0  0  0
 16 15  2  0  0  0  0
 17 16  1  0  0  0  0
 17 33  1  0  0  0  0
 17 34  1  0  0  0  0
 18 17  1  0  0  0  0
 18 35  1  0  0  0  0
 18 36  1  0  0  0  0
 19 18  1  0  0  0  0
 19 37  1  0  0  0  0
 19 38  1  0  0  0  0
 20 19  1  0  0  0  0
 20 39  1  0  0  0  0
 20 40  1  0  0  0  0
 21 20  1  0  0  0  0
 21 41  1  0  0  0  0
 21 42  1  0  0  0  0
 22 21  1  0  0  0  0
 22 15  1  0  0  0  0
 22 43  1  0  0  0  0
 22 44  1  0  0  0  0
 23 16  1  0  0  0  0
 23 11  1  0  0  0  0
 24  5  2  0  0  0  0
 24 45  1  0  0  0  0
 25 24  1  0  0  0  0
 25 46  1  0  0  0  0
 26 25  2  0  0  0  0
 26  3  1  0  0  0  0
 26 47  1  0  0  0  0
M  END
>  <MOL Chiral Flag>
0

>  <energy>
96.405745373107578

$$$$
> 204_AKC_cbdd.12112
>199.sdf
 OpenBabel10052220293D

 36 38  0  0  0  0  0  0  0  0999 V2000
   -3.5365    2.3522   -0.3252 C   0  0  0  0  0  0  0  0  0  0  0  0
   -2.7223    1.2483   -0.2041 O   0  0  0  0  0  0  0  0  0  0  0  0
   -2.7882    0.1058   -0.9444 C   0  0  0  0  0  0  0  0  0  0  0  0
   -3.7619   -0.0743   -1.9445 C   0  0  0  0  0  0  0  0  0  0  0  0
   -3.7934   -1.2549   -2.6878 C   0  0  0  0  0  0  0  0  0  0  0  0
   -2.8519   -2.2606   -2.4518 C   0  0  0  0  0  0  0  0  0  0  0  0
   -1.8744   -2.0950   -1.4628 C   0  0  0  0  0  0  0  0  0  0  0  0
   -1.8431   -0.9166   -0.6982 C   0  0  0  0  0  0  0  0  0  0  0  0
   -0.8697   -0.7107    0.3978 C   0  0  0  0  0  0  0  0  0  0  0  0
    0.1242   -1.4898    0.6625 N   0  0  0  0  0  0  0  0  0  0  0  0
    0.8736   -1.2063    1.7848 N   0  0  0  0  0  0  0  0  0  0  0  0
    2.2660   -1.5039    1.8977 C   0  0  0  0  0  0  0  0  0  0  0  0
    2.8849   -2.3759    0.9859 C   0  0  0  0  0  0  0  0  0  0  0  0
    4.2503   -2.6500    1.1002 C   0  0  0  0  0  0  0  0  0  0  0  0
    4.9895   -2.0700    2.0799 N   0  0  0  0  0  0  0  0  0  0  0  0
    4.4430   -1.2099    2.9787 C   0  0  0  0  0  0  0  0  0  0  0  0
    5.2584   -0.6207    3.9560 C   0  0  0  0  0  0  0  0  0  0  0  0
    4.7182    0.2801    4.8774 C   0  0  0  0  0  0  0  0  0  0  0  0
    5.7406    1.0256    6.0917 Cl  0  0  0  0  0  0  0  0  0  0  0  0
    3.3634    0.5954    4.8302 C   0  0  0  0  0  0  0  0  0  0  0  0
    2.5378    0.0179    3.8688 C   0  0  0  0  0  0  0  0  0  0  0  0
    3.0607   -0.9004    2.9198 C   0  0  0  0  0  0  0  0  0  0  0  0
   -4.5874    2.0804   -0.0963 H   0  0  0  0  0  0  0  0  0  0  0  0
   -3.4527    2.7824   -1.3452 H   0  0  0  0  0  0  0  0  0  0  0  0
   -3.2018    3.1186    0.4054 H   0  0  0  0  0  0  0  0  0  0  0  0
   -4.4976    0.6926   -2.1469 H   0  0  0  0  0  0  0  0  0  0  0  0
   -4.5512   -1.3889   -3.4492 H   0  0  0  0  0  0  0  0  0  0  0  0
   -2.8865   -3.1731   -3.0326 H   0  0  0  0  0  0  0  0  0  0  0  0
   -1.1606   -2.8889   -1.2836 H   0  0  0  0  0  0  0  0  0  0  0  0
   -1.0143    0.1632    1.0272 H   0  0  0  0  0  0  0  0  0  0  0  0
    0.4257   -0.6414    2.5115 H   0  0  0  0  0  0  0  0  0  0  0  0
    2.3164   -2.8476    0.1950 H   0  0  0  0  0  0  0  0  0  0  0  0
    4.7275   -3.3259    0.4027 H   0  0  0  0  0  0  0  0  0  0  0  0
    6.3143   -0.8561    3.9959 H   0  0  0  0  0  0  0  0  0  0  0  0
    2.9421    1.2976    5.5396 H   0  0  0  0  0  0  0  0  0  0  0  0
    1.5075    0.3199    3.8933 H   0  0  0  0  0  0  0  0  0  0  0  0
  1 23  1  0  0  0  0
  1 24  1  0  0  0  0
  1 25  1  0  0  0  0
  2  1  1  0  0  0  0
  3  2  1  0  0  0  0
  4  3  2  0  0  0  0
  4 26  1  0  0  0  0
  5  4  1  0  0  0  0
  5 27  1  0  0  0  0
  6  5  2  0  0  0  0
  6 28  1  0  0  0  0
  7  6  1  0  0  0  0
  7 29  1  0  0  0  0
  8  7  2  0  0  0  0
  8  3  1  0  0  0  0
  9  8  1  0  0  0  0
  9 30  1  0  0  0  0
 10  9  2  0  0  0  0
 11 10  1  0  0  0  0
 11 31  1  0  0  0  0
 12 11  1  0  0  0  0
 13 12  2  0  0  0  0
 13 32  1  0  0  0  0
 14 13  1  0  0  0  0
 14 33  1  0  0  0  0
 15 14  2  0  0  0  0
 16 15  1  0  0  0  0
 17 16  2  0  0  0  0
 17 34  1  0  0  0  0
 18 17  1  0  0  0  0
 19 18  1  0  0  0  0
 20 18  2  0  0  0  0
 20 35  1  0  0  0  0
 21 20  1  0  0  0  0
 21 36  1  0  0  0  0
 22 21  2  0  0  0  0
 22 12  1  0  0  0  0
 22 16  1  0  0  0  0
M  END
>  <MOL Chiral Flag>
0

>  <energy>
89.127833830091959

$$$$
> 205_AKC_j.ejmech.2019.111742
>200.sdf
 OpenBabel10052220303D

 26 27  0  0  0  0  0  0  0  0999 V2000
   -5.4516    2.7624   -1.8372 O   0  5  0  0  0  0  0  0  0  0  0  0
   -4.3671    2.3691   -2.2897 N   0  3  0  0  0  0  0  0  0  0  0  0
   -3.9086    2.6579   -3.4021 O   0  0  0  0  0  0  0  0  0  0  0  0
   -3.6020    1.4981   -1.4372 C   0  0  0  0  0  0  0  0  0  0  0  0
   -4.0291    0.9248   -0.2590 C   0  0  0  0  0  0  0  0  0  0  0  0
   -2.9953    0.1477    0.3434 C   0  0  0  0  0  0  0  0  0  0  0  0
   -1.8177    0.1889   -0.3808 C   0  0  0  0  0  0  0  0  0  0  0  0
   -1.9949    1.1029   -1.8178 S   0  0  0  0  0  0  0  0  0  0  0  0
   -0.5485   -0.3803    0.0132 C   0  0  0  0  0  0  0  0  0  0  0  0
    0.5552   -0.1167   -0.6135 N   0  0  0  0  0  0  0  0  0  0  0  0
    1.7398   -0.4669   -0.0062 N   0  0  0  0  0  0  0  0  0  0  0  0
    1.9642   -0.4247    1.3744 C   0  0  0  0  0  0  0  0  0  0  0  0
    1.0871   -0.3639    2.2315 O   0  0  0  0  0  0  0  0  0  0  0  0
    3.4232   -0.3723    1.7451 C   0  0  0  0  0  0  0  0  0  0  0  0
    4.3163   -0.5051    0.7355 N   0  0  0  0  0  0  0  0  0  0  0  0
    5.6054   -0.3265    1.0832 C   0  0  0  0  0  0  0  0  0  0  0  0
    6.0164   -0.0100    2.3595 C   0  0  0  0  0  0  0  0  0  0  0  0
    5.0217    0.1009    3.3031 C   0  0  0  0  0  0  0  0  0  0  0  0
    3.7203   -0.0802    3.0280 N   0  0  0  0  0  0  0  0  0  0  0  0
   -5.0178    1.0661    0.1632 H   0  0  0  0  0  0  0  0  0  0  0  0
   -3.0939   -0.3695    1.2919 H   0  0  0  0  0  0  0  0  0  0  0  0
   -0.5828   -1.0284    0.9050 H   0  0  0  0  0  0  0  0  0  0  0  0
    2.5641   -0.4325   -0.6066 H   0  0  0  0  0  0  0  0  0  0  0  0
    6.3264   -0.4377    0.2775 H   0  0  0  0  0  0  0  0  0  0  0  0
    7.0575    0.1470    2.6071 H   0  0  0  0  0  0  0  0  0  0  0  0
    5.2458    0.3562    4.3352 H   0  0  0  0  0  0  0  0  0  0  0  0
  2  1  1  0  0  0  0
  3  2  2  0  0  0  0
  4  2  1  0  0  0  0
  5  4  2  0  0  0  0
  5 20  1  0  0  0  0
  6  5  1  0  0  0  0
  6 21  1  0  0  0  0
  7  6  2  0  0  0  0
  8  7  1  0  0  0  0
  8  4  1  0  0  0  0
  9  7  1  0  0  0  0
  9 22  1  0  0  0  0
 10  9  2  0  0  0  0
 11 10  1  0  0  0  0
 11 23  1  0  0  0  0
 12 11  1  0  0  0  0
 13 12  2  0  0  0  0
 14 12  1  0  0  0  0
 15 14  2  0  0  0  0
 16 15  1  0  0  0  0
 16 24  1  0  0  0  0
 17 16  2  0  0  0  0
 17 25  1  0  0  0  0
 18 17  1  0  0  0  0
 18 26  1  0  0  0  0
 19 18  2  0  0  0  0
 19 14  1  0  0  0  0
M  CHG  2   1  -1   2   1
M  END
>  <MOL Chiral Flag>
0

>  <energy>
150.4030812896022

$$$$
> 206_AKC_jphp.1316
>201.sdf
 OpenBabel10052220303D

 45 44  0  0  0  0  0  0  0  0999 V2000
   -1.6755    3.9959    1.5394 C   0  0  0  0  0  0  0  0  0  0  0  0
   -1.7055    4.2396    0.0308 C   0  0  0  0  0  0  0  0  0  0  0  0
   -1.1115    3.0606   -0.7451 C   0  0  0  0  0  0  0  0  0  0  0  0
   -2.0232    1.8190   -0.8058 C   0  0  0  0  0  0  0  0  0  0  0  0
   -1.2887    0.6385   -1.4733 C   0  0  0  0  0  0  0  0  0  0  0  0
   -0.7782   -0.4074   -0.4533 C   0  0  0  0  0  0  0  0  0  0  0  0
    0.1864   -1.4225   -1.1253 C   0  0  2  0  0  0  0  0  0  0  0  0
    0.0880   -2.8388   -0.5038 C   0  0  0  0  0  0  0  0  0  0  0  0
   -1.5161   -3.6133   -0.9508 S   0  0  0  0  0  0  0  0  0  0  0  0
   -2.1527   -4.1474    1.0153 S   0  0  0  0  0  0  0  0  0  0  0  0
   -3.3171   -5.4072    1.0858 O   0  5  0  0  0  0  0  0  0  0  0  0
   -1.0144   -4.6400    1.9212 O   0  0  0  0  0  0  0  0  0  0  0  0
   -2.7606   -2.9847    1.8128 O   0  0  0  0  0  0  0  0  0  0  0  0
    1.5754   -0.8794   -1.1846 N   0  3  0  0  0  0  0  0  0  0  0  0
    2.4293   -1.0640    0.0371 C   0  0  1  0  0  0  0  0  0  0  0  0
    3.5061   -2.1381   -0.2227 C   0  0  0  0  0  0  0  0  0  0  0  0
    3.1535    0.2349    0.4748 C   0  0  0  0  0  0  0  0  0  0  0  0
    2.2063    1.2750    1.0594 C   0  0  0  0  0  0  0  0  0  0  0  0
   -2.0625    4.8909    2.0686 H   0  0  0  0  0  0  0  0  0  0  0  0
   -0.6270    3.8238    1.8701 H   0  0  0  0  0  0  0  0  0  0  0  0
   -2.2910    3.1193    1.8223 H   0  0  0  0  0  0  0  0  0  0  0  0
   -1.0750    5.1343   -0.1660 H   0  0  0  0  0  0  0  0  0  0  0  0
   -2.7371    4.4584   -0.3200 H   0  0  0  0  0  0  0  0  0  0  0  0
   -0.1294    2.8274   -0.3073 H   0  0  0  0  0  0  0  0  0  0  0  0
   -0.9378    3.3847   -1.7964 H   0  0  0  0  0  0  0  0  0  0  0  0
   -2.8908    2.1155   -1.4352 H   0  0  0  0  0  0  0  0  0  0  0  0
   -2.4246    1.5039    0.1805 H   0  0  0  0  0  0  0  0  0  0  0  0
   -0.4912    1.0246   -2.1444 H   0  0  0  0  0  0  0  0  0  0  0  0
   -2.0028    0.0890   -2.1266 H   0  0  0  0  0  0  0  0  0  0  0  0
   -1.6935   -0.9129   -0.0744 H   0  0  0  0  0  0  0  0  0  0  0  0
   -0.2774    0.0414    0.4272 H   0  0  0  0  0  0  0  0  0  0  0  0
   -0.1607   -1.5681   -2.1758 H   0  0  0  0  0  0  0  0  0  0  0  0
    0.2311   -2.8080    0.5938 H   0  0  0  0  0  0  0  0  0  0  0  0
    0.8622   -3.5019   -0.9375 H   0  0  0  0  0  0  0  0  0  0  0  0
    1.5306    0.1284   -1.4566 H   0  0  0  0  0  0  0  0  0  0  0  0
    2.0487   -1.3286   -2.0035 H   0  0  0  0  0  0  0  0  0  0  0  0
    1.8302   -1.3904    0.9107 H   0  0  0  0  0  0  0  0  0  0  0  0
    4.1742   -1.8204   -1.0535 H   0  0  0  0  0  0  0  0  0  0  0  0
    3.0484   -3.1087   -0.4929 H   0  0  0  0  0  0  0  0  0  0  0  0
    4.1281   -2.2968    0.6840 H   0  0  0  0  0  0  0  0  0  0  0  0
    3.7222    0.6669   -0.3772 H   0  0  0  0  0  0  0  0  0  0  0  0
    3.8752   -0.0055    1.2870 H   0  0  0  0  0  0  0  0  0  0  0  0
    1.4815    1.5903    0.2991 H   0  0  0  0  0  0  0  0  0  0  0  0
    2.7793    2.1663    1.3905 H   0  0  0  0  0  0  0  0  0  0  0  0
    1.6675    0.8573    1.9380 H   0  0  0  0  0  0  0  0  0  0  0  0
  1 19  1  0  0  0  0
  1 20  1  0  0  0  0
  1 21  1  0  0  0  0
  2  1  1  0  0  0  0
  2 22  1  0  0  0  0
  2 23  1  0  0  0  0
  3  2  1  0  0  0  0
  3 24  1  0  0  0  0
  3 25  1  0  0  0  0
  4  3  1  0  0  0  0
  4 26  1  0  0  0  0
  4 27  1  0  0  0  0
  5  4  1  0  0  0  0
  5 28  1  0  0  0  0
  5 29  1  0  0  0  0
  6  5  1  0  0  0  0
  6 30  1  0  0  0  0
  6 31  1  0  0  0  0
  7  6  1  0  0  0  0
  7 32  1  6  0  0  0
  8  7  1  0  0  0  0
  8 33  1  0  0  0  0
  8 34  1  0  0  0  0
  9  8  1  0  0  0  0
 10  9  1  0  0  0  0
 11 10  1  0  0  0  0
 12 10  2  0  0  0  0
 13 10  2  0  0  0  0
 14  7  1  0  0  0  0
 14 35  1  0  0  0  0
 14 36  1  0  0  0  0
 15 14  1  0  0  0  0
 15 37  1  1  0  0  0
 16 15  1  0  0  0  0
 16 38  1  0  0  0  0
 16 39  1  0  0  0  0
 16 40  1  0  0  0  0
 17 15  1  0  0  0  0
 17 41  1  0  0  0  0
 17 42  1  0  0  0  0
 18 17  1  0  0  0  0
 18 43  1  0  0  0  0
 18 44  1  0  0  0  0
 18 45  1  0  0  0  0
M  CHG  2  11  -1  14   1
M  END
>  <MOL Chiral Flag>
0

>  <energy>
-67.838139336008169

$$$$
> 207_AKC_j.ejmech.2019.111688
>202.sdf
 OpenBabel10052220313D

 45 47  0  0  0  0  0  0  0  0999 V2000
    0.6199   -0.3221   -3.7689 C   0  0  0  0  0  0  0  0  0  0  0  0
    1.5587    0.3456   -3.0079 O   0  0  0  0  0  0  0  0  0  0  0  0
    1.6916    0.2554   -1.6545 C   0  0  0  0  0  0  0  0  0  0  0  0
    0.8701   -0.5908   -0.8854 C   0  0  0  0  0  0  0  0  0  0  0  0
    1.0169   -0.6591    0.5112 C   0  0  0  0  0  0  0  0  0  0  0  0
    0.1515   -1.5091    1.3800 C   0  0  0  0  0  0  0  0  0  0  0  0
   -0.9580   -2.1415    0.9519 C   0  0  0  0  0  0  0  0  0  0  0  0
   -1.8292   -2.9014    1.8715 C   0  0  0  0  0  0  0  0  0  0  0  0
   -1.5257   -3.0240    3.0490 O   0  0  0  0  0  0  0  0  0  0  0  0
   -3.0238   -3.3460    1.3961 O   0  0  0  0  0  0  0  0  0  0  0  0
   -4.0027   -4.0461    2.0311 C   0  0  0  0  0  0  0  0  0  0  0  0
   -3.7937   -4.7644    3.2384 C   0  0  0  0  0  0  0  0  0  0  0  0
   -4.8775   -5.4407    3.7951 C   0  0  0  0  0  0  0  0  0  0  0  0
   -6.1117   -5.4353    3.2248 C   0  0  0  0  0  0  0  0  0  0  0  0
   -7.0679   -6.2507    4.0570 C   0  0  0  0  0  0  0  0  0  0  0  0
   -6.2574   -6.6918    5.1075 O   0  0  0  0  0  0  0  0  0  0  0  0
   -4.9942   -6.2368    4.9741 C   0  0  0  0  0  0  0  0  0  0  0  0
   -4.0957   -6.4836    5.7620 O   0  0  0  0  0  0  0  0  0  0  0  0
   -6.3524   -4.7479    2.0395 C   0  0  0  0  0  0  0  0  0  0  0  0
   -5.2883   -4.0538    1.4406 C   0  0  0  0  0  0  0  0  0  0  0  0
    1.9935    0.1277    1.1295 C   0  0  0  0  0  0  0  0  0  0  0  0
    2.8187    0.9924    0.3838 C   0  0  0  0  0  0  0  0  0  0  0  0
    3.7332    1.7877    1.0034 O   0  0  0  0  0  0  0  0  0  0  0  0
    3.8647    1.9485    2.3689 C   0  0  0  0  0  0  0  0  0  0  0  0
    2.6699    1.0481   -1.0299 C   0  0  0  0  0  0  0  0  0  0  0  0
    3.4252    1.8519   -1.8327 O   0  0  0  0  0  0  0  0  0  0  0  0
    4.4616    2.6820   -1.4596 C   0  0  0  0  0  0  0  0  0  0  0  0
    0.7448   -0.0330   -4.8325 H   0  0  0  0  0  0  0  0  0  0  0  0
   -0.4061   -0.0397   -3.4483 H   0  0  0  0  0  0  0  0  0  0  0  0
    0.7614   -1.4203   -3.6828 H   0  0  0  0  0  0  0  0  0  0  0  0
    0.1264   -1.1891   -1.3821 H   0  0  0  0  0  0  0  0  0  0  0  0
    0.4107   -1.5742    2.4340 H   0  0  0  0  0  0  0  0  0  0  0  0
   -1.2808   -2.0704   -0.0769 H   0  0  0  0  0  0  0  0  0  0  0  0
   -2.8363   -4.8155    3.7313 H   0  0  0  0  0  0  0  0  0  0  0  0
   -7.4617   -7.1126    3.4783 H   0  0  0  0  0  0  0  0  0  0  0  0
   -7.8983   -5.6211    4.4404 H   0  0  0  0  0  0  0  0  0  0  0  0
   -7.3361   -4.7474    1.5886 H   0  0  0  0  0  0  0  0  0  0  0  0
   -5.4590   -3.5115    0.5190 H   0  0  0  0  0  0  0  0  0  0  0  0
    2.0919    0.0773    2.2057 H   0  0  0  0  0  0  0  0  0  0  0  0
    2.9154    2.3373    2.7984 H   0  0  0  0  0  0  0  0  0  0  0  0
    4.1401    0.9878    2.8522 H   0  0  0  0  0  0  0  0  0  0  0  0
    4.6656    2.6882    2.5709 H   0  0  0  0  0  0  0  0  0  0  0  0
    4.8575    3.1872   -2.3641 H   0  0  0  0  0  0  0  0  0  0  0  0
    4.1022    3.4673   -0.7620 H   0  0  0  0  0  0  0  0  0  0  0  0
    5.2843    2.0889   -1.0064 H   0  0  0  0  0  0  0  0  0  0  0  0
  1 28  1  0  0  0  0
  1 29  1  0  0  0  0
  1 30  1  0  0  0  0
  2  1  1  0  0  0  0
  3  2  1  0  0  0  0
  4  3  2  0  0  0  0
  4 31  1  0  0  0  0
  5  4  1  0  0  0  0
  6  5  1  0  0  0  0
  6 32  1  0  0  0  0
  7  6  2  0  0  0  0
  7 33  1  0  0  0  0
  8  7  1  0  0  0  0
  9  8  2  0  0  0  0
 10  8  1  0  0  0  0
 11 10  1  0  0  0  0
 12 11  2  0  0  0  0
 12 34  1  0  0  0  0
 13 12  1  0  0  0  0
 14 13  2  0  0  0  0
 15 14  1  0  0  0  0
 15 35  1  0  0  0  0
 15 36  1  0  0  0  0
 16 15  1  0  0  0  0
 17 16  1  0  0  0  0
 17 13  1  0  0  0  0
 18 17  2  0  0  0  0
 19 14  1  0  0  0  0
 19 37  1  0  0  0  0
 20 19  2  0  0  0  0
 20 11  1  0  0  0  0
 20 38  1  0  0  0  0
 21  5  2  0  0  0  0
 21 39  1  0  0  0  0
 22 21  1  0  0  0  0
 23 22  1  0  0  0  0
 24 23  1  0  0  0  0
 24 40  1  0  0  0  0
 24 41  1  0  0  0  0
 24 42  1  0  0  0  0
 25 22  2  0  0  0  0
 25  3  1  0  0  0  0
 26 25  1  0  0  0  0
 27 26  1  0  0  0  0
 27 43  1  0  0  0  0
 27 44  1  0  0  0  0
 27 45  1  0  0  0  0
M  END
>  <MOL Chiral Flag>
0

>  <energy>
106.23981094192975

$$$$
> 208_AKC_biom9110643
>203.sdf
 OpenBabel10052220313D

 35 36  0  0  0  0  0  0  0  0999 V2000
    2.7921   -4.0350    0.3670 N   0  0  0  0  0  0  0  0  0  0  0  0
    2.5311   -2.7029   -0.0528 C   0  0  0  0  0  0  0  0  0  0  0  0
    2.1304   -2.4519   -1.4161 S   0  0  0  0  0  0  0  0  0  0  0  0
    2.7277   -1.6288    0.8723 N   0  0  0  0  0  0  0  0  0  0  0  0
    2.6451   -0.3019    0.4979 N   0  0  0  0  0  0  0  0  0  0  0  0
    1.5289    0.3182    0.2682 C   0  0  0  0  0  0  0  0  0  0  0  0
    0.2108   -0.3982    0.4439 C   0  0  0  0  0  0  0  0  0  0  0  0
   -0.9616    0.0734   -0.0374 C   0  0  0  0  0  0  0  0  0  0  0  0
   -2.2789   -0.6132    0.0909 C   0  0  0  0  0  0  0  0  0  0  0  0
   -3.4295    0.0868   -0.3189 C   0  0  0  0  0  0  0  0  0  0  0  0
   -4.6931   -0.5003   -0.2234 C   0  0  0  0  0  0  0  0  0  0  0  0
   -4.8257   -1.7971    0.2726 C   0  0  0  0  0  0  0  0  0  0  0  0
   -3.6944   -2.5085    0.6779 C   0  0  0  0  0  0  0  0  0  0  0  0
   -2.4249   -1.9244    0.5941 C   0  0  0  0  0  0  0  0  0  0  0  0
    1.6276    1.7600   -0.1355 C   0  0  0  0  0  0  0  0  0  0  0  0
    0.6562    2.7138    0.2387 C   0  0  0  0  0  0  0  0  0  0  0  0
    0.7878    4.0506   -0.1473 C   0  0  0  0  0  0  0  0  0  0  0  0
    1.8869    4.4578   -0.9038 C   0  0  0  0  0  0  0  0  0  0  0  0
    2.8669    3.5321   -1.2638 C   0  0  0  0  0  0  0  0  0  0  0  0
    2.7465    2.1947   -0.8750 C   0  0  0  0  0  0  0  0  0  0  0  0
    2.6906   -4.8296   -0.2828 H   0  0  0  0  0  0  0  0  0  0  0  0
    3.1012   -4.2210    1.3322 H   0  0  0  0  0  0  0  0  0  0  0  0
    3.1563   -1.8501    1.7826 H   0  0  0  0  0  0  0  0  0  0  0  0
    0.2268   -1.3543    0.9467 H   0  0  0  0  0  0  0  0  0  0  0  0
   -0.9746    1.0088   -0.5762 H   0  0  0  0  0  0  0  0  0  0  0  0
   -3.3476    1.0956   -0.7064 H   0  0  0  0  0  0  0  0  0  0  0  0
   -5.5702    0.0522   -0.5357 H   0  0  0  0  0  0  0  0  0  0  0  0
   -5.8058   -2.2512    0.3417 H   0  0  0  0  0  0  0  0  0  0  0  0
   -3.8010   -3.5164    1.0572 H   0  0  0  0  0  0  0  0  0  0  0  0
   -1.5750   -2.5079    0.9112 H   0  0  0  0  0  0  0  0  0  0  0  0
   -0.1912    2.4392    0.8510 H   0  0  0  0  0  0  0  0  0  0  0  0
    0.0373    4.7731    0.1466 H   0  0  0  0  0  0  0  0  0  0  0  0
    1.9838    5.4932   -1.2033 H   0  0  0  0  0  0  0  0  0  0  0  0
    3.7222    3.8503   -1.8455 H   0  0  0  0  0  0  0  0  0  0  0  0
    3.5173    1.4929   -1.1690 H   0  0  0  0  0  0  0  0  0  0  0  0
  1 21  1  0  0  0  0
  1 22  1  0  0  0  0
  2  1  1  0  0  0  0
  3  2  2  0  0  0  0
  4  2  1  0  0  0  0
  4 23  1  0  0  0  0
  5  4  1  0  0  0  0
  6  5  2  0  0  0  0
  7  6  1  0  0  0  0
  7 24  1  0  0  0  0
  8  7  2  0  0  0  0
  8 25  1  0  0  0  0
  9  8  1  0  0  0  0
 10  9  2  0  0  0  0
 10 26  1  0  0  0  0
 11 10  1  0  0  0  0
 11 27  1  0  0  0  0
 12 11  2  0  0  0  0
 12 28  1  0  0  0  0
 13 12  1  0  0  0  0
 13 29  1  0  0  0  0
 14 13  2  0  0  0  0
 14  9  1  0  0  0  0
 14 30  1  0  0  0  0
 15  6  1  0  0  0  0
 16 15  2  0  0  0  0
 16 31  1  0  0  0  0
 17 16  1  0  0  0  0
 17 32  1  0  0  0  0
 18 17  2  0  0  0  0
 18 33  1  0  0  0  0
 19 18  1  0  0  0  0
 19 34  1  0  0  0  0
 20 19  2  0  0  0  0
 20 15  1  0  0  0  0
 20 35  1  0  0  0  0
M  END
>  <MOL Chiral Flag>
0

>  <energy>
53.31460254352271

$$$$
> 209_AKC_j.bjp.2019.08.002
>204.sdf
 OpenBabel10052220313D

 29 31  0  0  0  0  0  0  0  0999 V2000
   -3.4158    4.0242    4.5925 O   0  0  0  0  0  0  0  0  0  0  0  0
   -2.6241    2.9876    4.2573 C   0  0  0  0  0  0  0  0  0  0  0  0
   -2.0638    2.3516    5.1365 O   0  0  0  0  0  0  0  0  0  0  0  0
   -2.3693    2.6964    2.8012 C   0  0  0  0  0  0  0  0  0  0  0  0
   -1.4558    1.4709    2.5500 C   0  0  0  0  0  0  0  0  0  0  0  0
   -0.6959    1.5447    1.2453 C   0  0  0  0  0  0  0  0  0  0  0  0
    0.0656    0.4683    0.7755 C   0  0  0  0  0  0  0  0  0  0  0  0
    0.1586   -0.7885    1.2751 N   0  0  0  0  0  0  0  0  0  0  0  0
    1.0239   -1.4375    0.4628 C   0  0  0  0  0  0  0  0  0  0  0  0
    1.4844   -0.6019   -0.5307 C   0  0  0  0  0  0  0  0  0  0  0  0
    2.4026   -1.0299   -1.4857 C   0  0  0  0  0  0  0  0  0  0  0  0
    2.8495   -2.3626   -1.4181 C   0  0  0  0  0  0  0  0  0  0  0  0
    2.3671   -3.2286   -0.4079 C   0  0  0  0  0  0  0  0  0  0  0  0
    1.4425   -2.7645    0.5492 C   0  0  0  0  0  0  0  0  0  0  0  0
    0.8643    0.6088   -0.3359 C   0  0  0  0  0  0  0  0  0  0  0  0
    0.9431    1.8087   -1.0312 C   0  0  0  0  0  0  0  0  0  0  0  0
    0.1583    2.8748   -0.5649 C   0  0  0  0  0  0  0  0  0  0  0  0
   -0.6296    2.7218    0.5449 N   0  0  0  0  0  0  0  0  0  0  0  0
   -1.9167    3.6277    2.4082 H   0  0  0  0  0  0  0  0  0  0  0  0
   -3.3330    2.5269    2.2691 H   0  0  0  0  0  0  0  0  0  0  0  0
   -2.0733    0.5485    2.6288 H   0  0  0  0  0  0  0  0  0  0  0  0
   -0.6569    1.4156    3.3194 H   0  0  0  0  0  0  0  0  0  0  0  0
   -0.3381   -1.1819    2.1047 H   0  0  0  0  0  0  0  0  0  0  0  0
    2.7644   -0.3605   -2.2554 H   0  0  0  0  0  0  0  0  0  0  0  0
    3.5643   -2.7267   -2.1447 H   0  0  0  0  0  0  0  0  0  0  0  0
    2.7133   -4.2533   -0.3697 H   0  0  0  0  0  0  0  0  0  0  0  0
    1.0697   -3.4197    1.3254 H   0  0  0  0  0  0  0  0  0  0  0  0
    1.5807    1.9200   -1.8978 H   0  0  0  0  0  0  0  0  0  0  0  0
    0.1882    3.8293   -1.0725 H   0  0  0  0  0  0  0  0  0  0  0  0
  2  1  1  0  0  0  0
  3  2  2  0  0  0  0
  4  2  1  0  0  0  0
  4 19  1  0  0  0  0
  4 20  1  0  0  0  0
  5  4  1  0  0  0  0
  5 21  1  0  0  0  0
  5 22  1  0  0  0  0
  6  5  1  0  0  0  0
  7  6  2  0  0  0  0
  8  7  1  0  0  0  0
  8 23  1  0  0  0  0
  9  8  1  0  0  0  0
 10  9  2  0  0  0  0
 11 10  1  0  0  0  0
 11 24  1  0  0  0  0
 12 11  2  0  0  0  0
 12 25  1  0  0  0  0
 13 12  1  0  0  0  0
 13 26  1  0  0  0  0
 14 13  2  0  0  0  0
 14  9  1  0  0  0  0
 14 27  1  0  0  0  0
 15 10  1  0  0  0  0
 15  7  1  0  0  0  0
 16 15  2  0  0  0  0
 16 28  1  0  0  0  0
 17 16  1  0  0  0  0
 17 29  1  0  0  0  0
 18 17  2  0  0  0  0
 18  6  1  0  0  0  0
M  END
>  <MOL Chiral Flag>
0

>  <energy>
-15.364214424923432

$$$$
> 210_AKC_j.bioorg.2019.103274
>205.sdf
 OpenBabel10052220313D

 27 28  0  0  0  0  0  0  0  0999 V2000
   -3.7247    1.0467    0.6061 C   0  0  0  0  0  0  0  0  0  0  0  0
   -2.7690    0.0747    0.8203 O   0  0  0  0  0  0  0  0  0  0  0  0
   -1.5024    0.2461    0.3865 C   0  0  0  0  0  0  0  0  0  0  0  0
   -0.9926    1.4336   -0.0085 N   0  0  0  0  0  0  0  0  0  0  0  0
    0.2462    1.2258   -0.4325 N   0  0  0  0  0  0  0  0  0  0  0  0
    1.0933    2.3037   -0.9293 C   0  0  0  0  0  0  0  0  0  0  0  0
    1.8025    2.9736    0.2418 C   0  0  0  0  0  0  0  0  0  0  0  0
    2.8446    4.4834   -0.3764 Br  0  0  0  0  0  0  0  0  0  0  0  0
    0.5312   -0.0904   -0.3184 C   0  0  0  0  0  0  0  0  0  0  0  0
   -0.5498   -0.7344    0.2149 C   0  0  0  0  0  0  0  0  0  0  0  0
   -0.5538   -2.1060    0.4524 C   0  0  0  0  0  0  0  0  0  0  0  0
    0.6061   -2.8486    0.1067 C   0  0  0  0  0  0  0  0  0  0  0  0
    1.7250   -2.1679   -0.4589 C   0  0  0  0  0  0  0  0  0  0  0  0
    1.6930   -0.7751   -0.6670 C   0  0  0  0  0  0  0  0  0  0  0  0
    0.6466   -4.2628    0.3126 N   0  0  0  0  0  0  0  0  0  0  0  0
    1.6001   -4.8954   -0.0338 O   0  0  0  0  0  0  0  0  0  0  0  0
   -0.2753   -4.8266    0.8187 O   0  0  0  0  0  0  0  0  0  0  0  0
   -3.4136    2.0142    1.0571 H   0  0  0  0  0  0  0  0  0  0  0  0
   -4.6909    0.7303    1.0447 H   0  0  0  0  0  0  0  0  0  0  0  0
   -3.8616    1.1875   -0.4898 H   0  0  0  0  0  0  0  0  0  0  0  0
    0.4503    3.0498   -1.4467 H   0  0  0  0  0  0  0  0  0  0  0  0
    1.8295    1.9219   -1.6662 H   0  0  0  0  0  0  0  0  0  0  0  0
    2.4754    2.2432    0.7394 H   0  0  0  0  0  0  0  0  0  0  0  0
    1.0576    3.3375    0.9820 H   0  0  0  0  0  0  0  0  0  0  0  0
   -1.4263   -2.5846    0.8789 H   0  0  0  0  0  0  0  0  0  0  0  0
    2.6158   -2.7168   -0.7371 H   0  0  0  0  0  0  0  0  0  0  0  0
    2.5428   -0.2632   -1.0975 H   0  0  0  0  0  0  0  0  0  0  0  0
  1 18  1  0  0  0  0
  1 19  1  0  0  0  0
  1 20  1  0  0  0  0
  2  1  1  0  0  0  0
  3  2  1  0  0  0  0
  4  3  2  0  0  0  0
  5  4  1  0  0  0  0
  6  5  1  0  0  0  0
  6 21  1  0  0  0  0
  6 22  1  0  0  0  0
  7  6  1  0  0  0  0
  7 23  1  0  0  0  0
  7 24  1  0  0  0  0
  8  7  1  0  0  0  0
  9  5  1  0  0  0  0
 10  9  2  0  0  0  0
 10  3  1  0  0  0  0
 11 10  1  0  0  0  0
 11 25  1  0  0  0  0
 12 11  2  0  0  0  0
 13 12  1  0  0  0  0
 13 26  1  0  0  0  0
 14 13  2  0  0  0  0
 14  9  1  0  0  0  0
 14 27  1  0  0  0  0
 15 12  1  0  0  0  0
 16 15  2  0  0  0  0
 17 15  2  0  0  0  0
M  END
>  <MOL Chiral Flag>
0

>  <energy>
43.306329018231992

$$$$
> 211_AKC_j.ejmech.2019.07.010
>206.sdf
 OpenBabel10052220323D

 57 61  0  0  0  0  0  0  0  0999 V2000
    1.8155   -4.1908   -1.0469 F   0  0  0  0  0  0  0  0  0  0  0  0
    2.7320   -3.3394   -0.5238 C   0  0  0  0  0  0  0  0  0  0  0  0
    4.0280   -3.8043   -0.2343 C   0  0  0  0  0  0  0  0  0  0  0  0
    4.9898   -2.9295    0.2827 C   0  0  0  0  0  0  0  0  0  0  0  0
    4.6221   -1.6085    0.5098 C   0  0  0  0  0  0  0  0  0  0  0  0
    5.5488   -0.3697    1.0704 S   0  0  0  0  0  0  0  0  0  0  0  0
    4.4203    0.8470    1.0313 C   0  0  0  0  0  0  0  0  0  0  0  0
    3.2016    0.2921    0.5736 C   0  0  0  0  0  0  0  0  0  0  0  0
    3.3370   -1.1168    0.2579 C   0  0  0  0  0  0  0  0  0  0  0  0
    2.3811   -1.9970   -0.2860 C   0  0  0  0  0  0  0  0  0  0  0  0
    1.9631    1.1368    0.4629 C   0  0  0  0  0  0  0  0  0  0  0  0
    2.0808    2.5235    0.2393 C   0  0  0  0  0  0  0  0  0  0  0  0
    0.9461    3.3324    0.1316 C   0  0  0  0  0  0  0  0  0  0  0  0
   -0.3420    2.7834    0.2493 C   0  0  0  0  0  0  0  0  0  0  0  0
   -1.5630    3.6871    0.1073 C   0  0  0  0  0  0  0  0  0  0  0  0
   -2.2729    3.4911   -1.1752 N   0  3  0  0  0  0  0  0  0  0  0  0
   -3.3379    2.4692   -1.1480 C   0  0  0  0  0  0  0  0  0  0  0  0
   -3.7665    2.1273   -2.5852 C   0  0  0  0  0  0  0  0  0  0  0  0
   -4.8338    1.0258   -2.6805 C   0  0  0  0  0  0  0  0  0  0  0  0
   -6.1840    1.5009   -2.4127 N   0  0  0  0  0  0  0  0  0  0  0  0
   -7.3266    0.6539   -2.6470 C   0  0  0  0  0  0  0  0  0  0  0  0
   -8.6453    1.1828   -2.8113 C   0  0  0  0  0  0  0  0  0  0  0  0
   -8.9407    2.5646   -2.7493 C   0  0  0  0  0  0  0  0  0  0  0  0
  -10.2479    3.0212   -2.9569 C   0  0  0  0  0  0  0  0  0  0  0  0
  -11.2784    2.1200   -3.2278 C   0  0  0  0  0  0  0  0  0  0  0  0
  -12.9099    2.7053   -3.5022 Cl  0  0  0  0  0  0  0  0  0  0  0  0
  -11.0107    0.7541   -3.2890 C   0  0  0  0  0  0  0  0  0  0  0  0
   -9.7106    0.2785   -3.0849 C   0  0  0  0  0  0  0  0  0  0  0  0
   -9.4778   -1.0545   -3.1697 N   0  0  0  0  0  0  0  0  0  0  0  0
   -8.2385   -1.5752   -3.0119 C   0  0  0  0  0  0  0  0  0  0  0  0
   -7.1529   -0.7426   -2.7601 C   0  0  0  0  0  0  0  0  0  0  0  0
   -0.4655    1.4095    0.5073 C   0  0  0  0  0  0  0  0  0  0  0  0
    0.6702    0.5977    0.6150 C   0  0  0  0  0  0  0  0  0  0  0  0
    4.2871   -4.8379   -0.4248 H   0  0  0  0  0  0  0  0  0  0  0  0
    5.9949   -3.2725    0.4923 H   0  0  0  0  0  0  0  0  0  0  0  0
    4.5992    1.8669    1.3413 H   0  0  0  0  0  0  0  0  0  0  0  0
    1.3910   -1.6793   -0.5545 H   0  0  0  0  0  0  0  0  0  0  0  0
    3.0519    2.9856    0.1241 H   0  0  0  0  0  0  0  0  0  0  0  0
    1.0759    4.3907   -0.0586 H   0  0  0  0  0  0  0  0  0  0  0  0
   -1.1917    4.7374    0.1066 H   0  0  0  0  0  0  0  0  0  0  0  0
   -2.2430    3.6100    0.9837 H   0  0  0  0  0  0  0  0  0  0  0  0
   -1.5647    3.2835   -1.9190 H   0  0  0  0  0  0  0  0  0  0  0  0
   -2.7356    4.3941   -1.4362 H   0  0  0  0  0  0  0  0  0  0  0  0
   -4.2025    2.8353   -0.5505 H   0  0  0  0  0  0  0  0  0  0  0  0
   -2.9749    1.5317   -0.6947 H   0  0  0  0  0  0  0  0  0  0  0  0
   -2.8577    1.7360   -3.0931 H   0  0  0  0  0  0  0  0  0  0  0  0
   -4.1024    3.0312   -3.1390 H   0  0  0  0  0  0  0  0  0  0  0  0
   -4.5567    0.1800   -2.0159 H   0  0  0  0  0  0  0  0  0  0  0  0
   -4.8242    0.6708   -3.7342 H   0  0  0  0  0  0  0  0  0  0  0  0
   -6.3068    2.4935   -2.1814 H   0  0  0  0  0  0  0  0  0  0  0  0
   -8.1854    3.3066   -2.5553 H   0  0  0  0  0  0  0  0  0  0  0  0
  -10.4587    4.0821   -2.9138 H   0  0  0  0  0  0  0  0  0  0  0  0
  -11.8127    0.0577   -3.5058 H   0  0  0  0  0  0  0  0  0  0  0  0
   -8.0924   -2.6441   -3.0904 H   0  0  0  0  0  0  0  0  0  0  0  0
   -6.1819   -1.2012   -2.6489 H   0  0  0  0  0  0  0  0  0  0  0  0
   -1.4332    0.9581    0.6494 H   0  0  0  0  0  0  0  0  0  0  0  0
    0.5214   -0.4395    0.8561 H   0  0  0  0  0  0  0  0  0  0  0  0
  2  1  1  0  0  0  0
  3  2  2  0  0  0  0
  3 34  1  0  0  0  0
  4  3  1  0  0  0  0
  4 35  1  0  0  0  0
  5  4  2  0  0  0  0
  6  5  1  0  0  0  0
  7  6  1  0  0  0  0
  7 36  1  0  0  0  0
  8  7  2  0  0  0  0
  9  8  1  0  0  0  0
  9  5  1  0  0  0  0
 10  9  2  0  0  0  0
 10  2  1  0  0  0  0
 10 37  1  0  0  0  0
 11  8  1  0  0  0  0
 12 11  2  0  0  0  0
 12 38  1  0  0  0  0
 13 12  1  0  0  0  0
 13 39  1  0  0  0  0
 14 13  2  0  0  0  0
 15 14  1  0  0  0  0
 15 40  1  0  0  0  0
 15 41  1  0  0  0  0
 16 15  1  0  0  0  0
 16 42  1  0  0  0  0
 16 43  1  0  0  0  0
 17 16  1  0  0  0  0
 17 44  1  0  0  0  0
 17 45  1  0  0  0  0
 18 17  1  0  0  0  0
 18 46  1  0  0  0  0
 18 47  1  0  0  0  0
 19 18  1  0  0  0  0
 19 48  1  0  0  0  0
 19 49  1  0  0  0  0
 20 19  1  0  0  0  0
 20 50  1  0  0  0  0
 21 20  1  0  0  0  0
 22 21  2  0  0  0  0
 23 22  1  0  0  0  0
 23 51  1  0  0  0  0
 24 23  2  0  0  0  0
 24 52  1  0  0  0  0
 25 24  1  0  0  0  0
 26 25  1  0  0  0  0
 27 25  2  0  0  0  0
 27 53  1  0  0  0  0
 28 27  1  0  0  0  0
 28 22  1  0  0  0  0
 29 28  2  0  0  0  0
 30 29  1  0  0  0  0
 30 54  1  0  0  0  0
 31 30  2  0  0  0  0
 31 21  1  0  0  0  0
 31 55  1  0  0  0  0
 32 14  1  0  0  0  0
 32 56  1  0  0  0  0
 33 32  2  0  0  0  0
 33 11  1  0  0  0  0
 33 57  1  0  0  0  0
M  CHG  1  16   1
M  END
>  <MOL Chiral Flag>
0

>  <energy>
71.368754857319459

$$$$
> 212_AKC_j.ijantimicag.2019.07.013
>207.sdf
 OpenBabel10052220333D

 41 43  0  0  0  0  0  0  0  0999 V2000
    0.7322    2.9822    1.8310 C   0  0  0  0  0  0  0  0  0  0  0  0
    0.2032    1.6521    1.6131 N   0  0  0  0  0  0  0  0  0  0  0  0
    0.9865    0.5396    1.1575 C   0  0  0  0  0  0  0  0  0  0  0  0
    0.6467   -0.6870    1.6378 N   0  0  0  0  0  0  0  0  0  0  0  0
    1.3176   -1.8241    1.3251 C   0  0  0  0  0  0  0  0  0  0  0  0
    0.8722   -3.0575    1.9037 N   0  0  0  0  0  0  0  0  0  0  0  0
    1.5019   -4.3581    1.7220 C   0  0  0  0  0  0  0  0  0  0  0  0
    0.5448   -5.3112    1.0563 C   0  0  0  0  0  0  0  0  0  0  0  0
   -0.6375   -5.6963    1.7060 C   0  0  0  0  0  0  0  0  0  0  0  0
   -1.5200   -6.5899    1.0928 C   0  0  0  0  0  0  0  0  0  0  0  0
   -1.2412   -7.1076   -0.1779 C   0  0  0  0  0  0  0  0  0  0  0  0
   -2.1279   -7.9747   -0.7350 O   0  0  0  0  0  0  0  0  0  0  0  0
   -1.9906   -8.5635   -1.9755 C   0  0  0  0  0  0  0  0  0  0  0  0
   -0.0550   -6.7170   -0.8339 C   0  0  0  0  0  0  0  0  0  0  0  0
    0.8305   -5.8291   -0.2173 C   0  0  0  0  0  0  0  0  0  0  0  0
    2.3829   -1.7566    0.4750 N   0  0  0  0  0  0  0  0  0  0  0  0
    2.7742   -0.5723   -0.0693 C   0  0  0  0  0  0  0  0  0  0  0  0
    3.8651   -0.5514   -0.9551 C   0  0  0  0  0  0  0  0  0  0  0  0
    4.2747    0.6395   -1.5435 C   0  0  0  0  0  0  0  0  0  0  0  0
    3.5963    1.8208   -1.2654 C   0  0  0  0  0  0  0  0  0  0  0  0
    2.5095    1.8243   -0.3866 C   0  0  0  0  0  0  0  0  0  0  0  0
    2.0839    0.6292    0.2447 C   0  0  0  0  0  0  0  0  0  0  0  0
    0.4556    3.6471    0.9867 H   0  0  0  0  0  0  0  0  0  0  0  0
    1.8280    2.9567    2.0116 H   0  0  0  0  0  0  0  0  0  0  0  0
    0.2721    3.4179    2.7436 H   0  0  0  0  0  0  0  0  0  0  0  0
   -0.6005    1.4041    2.2111 H   0  0  0  0  0  0  0  0  0  0  0  0
    0.0365   -3.0195    2.5071 H   0  0  0  0  0  0  0  0  0  0  0  0
    2.4296   -4.3134    1.1363 H   0  0  0  0  0  0  0  0  0  0  0  0
    1.7983   -4.7653    2.7120 H   0  0  0  0  0  0  0  0  0  0  0  0
   -0.8699   -5.3114    2.6911 H   0  0  0  0  0  0  0  0  0  0  0  0
   -2.4254   -6.8839    1.6085 H   0  0  0  0  0  0  0  0  0  0  0  0
   -1.0660   -9.1787   -2.0103 H   0  0  0  0  0  0  0  0  0  0  0  0
   -1.9647   -7.7867   -2.7693 H   0  0  0  0  0  0  0  0  0  0  0  0
   -2.8607   -9.2264   -2.1591 H   0  0  0  0  0  0  0  0  0  0  0  0
    0.1902   -7.0955   -1.8169 H   0  0  0  0  0  0  0  0  0  0  0  0
    1.7368   -5.5409   -0.7360 H   0  0  0  0  0  0  0  0  0  0  0  0
    4.3951   -1.4661   -1.1920 H   0  0  0  0  0  0  0  0  0  0  0  0
    5.1147    0.6439   -2.2260 H   0  0  0  0  0  0  0  0  0  0  0  0
    3.9107    2.7426   -1.7377 H   0  0  0  0  0  0  0  0  0  0  0  0
    2.0220    2.7636   -0.2396 H   0  0  0  0  0  0  0  0  0  0  0  0
    2.9163   -2.6049    0.2048 H   0  0  0  0  0  0  0  0  0  0  0  0
  1 23  1  0  0  0  0
  1 24  1  0  0  0  0
  1 25  1  0  0  0  0
  2  1  1  0  0  0  0
  2 26  1  0  0  0  0
  3  2  1  0  0  0  0
  4  3  2  0  0  0  0
  5  4  1  0  0  0  0
  6  5  1  0  0  0  0
  6 27  1  0  0  0  0
  7  6  1  0  0  0  0
  7 28  1  0  0  0  0
  7 29  1  0  0  0  0
  8  7  1  0  0  0  0
  9  8  2  0  0  0  0
  9 30  1  0  0  0  0
 10  9  1  0  0  0  0
 10 31  1  0  0  0  0
 11 10  2  0  0  0  0
 12 11  1  0  0  0  0
 13 12  1  0  0  0  0
 13 32  1  0  0  0  0
 13 33  1  0  0  0  0
 13 34  1  0  0  0  0
 14 11  1  0  0  0  0
 14 35  1  0  0  0  0
 15 14  2  0  0  0  0
 15  8  1  0  0  0  0
 15 36  1  0  0  0  0
 16  5  2  0  0  0  0
 16 41  1  0  0  0  0
 17 16  1  0  0  0  0
 18 17  2  0  0  0  0
 18 37  1  0  0  0  0
 19 18  1  0  0  0  0
 19 38  1  0  0  0  0
 20 19  2  0  0  0  0
 20 39  1  0  0  0  0
 21 20  1  0  0  0  0
 21 40  1  0  0  0  0
 22 21  2  0  0  0  0
 22  3  1  0  0  0  0
 22 17  1  0  0  0  0
M  END
>  <MOL Chiral Flag>
0

>  <energy>
-71.305749772531868

$$$$
> 213_AKC_j.ejmech.2019.06.051
>208.sdf
 OpenBabel10052220333D

 56 58  0  0  0  0  0  0  0  0999 V2000
    3.2555   -4.0464    2.4502 C   0  0  0  0  0  0  0  0  0  0  0  0
    2.1744   -4.3498    1.6466 O   0  0  0  0  0  0  0  0  0  0  0  0
    1.8036   -3.6378    0.5521 C   0  0  0  0  0  0  0  0  0  0  0  0
    1.7588   -2.2284    0.5899 C   0  0  0  0  0  0  0  0  0  0  0  0
    1.3703   -1.4718   -0.5392 C   0  0  0  0  0  0  0  0  0  0  0  0
    1.0897   -2.1621   -1.7311 C   0  0  0  0  0  0  0  0  0  0  0  0
    1.1487   -3.5637   -1.8029 C   0  0  0  0  0  0  0  0  0  0  0  0
    0.8927   -4.1327   -3.0172 O   0  0  0  0  0  0  0  0  0  0  0  0
    1.0211   -5.4638   -3.3648 C   0  0  0  0  0  0  0  0  0  0  0  0
    1.4631   -4.3207   -0.6408 C   0  0  0  0  0  0  0  0  0  0  0  0
    1.4263   -5.6839   -0.7133 O   0  0  0  0  0  0  0  0  0  0  0  0
    1.2937   -6.5879    0.3245 C   0  0  0  0  0  0  0  0  0  0  0  0
    1.2591    0.0334   -0.4270 C   0  0  0  0  0  0  0  0  0  0  0  0
    0.7225    0.8662   -1.4347 C   0  0  0  0  0  0  0  0  0  0  0  0
    0.6055    2.2572   -1.2185 C   0  0  0  0  0  0  0  0  0  0  0  0
    1.0294    2.8364   -0.0037 C   0  0  0  0  0  0  0  0  0  0  0  0
    0.8813    4.3303    0.2974 C   0  0  0  0  0  0  0  0  0  0  0  0
    1.3285    4.7295    1.3570 O   0  0  0  0  0  0  0  0  0  0  0  0
    0.2391    5.2473   -0.5134 N   0  0  0  0  0  0  0  0  0  0  0  0
    0.0066    6.5234    0.0133 N   0  0  0  0  0  0  0  0  0  0  0  0
   -0.6820    7.6109   -0.6294 C   0  0  0  0  0  0  0  0  0  0  0  0
   -1.3101    8.5766    0.2457 S   0  0  0  0  0  0  0  0  0  0  0  0
   -0.7823    7.7396   -2.0665 N   0  0  0  0  0  0  0  0  0  0  0  0
   -1.1249    8.9504   -2.8016 C   0  0  0  0  0  0  0  0  0  0  0  0
   -1.0528   10.2610   -2.2433 C   0  0  0  0  0  0  0  0  0  0  0  0
   -1.3940   11.3866   -2.9974 C   0  0  0  0  0  0  0  0  0  0  0  0
   -1.7957   11.2504   -4.3218 C   0  0  0  0  0  0  0  0  0  0  0  0
   -2.2175   12.6755   -5.2573 Cl  0  0  0  0  0  0  0  0  0  0  0  0
   -1.8474    9.9821   -4.9027 C   0  0  0  0  0  0  0  0  0  0  0  0
   -1.5112    8.8430   -4.1535 C   0  0  0  0  0  0  0  0  0  0  0  0
    1.5789    1.9453    0.9817 C   0  0  0  0  0  0  0  0  0  0  0  0
    2.0632    2.3926    2.3338 C   0  0  0  0  0  0  0  0  0  0  0  0
    1.6592    0.6140    0.7279 N   0  0  0  0  0  0  0  0  0  0  0  0
    3.3195   -4.7978    3.2651 H   0  0  0  0  0  0  0  0  0  0  0  0
    3.1730   -3.0399    2.9030 H   0  0  0  0  0  0  0  0  0  0  0  0
    4.1897   -4.1190    1.8506 H   0  0  0  0  0  0  0  0  0  0  0  0
    1.9936   -1.7238    1.5167 H   0  0  0  0  0  0  0  0  0  0  0  0
    0.8226   -1.6254   -2.6269 H   0  0  0  0  0  0  0  0  0  0  0  0
    2.0614   -5.8129   -3.1798 H   0  0  0  0  0  0  0  0  0  0  0  0
    0.2886   -6.0888   -2.8127 H   0  0  0  0  0  0  0  0  0  0  0  0
    0.8139   -5.5754   -4.4478 H   0  0  0  0  0  0  0  0  0  0  0  0
    0.3652   -6.3704    0.8972 H   0  0  0  0  0  0  0  0  0  0  0  0
    1.1960   -7.6071   -0.1029 H   0  0  0  0  0  0  0  0  0  0  0  0
    2.1807   -6.5996    0.9870 H   0  0  0  0  0  0  0  0  0  0  0  0
    0.3712    0.4611   -2.3708 H   0  0  0  0  0  0  0  0  0  0  0  0
    0.1749    2.8642   -2.0014 H   0  0  0  0  0  0  0  0  0  0  0  0
   -0.1423    4.9853   -1.4282 H   0  0  0  0  0  0  0  0  0  0  0  0
    0.2367    6.6802    1.0049 H   0  0  0  0  0  0  0  0  0  0  0  0
   -0.5780    6.8996   -2.6271 H   0  0  0  0  0  0  0  0  0  0  0  0
   -0.7157   10.4556   -1.2445 H   0  0  0  0  0  0  0  0  0  0  0  0
   -1.3367   12.3716   -2.5471 H   0  0  0  0  0  0  0  0  0  0  0  0
   -2.1490    9.8799   -5.9371 H   0  0  0  0  0  0  0  0  0  0  0  0
   -1.5617    7.8726   -4.6277 H   0  0  0  0  0  0  0  0  0  0  0  0
    1.2326    2.8571    2.9065 H   0  0  0  0  0  0  0  0  0  0  0  0
    2.9141    3.0974    2.2246 H   0  0  0  0  0  0  0  0  0  0  0  0
    2.4254    1.5259    2.9259 H   0  0  0  0  0  0  0  0  0  0  0  0
  1 34  1  0  0  0  0
  1 35  1  0  0  0  0
  1 36  1  0  0  0  0
  2  1  1  0  0  0  0
  3  2  1  0  0  0  0
  4  3  2  0  0  0  0
  4 37  1  0  0  0  0
  5  4  1  0  0  0  0
  6  5  2  0  0  0  0
  6 38  1  0  0  0  0
  7  6  1  0  0  0  0
  8  7  1  0  0  0  0
  9  8  1  0  0  0  0
  9 39  1  0  0  0  0
  9 40  1  0  0  0  0
  9 41  1  0  0  0  0
 10  7  2  0  0  0  0
 10  3  1  0  0  0  0
 11 10  1  0  0  0  0
 12 11  1  0  0  0  0
 12 42  1  0  0  0  0
 12 43  1  0  0  0  0
 12 44  1  0  0  0  0
 13  5  1  0  0  0  0
 14 13  2  0  0  0  0
 14 45  1  0  0  0  0
 15 14  1  0  0  0  0
 15 46  1  0  0  0  0
 16 15  2  0  0  0  0
 17 16  1  0  0  0  0
 18 17  2  0  0  0  0
 19 17  1  0  0  0  0
 19 47  1  0  0  0  0
 20 19  1  0  0  0  0
 20 48  1  0  0  0  0
 21 20  1  0  0  0  0
 22 21  2  0  0  0  0
 23 21  1  0  0  0  0
 23 49  1  0  0  0  0
 24 23  1  0  0  0  0
 25 24  2  0  0  0  0
 25 50  1  0  0  0  0
 26 25  1  0  0  0  0
 26 51  1  0  0  0  0
 27 26  2  0  0  0  0
 28 27  1  0  0  0  0
 29 27  1  0  0  0  0
 29 52  1  0  0  0  0
 30 29  2  0  0  0  0
 30 24  1  0  0  0  0
 30 53  1  0  0  0  0
 31 16  1  0  0  0  0
 32 31  1  0  0  0  0
 32 54  1  0  0  0  0
 32 55  1  0  0  0  0
 32 56  1  0  0  0  0
 33 31  2  0  0  0  0
 33 13  1  0  0  0  0
M  END
>  <MOL Chiral Flag>
0

>  <energy>
127.54399016434013

$$$$
> 214_AKC_j.ejmech.2019.06.051
>209.sdf
 OpenBabel10052220343D

 56 58  0  0  0  0  0  0  0  0999 V2000
   -1.6420    2.7368   -4.0989 C   0  0  0  0  0  0  0  0  0  0  0  0
   -2.4130    3.2056   -3.0503 O   0  0  0  0  0  0  0  0  0  0  0  0
   -2.3229    2.7583   -1.7669 C   0  0  0  0  0  0  0  0  0  0  0  0
   -1.2386    1.9727   -1.3386 C   0  0  0  0  0  0  0  0  0  0  0  0
   -1.1712    1.4665   -0.0302 C   0  0  0  0  0  0  0  0  0  0  0  0
   -2.2527    1.7055    0.8368 C   0  0  0  0  0  0  0  0  0  0  0  0
   -3.3418    2.5137    0.4320 C   0  0  0  0  0  0  0  0  0  0  0  0
   -4.4089    2.7165    1.2481 O   0  0  0  0  0  0  0  0  0  0  0  0
   -4.6684    2.0317    2.4167 C   0  0  0  0  0  0  0  0  0  0  0  0
   -3.3453    3.0878   -0.8644 C   0  0  0  0  0  0  0  0  0  0  0  0
   -4.3164    3.9476   -1.2899 O   0  0  0  0  0  0  0  0  0  0  0  0
   -4.9368    4.9100   -0.5066 C   0  0  0  0  0  0  0  0  0  0  0  0
    0.0613    0.7198    0.3906 C   0  0  0  0  0  0  0  0  0  0  0  0
    0.1596   -0.0193    1.5804 C   0  0  0  0  0  0  0  0  0  0  0  0
    1.3689   -0.6468    1.9143 C   0  0  0  0  0  0  0  0  0  0  0  0
    2.5055   -0.5311    1.0786 C   0  0  0  0  0  0  0  0  0  0  0  0
    3.8218   -1.2168    1.4153 C   0  0  0  0  0  0  0  0  0  0  0  0
    4.7748   -1.0516    0.6711 O   0  0  0  0  0  0  0  0  0  0  0  0
    3.9802   -2.0428    2.4976 N   0  0  0  0  0  0  0  0  0  0  0  0
    5.1767   -2.7332    2.6701 N   0  0  0  0  0  0  0  0  0  0  0  0
    5.4321   -3.6473    3.7459 C   0  0  0  0  0  0  0  0  0  0  0  0
    4.4911   -3.7854    4.8327 S   0  0  0  0  0  0  0  0  0  0  0  0
    6.5632   -4.5315    3.6101 N   0  0  0  0  0  0  0  0  0  0  0  0
    7.1805   -5.3673    4.6043 C   0  0  0  0  0  0  0  0  0  0  0  0
    7.0527   -5.1456    5.9942 C   0  0  0  0  0  0  0  0  0  0  0  0
    7.7177   -5.9748    6.9060 C   0  0  0  0  0  0  0  0  0  0  0  0
    8.5124   -7.0287    6.4521 C   0  0  0  0  0  0  0  0  0  0  0  0
    8.6535   -7.2546    5.0840 C   0  0  0  0  0  0  0  0  0  0  0  0
    8.0005   -6.4270    4.1670 C   0  0  0  0  0  0  0  0  0  0  0  0
    2.3567    0.2456   -0.1121 C   0  0  0  0  0  0  0  0  0  0  0  0
    3.4728    0.4908   -1.0893 C   0  0  0  0  0  0  0  0  0  0  0  0
    1.1595    0.8149   -0.4001 N   0  0  0  0  0  0  0  0  0  0  0  0
   -0.5737    3.0010   -3.9559 H   0  0  0  0  0  0  0  0  0  0  0  0
   -1.9968    3.1848   -5.0489 H   0  0  0  0  0  0  0  0  0  0  0  0
   -1.7510    1.6316   -4.1813 H   0  0  0  0  0  0  0  0  0  0  0  0
   -0.4355    1.7579   -2.0284 H   0  0  0  0  0  0  0  0  0  0  0  0
   -2.2425    1.2990    1.8333 H   0  0  0  0  0  0  0  0  0  0  0  0
   -5.6665    2.3339    2.7950 H   0  0  0  0  0  0  0  0  0  0  0  0
   -3.9047    2.2654    3.1856 H   0  0  0  0  0  0  0  0  0  0  0  0
   -4.6966    0.9380    2.2146 H   0  0  0  0  0  0  0  0  0  0  0  0
   -5.5583    4.4793    0.2986 H   0  0  0  0  0  0  0  0  0  0  0  0
   -5.6127    5.5174   -1.1425 H   0  0  0  0  0  0  0  0  0  0  0  0
   -4.1749    5.5974   -0.0736 H   0  0  0  0  0  0  0  0  0  0  0  0
   -0.6801   -0.1275    2.2498 H   0  0  0  0  0  0  0  0  0  0  0  0
    1.3948   -1.2095    2.8322 H   0  0  0  0  0  0  0  0  0  0  0  0
    3.2075   -2.1982    3.1517 H   0  0  0  0  0  0  0  0  0  0  0  0
    5.9158   -2.6439    1.9580 H   0  0  0  0  0  0  0  0  0  0  0  0
    6.9640   -4.5922    2.6616 H   0  0  0  0  0  0  0  0  0  0  0  0
    6.4771   -4.3267    6.3895 H   0  0  0  0  0  0  0  0  0  0  0  0
    7.6240   -5.7929    7.9687 H   0  0  0  0  0  0  0  0  0  0  0  0
    9.0265   -7.6654    7.1610 H   0  0  0  0  0  0  0  0  0  0  0  0
    9.2744   -8.0688    4.7315 H   0  0  0  0  0  0  0  0  0  0  0  0
    8.1273   -6.6151    3.1078 H   0  0  0  0  0  0  0  0  0  0  0  0
    3.8380   -0.4652   -1.5175 H   0  0  0  0  0  0  0  0  0  0  0  0
    3.1204    1.1227   -1.9325 H   0  0  0  0  0  0  0  0  0  0  0  0
    4.2991    1.0397   -0.5889 H   0  0  0  0  0  0  0  0  0  0  0  0
  1 33  1  0  0  0  0
  1 34  1  0  0  0  0
  1 35  1  0  0  0  0
  2  1  1  0  0  0  0
  3  2  1  0  0  0  0
  4  3  2  0  0  0  0
  4 36  1  0  0  0  0
  5  4  1  0  0  0  0
  6  5  2  0  0  0  0
  6 37  1  0  0  0  0
  7  6  1  0  0  0  0
  8  7  1  0  0  0  0
  9  8  1  0  0  0  0
  9 38  1  0  0  0  0
  9 39  1  0  0  0  0
  9 40  1  0  0  0  0
 10  7  2  0  0  0  0
 10  3  1  0  0  0  0
 11 10  1  0  0  0  0
 12 11  1  0  0  0  0
 12 41  1  0  0  0  0
 12 42  1  0  0  0  0
 12 43  1  0  0  0  0
 13  5  1  0  0  0  0
 14 13  2  0  0  0  0
 14 44  1  0  0  0  0
 15 14  1  0  0  0  0
 15 45  1  0  0  0  0
 16 15  2  0  0  0  0
 17 16  1  0  0  0  0
 18 17  2  0  0  0  0
 19 17  1  0  0  0  0
 19 46  1  0  0  0  0
 20 19  1  0  0  0  0
 20 47  1  0  0  0  0
 21 20  1  0  0  0  0
 22 21  2  0  0  0  0
 23 21  1  0  0  0  0
 23 48  1  0  0  0  0
 24 23  1  0  0  0  0
 25 24  2  0  0  0  0
 25 49  1  0  0  0  0
 26 25  1  0  0  0  0
 26 50  1  0  0  0  0
 27 26  2  0  0  0  0
 27 51  1  0  0  0  0
 28 27  1  0  0  0  0
 28 52  1  0  0  0  0
 29 28  2  0  0  0  0
 29 24  1  0  0  0  0
 29 53  1  0  0  0  0
 30 16  1  0  0  0  0
 31 30  1  0  0  0  0
 31 54  1  0  0  0  0
 31 55  1  0  0  0  0
 31 56  1  0  0  0  0
 32 30  2  0  0  0  0
 32 13  1  0  0  0  0
M  END
>  <MOL Chiral Flag>
0

>  <energy>
114.16461531391525

$$$$
> 215_AKC_acs.jnatprod.9b00632
>210.sdf
 OpenBabel10052220343D

 51 54  0  0  0  0  0  0  0  0999 V2000
   -6.4577    3.4373   -0.1921 O   0  0  0  0  0  0  0  0  0  0  0  0
   -5.3848    2.6530   -0.4216 C   0  0  0  0  0  0  0  0  0  0  0  0
   -5.4561    1.6496   -1.3922 C   0  0  0  0  0  0  0  0  0  0  0  0
   -4.3423    0.8362   -1.6599 C   0  0  0  0  0  0  0  0  0  0  0  0
   -4.4216   -0.1283   -2.6011 O   0  0  0  0  0  0  0  0  0  0  0  0
   -3.1447    1.0305   -0.9412 C   0  0  0  0  0  0  0  0  0  0  0  0
   -1.9111    0.1967   -1.2219 C   0  0  0  0  0  0  0  0  0  0  0  0
   -1.1266    0.0374    0.0868 C   0  0  1  0  0  0  0  0  0  0  0  0
    0.0687   -0.6571   -0.0160 O   0  0  0  0  0  0  0  0  0  0  0  0
    0.2429   -1.9382   -0.4406 C   0  0  0  0  0  0  0  0  0  0  0  0
   -0.5761   -2.4746   -1.1697 O   0  0  0  0  0  0  0  0  0  0  0  0
    1.4085   -2.7051    0.0649 C   0  0  0  0  0  0  0  0  0  0  0  0
    2.2652   -2.1243    1.0127 C   0  0  0  0  0  0  0  0  0  0  0  0
    3.3357   -2.8510    1.5503 C   0  0  0  0  0  0  0  0  0  0  0  0
    4.1390   -2.2864    2.4756 O   0  0  0  0  0  0  0  0  0  0  0  0
    3.5631   -4.1751    1.1312 C   0  0  0  0  0  0  0  0  0  0  0  0
    4.5829   -4.8944    1.6506 O   0  0  0  0  0  0  0  0  0  0  0  0
    2.7165   -4.7582    0.1698 C   0  0  0  0  0  0  0  0  0  0  0  0
    2.9117   -6.0273   -0.2498 O   0  0  0  0  0  0  0  0  0  0  0  0
    1.6451   -4.0256   -0.3570 C   0  0  0  0  0  0  0  0  0  0  0  0
   -0.8421    1.4108    0.7562 C   0  0  2  0  0  0  0  0  0  0  0  0
   -1.9709    2.2149    0.8056 O   0  0  0  0  0  0  0  0  0  0  0  0
   -3.0917    2.0256    0.0630 C   0  0  0  0  0  0  0  0  0  0  0  0
   -4.2037    2.8343    0.3064 C   0  0  0  0  0  0  0  0  0  0  0  0
    0.3001    2.2238    0.1669 C   0  0  0  0  0  0  0  0  0  0  0  0
    1.4852    2.3890    0.9050 C   0  0  0  0  0  0  0  0  0  0  0  0
    2.5333    3.1725    0.4130 C   0  0  0  0  0  0  0  0  0  0  0  0
    3.6526    3.3105    1.1560 O   0  0  0  0  0  0  0  0  0  0  0  0
    2.4068    3.8121   -0.8334 C   0  0  0  0  0  0  0  0  0  0  0  0
    3.4178    4.5810   -1.2953 O   0  0  0  0  0  0  0  0  0  0  0  0
    1.2248    3.6543   -1.5807 C   0  0  0  0  0  0  0  0  0  0  0  0
    1.0932    4.2752   -2.7723 O   0  0  0  0  0  0  0  0  0  0  0  0
    0.1797    2.8625   -1.0798 C   0  0  0  0  0  0  0  0  0  0  0  0
   -6.4349    4.1513    0.4617 H   0  0  0  0  0  0  0  0  0  0  0  0
   -6.3769    1.5067   -1.9444 H   0  0  0  0  0  0  0  0  0  0  0  0
   -5.2409   -0.2984   -3.0881 H   0  0  0  0  0  0  0  0  0  0  0  0
   -1.2979    0.6816   -2.0047 H   0  0  0  0  0  0  0  0  0  0  0  0
   -2.2134   -0.7931   -1.6171 H   0  0  0  0  0  0  0  0  0  0  0  0
   -1.7983   -0.5232    0.7779 H   0  0  0  0  0  0  0  0  0  0  0  0
    2.0938   -1.1098    1.3532 H   0  0  0  0  0  0  0  0  0  0  0  0
    3.9974   -1.3817    2.7906 H   0  0  0  0  0  0  0  0  0  0  0  0
    5.1748   -4.5398    2.3286 H   0  0  0  0  0  0  0  0  0  0  0  0
    3.6308   -6.5792    0.0886 H   0  0  0  0  0  0  0  0  0  0  0  0
    0.9944   -4.4919   -1.0863 H   0  0  0  0  0  0  0  0  0  0  0  0
   -0.5647    1.1444    1.8003 H   0  0  0  0  0  0  0  0  0  0  0  0
   -4.1480    3.6036    1.0670 H   0  0  0  0  0  0  0  0  0  0  0  0
    1.5953    1.9124    1.8717 H   0  0  0  0  0  0  0  0  0  0  0  0
    4.4030    3.8491    0.8683 H   0  0  0  0  0  0  0  0  0  0  0  0
    3.3675    5.0541   -2.1376 H   0  0  0  0  0  0  0  0  0  0  0  0
    0.2894    4.1938   -3.3051 H   0  0  0  0  0  0  0  0  0  0  0  0
   -0.7308    2.7744   -1.6534 H   0  0  0  0  0  0  0  0  0  0  0  0
  1 34  1  0  0  0  0
  2  1  1  0  0  0  0
  3  2  2  0  0  0  0
  3 35  1  0  0  0  0
  4  3  1  0  0  0  0
  5  4  1  0  0  0  0
  5 36  1  0  0  0  0
  6  4  2  0  0  0  0
  7  6  1  0  0  0  0
  7 37  1  0  0  0  0
  7 38  1  0  0  0  0
  8  7  1  0  0  0  0
  8 39  1  1  0  0  0
  9  8  1  0  0  0  0
 10  9  1  0  0  0  0
 11 10  2  0  0  0  0
 12 10  1  0  0  0  0
 13 12  2  0  0  0  0
 13 40  1  0  0  0  0
 14 13  1  0  0  0  0
 15 14  1  0  0  0  0
 15 41  1  0  0  0  0
 16 14  2  0  0  0  0
 17 16  1  0  0  0  0
 17 42  1  0  0  0  0
 18 16  1  0  0  0  0
 19 18  1  0  0  0  0
 19 43  1  0  0  0  0
 20 18  2  0  0  0  0
 20 12  1  0  0  0  0
 20 44  1  0  0  0  0
 21  8  1  0  0  0  0
 21 45  1  1  0  0  0
 22 21  1  0  0  0  0
 23 22  1  0  0  0  0
 23  6  1  0  0  0  0
 24 23  2  0  0  0  0
 24  2  1  0  0  0  0
 24 46  1  0  0  0  0
 25 21  1  0  0  0  0
 26 25  2  0  0  0  0
 26 47  1  0  0  0  0
 27 26  1  0  0  0  0
 28 27  1  0  0  0  0
 28 48  1  0  0  0  0
 29 27  2  0  0  0  0
 30 29  1  0  0  0  0
 30 49  1  0  0  0  0
 31 29  1  0  0  0  0
 32 31  1  0  0  0  0
 32 50  1  0  0  0  0
 33 31  2  0  0  0  0
 33 25  1  0  0  0  0
 33 51  1  0  0  0  0
M  END
>  <MOL Chiral Flag>
0

>  <energy>
53.777957870444837

$$$$
> 216_AKC_j.bmc.2019.07.009
>211.sdf
 OpenBabel10052220353D

 47 50  0  0  0  0  0  0  0  0999 V2000
   -8.1505   -0.9547   -0.3832 O   0  0  0  0  0  0  0  0  0  0  0  0
   -7.0596   -0.9066    0.1009 N   0  0  0  0  0  0  0  0  0  0  0  0
   -6.7963   -1.6004    1.0347 O   0  0  0  0  0  0  0  0  0  0  0  0
   -6.0792   -0.0319   -0.4308 C   0  0  0  0  0  0  0  0  0  0  0  0
   -6.2455    0.8241   -1.5031 C   0  0  0  0  0  0  0  0  0  0  0  0
   -5.0347    1.4666   -1.6584 C   0  0  0  0  0  0  0  0  0  0  0  0
   -4.2071    0.9608   -0.6720 C   0  0  0  0  0  0  0  0  0  0  0  0
   -4.8586    0.0702    0.0417 O   0  0  0  0  0  0  0  0  0  0  0  0
   -2.8067    1.3217   -0.4404 C   0  0  0  0  0  0  0  0  0  0  0  0
   -2.0974    2.2330   -1.1634 N   0  0  0  0  0  0  0  0  0  0  0  0
   -0.8088    2.3477   -0.7750 N   0  0  0  0  0  0  0  0  0  0  0  0
   -0.4779    1.5278    0.2631 C   0  0  0  0  0  0  0  0  0  0  0  0
   -1.8169    0.6579    0.6952 S   0  0  0  0  0  0  0  0  0  0  0  0
    0.8373    1.4028    0.8148 N   0  0  0  0  0  0  0  0  0  0  0  0
    1.9335    1.9644    0.0303 C   0  0  0  0  0  0  0  0  0  0  0  0
    3.2368    2.0702    0.8405 C   0  0  0  0  0  0  0  0  0  0  0  0
    3.5825    0.6968    1.4644 C   0  0  0  0  0  0  0  0  0  0  0  0
    2.4077    0.3113    2.3899 C   0  0  0  0  0  0  0  0  0  0  0  0
    1.1068    0.1994    1.5969 C   0  0  0  0  0  0  0  0  0  0  0  0
    4.9057    0.6255    2.1645 N   0  3  0  0  0  0  0  0  0  0  0  0
    4.9883    1.3694    3.4487 C   0  0  0  0  0  0  0  0  0  0  0  0
    6.3297    1.0872    4.1512 C   0  0  0  0  0  0  0  0  0  0  0  0
    7.4927    1.4874    3.2449 C   0  0  0  0  0  0  0  0  0  0  0  0
    7.3855    0.7393    1.9149 C   0  0  0  0  0  0  0  0  0  0  0  0
    6.0226    1.0246    1.2675 C   0  0  0  0  0  0  0  0  0  0  0  0
   -7.1367    0.9621   -2.1010 H   0  0  0  0  0  0  0  0  0  0  0  0
   -4.7857    2.2087   -2.4055 H   0  0  0  0  0  0  0  0  0  0  0  0
    1.6747    2.9782   -0.3465 H   0  0  0  0  0  0  0  0  0  0  0  0
    2.1080    1.3035   -0.8484 H   0  0  0  0  0  0  0  0  0  0  0  0
    3.1233    2.8330    1.6405 H   0  0  0  0  0  0  0  0  0  0  0  0
    4.0188    2.4135    0.1339 H   0  0  0  0  0  0  0  0  0  0  0  0
    3.6195   -0.0496    0.6354 H   0  0  0  0  0  0  0  0  0  0  0  0
    2.2610    1.0934    3.1667 H   0  0  0  0  0  0  0  0  0  0  0  0
    2.6036   -0.6599    2.8926 H   0  0  0  0  0  0  0  0  0  0  0  0
    0.2896    0.0079    2.3261 H   0  0  0  0  0  0  0  0  0  0  0  0
    1.1744   -0.6678    0.9045 H   0  0  0  0  0  0  0  0  0  0  0  0
    5.0402   -0.3901    2.3918 H   0  0  0  0  0  0  0  0  0  0  0  0
    4.2040    1.0345    4.1576 H   0  0  0  0  0  0  0  0  0  0  0  0
    4.8717    2.4619    3.2776 H   0  0  0  0  0  0  0  0  0  0  0  0
    6.4023    0.0000    4.3809 H   0  0  0  0  0  0  0  0  0  0  0  0
    6.3855    1.6459    5.1096 H   0  0  0  0  0  0  0  0  0  0  0  0
    8.4599    1.2482    3.7371 H   0  0  0  0  0  0  0  0  0  0  0  0
    7.4544    2.5838    3.0621 H   0  0  0  0  0  0  0  0  0  0  0  0
    7.4885   -0.3542    2.0885 H   0  0  0  0  0  0  0  0  0  0  0  0
    8.2034    1.0638    1.2359 H   0  0  0  0  0  0  0  0  0  0  0  0
    5.9680    0.4680    0.3056 H   0  0  0  0  0  0  0  0  0  0  0  0
    5.9796    2.1141    1.0475 H   0  0  0  0  0  0  0  0  0  0  0  0
  2  1  2  0  0  0  0
  3  2  2  0  0  0  0
  4  2  1  0  0  0  0
  5  4  2  0  0  0  0
  5 26  1  0  0  0  0
  6  5  1  0  0  0  0
  6 27  1  0  0  0  0
  7  6  2  0  0  0  0
  8  7  1  0  0  0  0
  8  4  1  0  0  0  0
  9  7  1  0  0  0  0
 10  9  2  0  0  0  0
 11 10  1  0  0  0  0
 12 11  2  0  0  0  0
 13 12  1  0  0  0  0
 13  9  1  0  0  0  0
 14 12  1  0  0  0  0
 15 14  1  0  0  0  0
 15 28  1  0  0  0  0
 15 29  1  0  0  0  0
 16 15  1  0  0  0  0
 16 30  1  0  0  0  0
 16 31  1  0  0  0  0
 17 16  1  0  0  0  0
 17 32  1  0  0  0  0
 18 17  1  0  0  0  0
 18 33  1  0  0  0  0
 18 34  1  0  0  0  0
 19 18  1  0  0  0  0
 19 14  1  0  0  0  0
 19 35  1  0  0  0  0
 19 36  1  0  0  0  0
 20 17  1  0  0  0  0
 20 37  1  0  0  0  0
 21 20  1  0  0  0  0
 21 38  1  0  0  0  0
 21 39  1  0  0  0  0
 22 21  1  0  0  0  0
 22 40  1  0  0  0  0
 22 41  1  0  0  0  0
 23 22  1  0  0  0  0
 23 42  1  0  0  0  0
 23 43  1  0  0  0  0
 24 23  1  0  0  0  0
 24 44  1  0  0  0  0
 24 45  1  0  0  0  0
 25 24  1  0  0  0  0
 25 20  1  0  0  0  0
 25 46  1  0  0  0  0
 25 47  1  0  0  0  0
M  CHG  1  20   1
M  END
>  <MOL Chiral Flag>
0

>  <energy>
55.792441175409273

$$$$
> 217_AKC_j.bmc.2019.07.009
>212.sdf
 OpenBabel10052220363D

 50 53  0  0  0  0  0  0  0  0999 V2000
   -4.3882   -6.9819   -1.0535 C   0  0  0  0  0  0  0  0  0  0  0  0
   -3.9697   -7.3798    0.2968 N   0  0  0  0  0  0  0  0  0  0  0  0
   -4.5580   -8.2206    1.1856 C   0  0  0  0  0  0  0  0  0  0  0  0
   -3.8106   -8.2275    2.3456 C   0  0  0  0  0  0  0  0  0  0  0  0
   -2.7696   -7.3882    2.1980 N   0  0  0  0  0  0  0  0  0  0  0  0
   -2.8789   -6.8976    0.9439 C   0  0  0  0  0  0  0  0  0  0  0  0
   -1.9162   -5.9274    0.3956 C   0  0  0  0  0  0  0  0  0  0  0  0
   -1.7128   -5.6598   -0.9256 N   0  0  0  0  0  0  0  0  0  0  0  0
   -0.7745   -4.7152   -1.1506 N   0  0  0  0  0  0  0  0  0  0  0  0
   -0.2389   -4.2030   -0.0089 C   0  0  0  0  0  0  0  0  0  0  0  0
   -0.9254   -4.9621    1.2870 S   0  0  0  0  0  0  0  0  0  0  0  0
    0.6600   -3.0963    0.0321 N   0  0  0  0  0  0  0  0  0  0  0  0
    0.6993   -2.2237    1.1948 C   0  0  0  0  0  0  0  0  0  0  0  0
    0.2387   -0.8262    0.7412 C   0  0  0  0  0  0  0  0  0  0  0  0
    1.1359   -0.2779   -0.4139 C   0  0  0  0  0  0  0  0  0  0  0  0
    1.0313   -1.3113   -1.5797 C   0  0  0  0  0  0  0  0  0  0  0  0
    1.4456   -2.7176   -1.1333 C   0  0  0  0  0  0  0  0  0  0  0  0
    2.5396    0.0264    0.0410 N   0  3  0  0  0  0  0  0  0  0  0  0
    3.4346    0.3802   -1.0957 C   0  0  0  0  0  0  0  0  0  0  0  0
    4.8602    0.7095   -0.6183 C   0  0  0  0  0  0  0  0  0  0  0  0
    4.8273    1.8733    0.3657 C   0  0  0  0  0  0  0  0  0  0  0  0
    3.9227    1.5036    1.5334 C   0  0  0  0  0  0  0  0  0  0  0  0
    2.5216    1.1563    1.0174 C   0  0  0  0  0  0  0  0  0  0  0  0
   -5.7575   -8.9747    1.0018 N   0  0  0  0  0  0  0  0  0  0  0  0
   -6.3777   -8.9079   -0.0149 O   0  0  0  0  0  0  0  0  0  0  0  0
   -6.1574   -9.6736    1.8813 O   0  0  0  0  0  0  0  0  0  0  0  0
   -5.3328   -7.4391   -1.3818 H   0  0  0  0  0  0  0  0  0  0  0  0
   -3.6075   -7.2582   -1.7901 H   0  0  0  0  0  0  0  0  0  0  0  0
   -4.5397   -5.8806   -1.0754 H   0  0  0  0  0  0  0  0  0  0  0  0
   -4.0116   -8.7941    3.2451 H   0  0  0  0  0  0  0  0  0  0  0  0
    1.7189   -2.2063    1.6283 H   0  0  0  0  0  0  0  0  0  0  0  0
    0.0135   -2.5654    1.9966 H   0  0  0  0  0  0  0  0  0  0  0  0
    0.1659   -0.1423    1.6045 H   0  0  0  0  0  0  0  0  0  0  0  0
   -0.8031   -0.9222    0.3595 H   0  0  0  0  0  0  0  0  0  0  0  0
    0.6815    0.6662   -0.7928 H   0  0  0  0  0  0  0  0  0  0  0  0
    1.5924   -0.9991   -2.4824 H   0  0  0  0  0  0  0  0  0  0  0  0
   -0.0328   -1.3688   -1.9002 H   0  0  0  0  0  0  0  0  0  0  0  0
    2.5243   -2.7297   -0.8671 H   0  0  0  0  0  0  0  0  0  0  0  0
    1.3023   -3.4305   -1.9739 H   0  0  0  0  0  0  0  0  0  0  0  0
    2.9541   -0.8119    0.5063 H   0  0  0  0  0  0  0  0  0  0  0  0
    3.0213    1.2470   -1.6597 H   0  0  0  0  0  0  0  0  0  0  0  0
    3.5509   -0.4766   -1.7898 H   0  0  0  0  0  0  0  0  0  0  0  0
    5.5010    0.9725   -1.4867 H   0  0  0  0  0  0  0  0  0  0  0  0
    5.2985   -0.1839   -0.1199 H   0  0  0  0  0  0  0  0  0  0  0  0
    4.4339    2.7822   -0.1413 H   0  0  0  0  0  0  0  0  0  0  0  0
    5.8514    2.0930    0.7360 H   0  0  0  0  0  0  0  0  0  0  0  0
    3.8607    2.3560    2.2445 H   0  0  0  0  0  0  0  0  0  0  0  0
    4.3430    0.6273    2.0743 H   0  0  0  0  0  0  0  0  0  0  0  0
    2.0717    2.0624    0.5493 H   0  0  0  0  0  0  0  0  0  0  0  0
    1.9364    0.9073    1.9213 H   0  0  0  0  0  0  0  0  0  0  0  0
  1 27  1  0  0  0  0
  1 28  1  0  0  0  0
  1 29  1  0  0  0  0
  2  1  1  0  0  0  0
  3  2  1  0  0  0  0
  4  3  2  0  0  0  0
  4 30  1  0  0  0  0
  5  4  1  0  0  0  0
  6  5  2  0  0  0  0
  6  2  1  0  0  0  0
  7  6  1  0  0  0  0
  8  7  2  0  0  0  0
  9  8  1  0  0  0  0
 10  9  2  0  0  0  0
 11 10  1  0  0  0  0
 11  7  1  0  0  0  0
 12 10  1  0  0  0  0
 13 12  1  0  0  0  0
 13 31  1  0  0  0  0
 13 32  1  0  0  0  0
 14 13  1  0  0  0  0
 14 33  1  0  0  0  0
 14 34  1  0  0  0  0
 15 14  1  0  0  0  0
 15 35  1  0  0  0  0
 16 15  1  0  0  0  0
 16 36  1  0  0  0  0
 16 37  1  0  0  0  0
 17 16  1  0  0  0  0
 17 12  1  0  0  0  0
 17 38  1  0  0  0  0
 17 39  1  0  0  0  0
 18 15  1  0  0  0  0
 18 40  1  0  0  0  0
 19 18  1  0  0  0  0
 19 41  1  0  0  0  0
 19 42  1  0  0  0  0
 20 19  1  0  0  0  0
 20 43  1  0  0  0  0
 20 44  1  0  0  0  0
 21 20  1  0  0  0  0
 21 45  1  0  0  0  0
 21 46  1  0  0  0  0
 22 21  1  0  0  0  0
 22 47  1  0  0  0  0
 22 48  1  0  0  0  0
 23 22  1  0  0  0  0
 23 18  1  0  0  0  0
 23 49  1  0  0  0  0
 23 50  1  0  0  0  0
 24  3  1  0  0  0  0
 25 24  2  0  0  0  0
 26 24  2  0  0  0  0
M  CHG  1  18   1
M  END
>  <MOL Chiral Flag>
0

>  <energy>
14.271182536619051

$$$$
> 218_AKC_acs.jmedchem.9b00628
>213.sdf
 OpenBabel10052220373D

 49 52  0  0  0  0  0  0  0  0999 V2000
   -6.3894   -6.6326   -3.3262 C   0  0  0  0  0  0  0  0  0  0  0  0
   -7.1160   -5.3307   -3.1430 C   0  0  0  0  0  0  0  0  0  0  0  0
   -8.4578   -5.2921   -2.9854 N   0  0  0  0  0  0  0  0  0  0  0  0
   -8.7694   -3.9886   -2.8683 C   0  0  0  0  0  0  0  0  0  0  0  0
   -7.6123   -3.2446   -2.9570 C   0  0  0  0  0  0  0  0  0  0  0  0
   -6.5628   -4.0867   -3.1227 N   0  0  0  0  0  0  0  0  0  0  0  0
   -5.1511   -3.7276   -3.3345 C   0  0  0  0  0  0  0  0  0  0  0  0
   -4.4248   -3.1841   -2.0904 C   0  0  0  0  0  0  0  0  0  0  0  0
   -3.2136   -2.7274   -2.5635 O   0  0  0  0  0  0  0  0  0  0  0  0
   -2.1649   -2.1604   -1.9222 C   0  0  0  0  0  0  0  0  0  0  0  0
   -1.9699   -2.2057   -0.5286 C   0  0  0  0  0  0  0  0  0  0  0  0
   -0.8326   -1.5906    0.0404 C   0  0  0  0  0  0  0  0  0  0  0  0
    0.1043   -0.9085   -0.7753 C   0  0  0  0  0  0  0  0  0  0  0  0
   -0.1238   -0.8846   -2.1666 C   0  0  0  0  0  0  0  0  0  0  0  0
   -1.2332   -1.5062   -2.7183 C   0  0  0  0  0  0  0  0  0  0  0  0
    1.3089   -0.2303   -0.1769 C   0  0  0  0  0  0  0  0  0  0  0  0
    1.6333   -0.4513    1.1298 N   0  0  0  0  0  0  0  0  0  0  0  0
    2.7160    0.1310    1.7209 C   0  0  0  0  0  0  0  0  0  0  0  0
    3.0127   -0.1453    3.0623 C   0  0  0  0  0  0  0  0  0  0  0  0
    4.1198    0.4497    3.6759 C   0  0  0  0  0  0  0  0  0  0  0  0
    4.9358    1.3248    2.9568 C   0  0  0  0  0  0  0  0  0  0  0  0
    4.6546    1.6088    1.6195 C   0  0  0  0  0  0  0  0  0  0  0  0
    3.5439    1.0136    0.9847 C   0  0  0  0  0  0  0  0  0  0  0  0
    3.2294    1.2712   -0.3649 C   0  0  0  0  0  0  0  0  0  0  0  0
    4.0573    2.2083   -1.2113 C   0  0  0  0  0  0  0  0  0  0  0  0
    2.1177    0.6442   -0.9368 C   0  0  0  0  0  0  0  0  0  0  0  0
   -7.5679   -1.8173   -2.9387 N   0  3  0  0  0  0  0  0  0  0  0  0
   -6.4426   -1.1706   -3.1512 O   0  5  0  0  0  0  0  0  0  0  0  0
   -8.5766   -1.1956   -2.8054 O   0  0  0  0  0  0  0  0  0  0  0  0
   -5.2936   -6.5351   -3.4061 H   0  0  0  0  0  0  0  0  0  0  0  0
   -6.6030   -7.2882   -2.4571 H   0  0  0  0  0  0  0  0  0  0  0  0
   -6.7615   -7.1295   -4.2467 H   0  0  0  0  0  0  0  0  0  0  0  0
   -9.7774   -3.6117   -2.7565 H   0  0  0  0  0  0  0  0  0  0  0  0
   -5.1094   -2.9896   -4.1638 H   0  0  0  0  0  0  0  0  0  0  0  0
   -4.5583   -4.5901   -3.6881 H   0  0  0  0  0  0  0  0  0  0  0  0
   -4.9741   -2.3425   -1.6231 H   0  0  0  0  0  0  0  0  0  0  0  0
   -4.2926   -3.9899   -1.3360 H   0  0  0  0  0  0  0  0  0  0  0  0
   -2.6788   -2.7158    0.1112 H   0  0  0  0  0  0  0  0  0  0  0  0
   -0.6926   -1.6369    1.1136 H   0  0  0  0  0  0  0  0  0  0  0  0
    0.5480   -0.4041   -2.8538 H   0  0  0  0  0  0  0  0  0  0  0  0
   -1.3788   -1.4729   -3.7907 H   0  0  0  0  0  0  0  0  0  0  0  0
    2.3875   -0.8221    3.6305 H   0  0  0  0  0  0  0  0  0  0  0  0
    4.3468    0.2335    4.7117 H   0  0  0  0  0  0  0  0  0  0  0  0
    5.7909    1.7851    3.4360 H   0  0  0  0  0  0  0  0  0  0  0  0
    5.3074    2.2902    1.0899 H   0  0  0  0  0  0  0  0  0  0  0  0
    3.6625    2.2919   -2.2467 H   0  0  0  0  0  0  0  0  0  0  0  0
    4.0489    3.2249   -0.7650 H   0  0  0  0  0  0  0  0  0  0  0  0
    5.1016    1.8380   -1.2771 H   0  0  0  0  0  0  0  0  0  0  0  0
    1.8949    0.8664   -1.9647 H   0  0  0  0  0  0  0  0  0  0  0  0
  1 30  1  0  0  0  0
  1 31  1  0  0  0  0
  1 32  1  0  0  0  0
  2  1  1  0  0  0  0
  3  2  2  0  0  0  0
  4  3  1  0  0  0  0
  4 33  1  0  0  0  0
  5  4  2  0  0  0  0
  6  5  1  0  0  0  0
  6  2  1  0  0  0  0
  7  6  1  0  0  0  0
  7 34  1  0  0  0  0
  7 35  1  0  0  0  0
  8  7  1  0  0  0  0
  8 36  1  0  0  0  0
  8 37  1  0  0  0  0
  9  8  1  0  0  0  0
 10  9  1  0  0  0  0
 11 10  2  0  0  0  0
 11 38  1  0  0  0  0
 12 11  1  0  0  0  0
 12 39  1  0  0  0  0
 13 12  2  0  0  0  0
 14 13  1  0  0  0  0
 14 40  1  0  0  0  0
 15 14  2  0  0  0  0
 15 10  1  0  0  0  0
 15 41  1  0  0  0  0
 16 13  1  0  0  0  0
 17 16  2  0  0  0  0
 18 17  1  0  0  0  0
 19 18  2  0  0  0  0
 19 42  1  0  0  0  0
 20 19  1  0  0  0  0
 20 43  1  0  0  0  0
 21 20  2  0  0  0  0
 21 44  1  0  0  0  0
 22 21  1  0  0  0  0
 22 45  1  0  0  0  0
 23 22  2  0  0  0  0
 23 18  1  0  0  0  0
 24 23  1  0  0  0  0
 25 24  1  0  0  0  0
 25 46  1  0  0  0  0
 25 47  1  0  0  0  0
 25 48  1  0  0  0  0
 26 24  2  0  0  0  0
 26 16  1  0  0  0  0
 26 49  1  0  0  0  0
 27  5  1  0  0  0  0
 28 27  1  0  0  0  0
 29 27  2  0  0  0  0
M  CHG  2  27   1  28  -1
M  END
>  <MOL Chiral Flag>
0

>  <energy>
81.827316948800373

$$$$
> 219_AKC_j.exppara.2019.04.003
>214.sdf
 OpenBabel10052220373D

 30 31  0  0  0  0  0  0  0  0999 V2000
    7.8357   -1.6009    0.9838 Cl  0  0  0  0  0  0  0  0  0  0  0  0
    6.0941   -1.5470    1.1900 C   0  0  0  0  0  0  0  0  0  0  0  0
    5.2566   -1.3885    0.0819 C   0  0  0  0  0  0  0  0  0  0  0  0
    3.8631   -1.3452    0.2425 C   0  0  0  0  0  0  0  0  0  0  0  0
    3.2930   -1.4614    1.5335 C   0  0  0  0  0  0  0  0  0  0  0  0
    1.8804   -1.4375    1.8057 N   0  0  0  0  0  0  0  0  0  0  0  0
    0.8350   -1.3147    0.9258 C   0  0  0  0  0  0  0  0  0  0  0  0
    1.0183   -1.1842   -0.2738 O   0  0  0  0  0  0  0  0  0  0  0  0
   -0.4331   -1.3653    1.4183 N   0  0  0  0  0  0  0  0  0  0  0  0
   -1.5536   -1.3050    0.6122 N   0  0  0  0  0  0  0  0  0  0  0  0
   -2.7024   -1.6025    1.1204 C   0  0  0  0  0  0  0  0  0  0  0  0
   -3.9601   -1.5730    0.3587 C   0  0  0  0  0  0  0  0  0  0  0  0
   -5.1657   -2.0174    0.8687 C   0  0  0  0  0  0  0  0  0  0  0  0
   -6.0965   -1.8285   -0.1227 C   0  0  0  0  0  0  0  0  0  0  0  0
   -5.4058   -1.2716   -1.1813 C   0  0  0  0  0  0  0  0  0  0  0  0
   -4.1306   -1.1341   -0.8707 O   0  0  0  0  0  0  0  0  0  0  0  0
   -5.9760   -0.8895   -2.4221 N   0  0  0  0  0  0  0  0  0  0  0  0
   -7.1441   -1.0453   -2.6200 O   0  0  0  0  0  0  0  0  0  0  0  0
   -5.2958   -0.3900   -3.2644 O   0  0  0  0  0  0  0  0  0  0  0  0
    4.1607   -1.6215    2.6335 C   0  0  0  0  0  0  0  0  0  0  0  0
    5.5436   -1.6637    2.4641 C   0  0  0  0  0  0  0  0  0  0  0  0
    5.6875   -1.2996   -0.9072 H   0  0  0  0  0  0  0  0  0  0  0  0
    3.2679   -1.2238   -0.6440 H   0  0  0  0  0  0  0  0  0  0  0  0
    1.6219   -1.5447    2.7988 H   0  0  0  0  0  0  0  0  0  0  0  0
   -0.5563   -1.4956    2.4353 H   0  0  0  0  0  0  0  0  0  0  0  0
   -2.7615   -1.9236    2.1572 H   0  0  0  0  0  0  0  0  0  0  0  0
   -5.3412   -2.4354    1.8515 H   0  0  0  0  0  0  0  0  0  0  0  0
   -7.1512   -2.0663   -0.0726 H   0  0  0  0  0  0  0  0  0  0  0  0
    3.7566   -1.7168    3.6341 H   0  0  0  0  0  0  0  0  0  0  0  0
    6.1857   -1.7884    3.3275 H   0  0  0  0  0  0  0  0  0  0  0  0
  2  1  1  0  0  0  0
  3  2  2  0  0  0  0
  3 22  1  0  0  0  0
  4  3  1  0  0  0  0
  4 23  1  0  0  0  0
  5  4  2  0  0  0  0
  6  5  1  0  0  0  0
  6 24  1  0  0  0  0
  7  6  1  0  0  0  0
  8  7  2  0  0  0  0
  9  7  1  0  0  0  0
  9 25  1  0  0  0  0
 10  9  1  0  0  0  0
 11 10  2  0  0  0  0
 11 26  1  0  0  0  0
 12 11  1  0  0  0  0
 13 12  2  0  0  0  0
 13 27  1  0  0  0  0
 14 13  1  0  0  0  0
 14 28  1  0  0  0  0
 15 14  2  0  0  0  0
 16 15  1  0  0  0  0
 16 12  1  0  0  0  0
 17 15  1  0  0  0  0
 18 17  2  0  0  0  0
 19 17  2  0  0  0  0
 20  5  1  0  0  0  0
 20 29  1  0  0  0  0
 21 20  2  0  0  0  0
 21  2  1  0  0  0  0
 21 30  1  0  0  0  0
M  END
>  <MOL Chiral Flag>
0

>  <energy>
89.578027347840859

$$$$
> 220_AKC_ardp.201800299
>215.sdf
 OpenBabel10052220383D

 46 49  0  0  0  0  0  0  0  0999 V2000
  -11.4091   -8.5810    2.0175 F   0  0  0  0  0  0  0  0  0  0  0  0
  -10.6719   -7.5749    1.4841 C   0  0  0  0  0  0  0  0  0  0  0  0
   -9.5620   -7.0692    2.1734 C   0  0  0  0  0  0  0  0  0  0  0  0
   -8.7792   -6.0461    1.6086 C   0  0  0  0  0  0  0  0  0  0  0  0
   -9.1111   -5.5319    0.3426 C   0  0  0  0  0  0  0  0  0  0  0  0
   -8.2581   -4.5730   -0.4015 C   0  0  0  0  0  0  0  0  0  0  0  0
   -7.1286   -4.1004    0.0131 N   0  0  0  0  0  0  0  0  0  0  0  0
   -6.2475   -3.7523   -0.9812 N   0  0  0  0  0  0  0  0  0  0  0  0
   -5.2815   -2.8999   -1.0492 C   0  0  0  0  0  0  0  0  0  0  0  0
   -4.9880   -1.9751   -0.0776 N   0  0  0  0  0  0  0  0  0  0  0  0
   -3.9636   -1.1086   -0.2324 N   0  0  0  0  0  0  0  0  0  0  0  0
   -3.1645   -1.1344   -1.3547 C   0  0  0  0  0  0  0  0  0  0  0  0
   -2.1744   -0.3232   -1.5394 N   0  0  0  0  0  0  0  0  0  0  0  0
   -1.7351    0.6714   -0.6986 N   0  0  0  0  0  0  0  0  0  0  0  0
   -0.7814    1.4287   -1.1345 C   0  0  0  0  0  0  0  0  0  0  0  0
   -0.1650    2.5223   -0.3497 C   0  0  0  0  0  0  0  0  0  0  0  0
   -0.5473    2.8016    0.9713 C   0  0  0  0  0  0  0  0  0  0  0  0
    0.0746    3.8416    1.6758 C   0  0  0  0  0  0  0  0  0  0  0  0
    1.0757    4.6072    1.0674 C   0  0  0  0  0  0  0  0  0  0  0  0
    1.6747    5.6126    1.7525 F   0  0  0  0  0  0  0  0  0  0  0  0
    1.4599    4.3354   -0.2465 C   0  0  0  0  0  0  0  0  0  0  0  0
    0.8455    3.2981   -0.9524 C   0  0  0  0  0  0  0  0  0  0  0  0
   -3.4213   -2.0796   -2.3585 C   0  0  0  0  0  0  0  0  0  0  0  0
   -4.4953   -2.9581   -2.2061 C   0  0  0  0  0  0  0  0  0  0  0  0
   -4.7596   -3.9188   -3.2139 C   0  0  0  0  0  0  0  0  0  0  0  0
   -3.9551   -4.0014   -4.3428 C   0  0  0  0  0  0  0  0  0  0  0  0
   -2.8816   -3.1318   -4.4952 C   0  0  0  0  0  0  0  0  0  0  0  0
   -2.6132   -2.1717   -3.5180 C   0  0  0  0  0  0  0  0  0  0  0  0
  -10.2372   -6.0454   -0.3310 C   0  0  0  0  0  0  0  0  0  0  0  0
  -11.0114   -7.0563    0.2361 C   0  0  0  0  0  0  0  0  0  0  0  0
   -9.2968   -7.4890    3.1347 H   0  0  0  0  0  0  0  0  0  0  0  0
   -7.9035   -5.6940    2.1366 H   0  0  0  0  0  0  0  0  0  0  0  0
   -8.4889   -4.4857   -1.4627 H   0  0  0  0  0  0  0  0  0  0  0  0
   -5.5734   -1.9243    0.7878 H   0  0  0  0  0  0  0  0  0  0  0  0
   -3.7761   -0.4050    0.5188 H   0  0  0  0  0  0  0  0  0  0  0  0
   -0.3918    1.2564   -2.1381 H   0  0  0  0  0  0  0  0  0  0  0  0
   -1.3173    2.2163    1.4551 H   0  0  0  0  0  0  0  0  0  0  0  0
   -0.2188    4.0535    2.6949 H   0  0  0  0  0  0  0  0  0  0  0  0
    2.2352    4.9269   -0.7194 H   0  0  0  0  0  0  0  0  0  0  0  0
    1.1582    3.0996   -1.9716 H   0  0  0  0  0  0  0  0  0  0  0  0
   -5.5834   -4.6170   -3.1240 H   0  0  0  0  0  0  0  0  0  0  0  0
   -4.1651   -4.7482   -5.0967 H   0  0  0  0  0  0  0  0  0  0  0  0
   -2.2537   -3.2038   -5.3721 H   0  0  0  0  0  0  0  0  0  0  0  0
   -1.7684   -1.5118   -3.6656 H   0  0  0  0  0  0  0  0  0  0  0  0
  -10.4988   -5.6804   -1.3176 H   0  0  0  0  0  0  0  0  0  0  0  0
  -11.8618   -7.4516   -0.3071 H   0  0  0  0  0  0  0  0  0  0  0  0
  2  1  1  0  0  0  0
  3  2  2  0  0  0  0
  3 31  1  0  0  0  0
  4  3  1  0  0  0  0
  4 32  1  0  0  0  0
  5  4  2  0  0  0  0
  6  5  1  0  0  0  0
  6 33  1  0  0  0  0
  7  6  2  0  0  0  0
  8  7  1  0  0  0  0
  9  8  2  0  0  0  0
 10  9  1  0  0  0  0
 10 34  1  0  0  0  0
 11 10  1  0  0  0  0
 11 35  1  0  0  0  0
 12 11  1  0  0  0  0
 13 12  2  0  0  0  0
 14 13  1  0  0  0  0
 15 14  2  0  0  0  0
 15 36  1  0  0  0  0
 16 15  1  0  0  0  0
 17 16  2  0  0  0  0
 17 37  1  0  0  0  0
 18 17  1  0  0  0  0
 18 38  1  0  0  0  0
 19 18  2  0  0  0  0
 20 19  1  0  0  0  0
 21 19  1  0  0  0  0
 21 39  1  0  0  0  0
 22 21  2  0  0  0  0
 22 16  1  0  0  0  0
 22 40  1  0  0  0  0
 23 12  1  0  0  0  0
 24 23  2  0  0  0  0
 24  9  1  0  0  0  0
 25 24  1  0  0  0  0
 25 41  1  0  0  0  0
 26 25  2  0  0  0  0
 26 42  1  0  0  0  0
 27 26  1  0  0  0  0
 27 43  1  0  0  0  0
 28 27  2  0  0  0  0
 28 23  1  0  0  0  0
 28 44  1  0  0  0  0
 29  5  1  0  0  0  0
 29 45  1  0  0  0  0
 30 29  2  0  0  0  0
 30  2  1  0  0  0  0
 30 46  1  0  0  0  0
M  END
>  <MOL Chiral Flag>
0

>  <energy>
137.77024828425377

$$$$
> 221_AKC_j.bbamem.2019.03.006
>216.sdf
 OpenBabel10052220393D

 42 41  0  0  0  0  0  0  0  0999 V2000
   -5.0814    6.0439   -1.6949 C   0  0  0  0  0  0  0  0  0  0  0  0
   -4.6276    4.6062   -1.7235 C   0  0  0  0  0  0  0  0  0  0  0  0
   -5.6473    3.5163   -1.9783 C   0  0  0  0  0  0  0  0  0  0  0  0
   -3.3181    4.3187   -1.5239 C   0  0  0  0  0  0  0  0  0  0  0  0
   -2.7785    2.9063   -1.5822 C   0  0  0  0  0  0  0  0  0  0  0  0
   -1.2575    2.8148   -1.2998 C   0  0  0  0  0  0  0  0  0  0  0  0
   -0.6538    1.4128   -1.4712 C   0  0  0  0  0  0  0  0  0  0  0  0
   -1.5609    0.2892   -1.9625 C   0  0  0  0  0  0  0  0  0  0  0  0
    0.6683    1.2286   -1.1607 C   0  0  0  0  0  0  0  0  0  0  0  0
    1.4413   -0.0883   -1.2674 C   0  0  0  0  0  0  0  0  0  0  0  0
    1.7482   -0.6377    0.1459 C   0  0  0  0  0  0  0  0  0  0  0  0
    2.0987   -2.1648    0.3031 C   0  0  2  0  0  0  0  0  0  0  0  0
    1.0262   -3.0206   -0.3991 C   0  0  0  0  0  0  0  0  0  0  0  0
    2.0264   -2.4698    1.6750 O   0  0  0  0  0  0  0  0  0  0  0  0
    3.4515   -2.6630   -0.1969 C   0  0  0  0  0  0  0  0  0  0  0  0
    4.4083   -1.9060   -0.7370 C   0  0  0  0  0  0  0  0  0  0  0  0
   -4.8548    6.4973   -0.7076 H   0  0  0  0  0  0  0  0  0  0  0  0
   -4.5574    6.6161   -2.4898 H   0  0  0  0  0  0  0  0  0  0  0  0
   -6.1737    6.1360   -1.8750 H   0  0  0  0  0  0  0  0  0  0  0  0
   -5.6888    2.8271   -1.1088 H   0  0  0  0  0  0  0  0  0  0  0  0
   -6.6664    3.9334   -2.1229 H   0  0  0  0  0  0  0  0  0  0  0  0
   -5.3828    2.9443   -2.8913 H   0  0  0  0  0  0  0  0  0  0  0  0
   -2.6242    5.1343   -1.3323 H   0  0  0  0  0  0  0  0  0  0  0  0
   -2.9888    2.5277   -2.6038 H   0  0  0  0  0  0  0  0  0  0  0  0
   -3.3174    2.2846   -0.8344 H   0  0  0  0  0  0  0  0  0  0  0  0
   -1.0890    3.1569   -0.2541 H   0  0  0  0  0  0  0  0  0  0  0  0
   -0.7195    3.5044   -1.9860 H   0  0  0  0  0  0  0  0  0  0  0  0
   -1.1305   -0.7173   -2.0409 H   0  0  0  0  0  0  0  0  0  0  0  0
   -2.4165    0.1788   -1.2662 H   0  0  0  0  0  0  0  0  0  0  0  0
   -1.9415    0.5414   -2.9731 H   0  0  0  0  0  0  0  0  0  0  0  0
    1.2241    2.0811   -0.7755 H   0  0  0  0  0  0  0  0  0  0  0  0
    2.3641    0.0470   -1.8683 H   0  0  0  0  0  0  0  0  0  0  0  0
    0.8594   -0.8227   -1.8187 H   0  0  0  0  0  0  0  0  0  0  0  0
    0.8032   -0.5162    0.7207 H   0  0  0  0  0  0  0  0  0  0  0  0
    2.5086    0.0032    0.6456 H   0  0  0  0  0  0  0  0  0  0  0  0
    1.1615   -4.0954   -0.1527 H   0  0  0  0  0  0  0  0  0  0  0  0
    0.0073   -2.7191   -0.0742 H   0  0  0  0  0  0  0  0  0  0  0  0
    1.0960   -2.9383   -1.5042 H   0  0  0  0  0  0  0  0  0  0  0  0
    2.7379   -1.9550    2.1404 H   0  0  0  0  0  0  0  0  0  0  0  0
    3.6586   -3.7260   -0.0804 H   0  0  0  0  0  0  0  0  0  0  0  0
    5.3406   -2.3764   -1.0417 H   0  0  0  0  0  0  0  0  0  0  0  0
    4.2930   -0.8411   -0.8702 H   0  0  0  0  0  0  0  0  0  0  0  0
  1 17  1  0  0  0  0
  1 18  1  0  0  0  0
  1 19  1  0  0  0  0
  2  1  1  0  0  0  0
  3  2  1  0  0  0  0
  3 20  1  0  0  0  0
  3 21  1  0  0  0  0
  3 22  1  0  0  0  0
  4  2  2  0  0  0  0
  4 23  1  0  0  0  0
  5  4  1  0  0  0  0
  5 24  1  0  0  0  0
  5 25  1  0  0  0  0
  6  5  1  0  0  0  0
  6 26  1  0  0  0  0
  6 27  1  0  0  0  0
  7  6  1  0  0  0  0
  8  7  1  0  0  0  0
  8 28  1  0  0  0  0
  8 29  1  0  0  0  0
  8 30  1  0  0  0  0
  9  7  2  0  0  0  0
  9 31  1  0  0  0  0
 10  9  1  0  0  0  0
 10 32  1  0  0  0  0
 10 33  1  0  0  0  0
 11 10  1  0  0  0  0
 11 34  1  0  0  0  0
 11 35  1  0  0  0  0
 12 11  1  6  0  0  0
 13 12  1  0  0  0  0
 13 36  1  0  0  0  0
 13 37  1  0  0  0  0
 13 38  1  0  0  0  0
 14 12  1  0  0  0  0
 14 39  1  0  0  0  0
 15 12  1  0  0  0  0
 15 40  1  0  0  0  0
 16 15  2  0  0  0  0
 16 41  1  0  0  0  0
 16 42  1  0  0  0  0
M  END
>  <MOL Chiral Flag>
0

>  <energy>
34.627388363591422

$$$$
> 222_AKC_j.ejmech.2019.03.032
>217.sdf
 OpenBabel10052220393D

 45 47  0  0  0  0  0  0  0  0999 V2000
    3.8444    6.3778    1.0362 I   0  0  0  0  0  0  0  0  0  0  0  0
    2.9549    4.4701    1.1654 C   0  0  0  0  0  0  0  0  0  0  0  0
    2.9339    3.7880    2.3840 C   0  0  0  0  0  0  0  0  0  0  0  0
    2.3552    2.5181    2.4686 C   0  0  0  0  0  0  0  0  0  0  0  0
    1.7946    1.9092    1.3312 C   0  0  0  0  0  0  0  0  0  0  0  0
    1.2663    0.5797    1.4417 N   0  0  0  0  0  0  0  0  0  0  0  0
    1.0326   -0.2256    0.2837 C   0  0  0  0  0  0  0  0  0  0  0  0
    1.9657   -1.2894    0.0461 N   0  0  0  0  0  0  0  0  0  0  0  0
    2.0527   -2.0589   -1.1809 C   0  0  0  0  0  0  0  0  0  0  0  0
    1.2057   -3.2978   -1.1026 C   0  0  0  0  0  0  0  0  0  0  0  0
    1.4453   -4.2411   -0.0879 C   0  0  0  0  0  0  0  0  0  0  0  0
    0.6923   -5.4163   -0.0264 C   0  0  0  0  0  0  0  0  0  0  0  0
   -0.3035   -5.6588   -0.9756 C   0  0  0  0  0  0  0  0  0  0  0  0
   -0.5499   -4.7239   -1.9862 C   0  0  0  0  0  0  0  0  0  0  0  0
    0.2018   -3.5451   -2.0521 C   0  0  0  0  0  0  0  0  0  0  0  0
    0.0541    0.0218   -0.5553 N   0  0  0  0  0  0  0  0  0  0  0  0
   -0.9182    0.9838   -0.3790 C   0  0  0  0  0  0  0  0  0  0  0  0
   -0.9849    1.6107    0.6703 O   0  0  0  0  0  0  0  0  0  0  0  0
   -1.9330    1.2889   -1.4485 C   0  0  0  0  0  0  0  0  0  0  0  0
   -1.8247    0.7821   -2.7656 C   0  0  0  0  0  0  0  0  0  0  0  0
   -2.7720    1.1214   -3.7372 C   0  0  0  0  0  0  0  0  0  0  0  0
   -3.8385    1.9611   -3.4190 C   0  0  0  0  0  0  0  0  0  0  0  0
   -3.9625    2.4696   -2.1268 C   0  0  0  0  0  0  0  0  0  0  0  0
   -3.0181    2.1425   -1.1486 C   0  0  0  0  0  0  0  0  0  0  0  0
    1.8267    2.6090    0.1028 C   0  0  0  0  0  0  0  0  0  0  0  0
    2.3980    3.8819    0.0284 C   0  0  0  0  0  0  0  0  0  0  0  0
    3.3742    4.2378    3.2643 H   0  0  0  0  0  0  0  0  0  0  0  0
    2.3598    1.9981    3.4183 H   0  0  0  0  0  0  0  0  0  0  0  0
    1.5157    0.0757    2.3062 H   0  0  0  0  0  0  0  0  0  0  0  0
    2.7694   -1.3496    0.6897 H   0  0  0  0  0  0  0  0  0  0  0  0
    3.1025   -2.4034   -1.3037 H   0  0  0  0  0  0  0  0  0  0  0  0
    1.8478   -1.4243   -2.0688 H   0  0  0  0  0  0  0  0  0  0  0  0
    2.2221   -4.0675    0.6472 H   0  0  0  0  0  0  0  0  0  0  0  0
    0.8858   -6.1416    0.7537 H   0  0  0  0  0  0  0  0  0  0  0  0
   -0.8816   -6.5727   -0.9296 H   0  0  0  0  0  0  0  0  0  0  0  0
   -1.3194   -4.9163   -2.7221 H   0  0  0  0  0  0  0  0  0  0  0  0
    0.0086   -2.8328   -2.8443 H   0  0  0  0  0  0  0  0  0  0  0  0
   -1.0107    0.1452   -3.0694 H   0  0  0  0  0  0  0  0  0  0  0  0
   -2.6732    0.7357   -4.7439 H   0  0  0  0  0  0  0  0  0  0  0  0
   -4.5669    2.2218   -4.1764 H   0  0  0  0  0  0  0  0  0  0  0  0
   -4.7902    3.1234   -1.8828 H   0  0  0  0  0  0  0  0  0  0  0  0
   -3.1370    2.5569   -0.1554 H   0  0  0  0  0  0  0  0  0  0  0  0
    1.4266    2.1786   -0.8019 H   0  0  0  0  0  0  0  0  0  0  0  0
    2.4180    4.4063   -0.9183 H   0  0  0  0  0  0  0  0  0  0  0  0
   -0.0099   -0.5609   -1.3920 H   0  0  0  0  0  0  0  0  0  0  0  0
  2  1  1  0  0  0  0
  3  2  2  0  0  0  0
  3 27  1  0  0  0  0
  4  3  1  0  0  0  0
  4 28  1  0  0  0  0
  5  4  2  0  0  0  0
  6  5  1  0  0  0  0
  6 29  1  0  0  0  0
  7  6  1  0  0  0  0
  8  7  1  0  0  0  0
  8 30  1  0  0  0  0
  9  8  1  0  0  0  0
  9 31  1  0  0  0  0
  9 32  1  0  0  0  0
 10  9  1  0  0  0  0
 11 10  2  0  0  0  0
 11 33  1  0  0  0  0
 12 11  1  0  0  0  0
 12 34  1  0  0  0  0
 13 12  2  0  0  0  0
 13 35  1  0  0  0  0
 14 13  1  0  0  0  0
 14 36  1  0  0  0  0
 15 14  2  0  0  0  0
 15 10  1  0  0  0  0
 15 37  1  0  0  0  0
 16  7  2  0  0  0  0
 16 45  1  0  0  0  0
 17 16  1  0  0  0  0
 18 17  2  0  0  0  0
 19 17  1  0  0  0  0
 20 19  2  0  0  0  0
 20 38  1  0  0  0  0
 21 20  1  0  0  0  0
 21 39  1  0  0  0  0
 22 21  2  0  0  0  0
 22 40  1  0  0  0  0
 23 22  1  0  0  0  0
 23 41  1  0  0  0  0
 24 23  2  0  0  0  0
 24 19  1  0  0  0  0
 24 42  1  0  0  0  0
 25  5  1  0  0  0  0
 25 43  1  0  0  0  0
 26 25  2  0  0  0  0
 26  2  1  0  0  0  0
 26 44  1  0  0  0  0
M  END
>  <MOL Chiral Flag>
0

>  <energy>
-0.089374255589476093

$$$$
> 223_AKC_j.ejmech.2019.03.007
>218.sdf
 OpenBabel10052220403D

 55 57  0  0  0  0  0  0  0  0999 V2000
    5.2506   -1.9409    7.4024 C   0  0  0  0  0  0  0  0  0  0  0  0
    5.1353   -0.4805    7.5664 N   0  3  0  0  0  0  0  0  0  0  0  0
    5.6457   -0.0852    8.8903 C   0  0  0  0  0  0  0  0  0  0  0  0
    3.7255   -0.0418    7.4014 C   0  0  0  0  0  0  0  0  0  0  0  0
    3.3222    0.0351    5.9439 C   0  0  0  0  0  0  0  0  0  0  0  0
    2.4273   -0.6778    5.5139 O   0  0  0  0  0  0  0  0  0  0  0  0
    3.9473    0.9312    5.1370 N   0  0  0  0  0  0  0  0  0  0  0  0
    3.6464    1.1346    3.7332 C   0  0  0  0  0  0  0  0  0  0  0  0
    2.2191    1.6707    3.4803 C   0  0  0  0  0  0  0  0  0  0  0  0
    2.2600    2.4321    2.2451 N   0  0  0  0  0  0  0  0  0  0  0  0
    1.5351    2.1608    1.0384 C   0  0  0  0  0  0  0  0  0  0  0  0
    0.3102    1.4562    1.0541 C   0  0  0  0  0  0  0  0  0  0  0  0
   -0.3929    1.2413   -0.1468 C   0  0  0  0  0  0  0  0  0  0  0  0
   -1.7118    0.5548   -0.1512 C   0  0  0  0  0  0  0  0  0  0  0  0
   -2.3387    0.2573   -1.3130 C   0  0  0  0  0  0  0  0  0  0  0  0
   -3.6743   -0.3981   -1.4220 C   0  0  0  0  0  0  0  0  0  0  0  0
   -4.5218   -0.6037   -0.3124 C   0  0  0  0  0  0  0  0  0  0  0  0
   -5.7723   -1.2095   -0.4834 C   0  0  0  0  0  0  0  0  0  0  0  0
   -6.1880   -1.6220   -1.7511 C   0  0  0  0  0  0  0  0  0  0  0  0
   -5.3581   -1.4252   -2.8550 C   0  0  0  0  0  0  0  0  0  0  0  0
   -4.1120   -0.8125   -2.6947 C   0  0  0  0  0  0  0  0  0  0  0  0
    0.1220    1.7006   -1.3176 N   0  0  0  0  0  0  0  0  0  0  0  0
    1.2923    2.3762   -1.3857 C   0  0  0  0  0  0  0  0  0  0  0  0
    1.7574    2.8177   -2.6309 C   0  0  0  0  0  0  0  0  0  0  0  0
    2.9639    3.5095   -2.7271 C   0  0  0  0  0  0  0  0  0  0  0  0
    3.7156    3.7618   -1.5832 C   0  0  0  0  0  0  0  0  0  0  0  0
    3.2660    3.3309   -0.3348 C   0  0  0  0  0  0  0  0  0  0  0  0
    2.0366    2.6335   -0.2110 C   0  0  0  0  0  0  0  0  0  0  0  0
    4.8962   -2.2528    6.3968 H   0  0  0  0  0  0  0  0  0  0  0  0
    6.3112   -2.2625    7.5000 H   0  0  0  0  0  0  0  0  0  0  0  0
    4.6522   -2.4767    8.1737 H   0  0  0  0  0  0  0  0  0  0  0  0
    5.7508   -0.0173    6.8570 H   0  0  0  0  0  0  0  0  0  0  0  0
    5.6414    1.0236    8.9883 H   0  0  0  0  0  0  0  0  0  0  0  0
    6.7015   -0.4144    9.0168 H   0  0  0  0  0  0  0  0  0  0  0  0
    5.0307   -0.5201    9.7079 H   0  0  0  0  0  0  0  0  0  0  0  0
    3.0422   -0.7117    7.9710 H   0  0  0  0  0  0  0  0  0  0  0  0
    3.5870    0.9861    7.8068 H   0  0  0  0  0  0  0  0  0  0  0  0
    4.6895    1.5204    5.5456 H   0  0  0  0  0  0  0  0  0  0  0  0
    3.8386    0.2208    3.1297 H   0  0  0  0  0  0  0  0  0  0  0  0
    4.3720    1.9056    3.3886 H   0  0  0  0  0  0  0  0  0  0  0  0
    1.9376    2.3808    4.2871 H   0  0  0  0  0  0  0  0  0  0  0  0
    1.4957    0.8304    3.4766 H   0  0  0  0  0  0  0  0  0  0  0  0
    2.9210    3.2158    2.2512 H   0  0  0  0  0  0  0  0  0  0  0  0
   -0.1140    1.1033    1.9840 H   0  0  0  0  0  0  0  0  0  0  0  0
   -2.1584    0.2989    0.8010 H   0  0  0  0  0  0  0  0  0  0  0  0
   -1.8408    0.4994   -2.2482 H   0  0  0  0  0  0  0  0  0  0  0  0
   -4.2378   -0.2896    0.6798 H   0  0  0  0  0  0  0  0  0  0  0  0
   -6.4219   -1.3572    0.3695 H   0  0  0  0  0  0  0  0  0  0  0  0
   -7.1548   -2.0922   -1.8785 H   0  0  0  0  0  0  0  0  0  0  0  0
   -5.6809   -1.7457   -3.8377 H   0  0  0  0  0  0  0  0  0  0  0  0
   -3.4831   -0.6667   -3.5649 H   0  0  0  0  0  0  0  0  0  0  0  0
    1.1823    2.6216   -3.5270 H   0  0  0  0  0  0  0  0  0  0  0  0
    3.3211    3.8470   -3.6909 H   0  0  0  0  0  0  0  0  0  0  0  0
    4.6563    4.2920   -1.6606 H   0  0  0  0  0  0  0  0  0  0  0  0
    3.9032    3.5467    0.5047 H   0  0  0  0  0  0  0  0  0  0  0  0
  1 29  1  0  0  0  0
  1 30  1  0  0  0  0
  1 31  1  0  0  0  0
  2  1  1  0  0  0  0
  2 32  1  0  0  0  0
  3  2  1  0  0  0  0
  3 33  1  0  0  0  0
  3 34  1  0  0  0  0
  3 35  1  0  0  0  0
  4  2  1  0  0  0  0
  4 36  1  0  0  0  0
  4 37  1  0  0  0  0
  5  4  1  0  0  0  0
  6  5  2  0  0  0  0
  7  5  1  0  0  0  0
  7 38  1  0  0  0  0
  8  7  1  0  0  0  0
  8 39  1  0  0  0  0
  8 40  1  0  0  0  0
  9  8  1  0  0  0  0
  9 41  1  0  0  0  0
  9 42  1  0  0  0  0
 10  9  1  0  0  0  0
 10 43  1  0  0  0  0
 11 10  1  0  0  0  0
 12 11  2  0  0  0  0
 12 44  1  0  0  0  0
 13 12  1  0  0  0  0
 14 13  1  0  0  0  0
 14 45  1  0  0  0  0
 15 14  2  0  0  0  0
 15 46  1  0  0  0  0
 16 15  1  0  0  0  0
 17 16  2  0  0  0  0
 17 47  1  0  0  0  0
 18 17  1  0  0  0  0
 18 48  1  0  0  0  0
 19 18  2  0  0  0  0
 19 49  1  0  0  0  0
 20 19  1  0  0  0  0
 20 50  1  0  0  0  0
 21 20  2  0  0  0  0
 21 16  1  0  0  0  0
 21 51  1  0  0  0  0
 22 13  2  0  0  0  0
 23 22  1  0  0  0  0
 24 23  2  0  0  0  0
 24 52  1  0  0  0  0
 25 24  1  0  0  0  0
 25 53  1  0  0  0  0
 26 25  2  0  0  0  0
 26 54  1  0  0  0  0
 27 26  1  0  0  0  0
 27 55  1  0  0  0  0
 28 27  2  0  0  0  0
 28 11  1  0  0  0  0
 28 23  1  0  0  0  0
M  CHG  1   2   1
M  END
>  <MOL Chiral Flag>
0

>  <energy>
109.2510803225002

$$$$
> 224_AKC_j.ejmech.2019.03.007
>219.sdf
 OpenBabel10052220403D

 58 61  0  0  0  0  0  0  0  0999 V2000
   10.9900   -1.1940   -5.3927 Cl  0  0  0  0  0  0  0  0  0  0  0  0
    9.3775   -1.0892   -4.7110 C   0  0  0  0  0  0  0  0  0  0  0  0
    8.2802   -0.8660   -5.5416 C   0  0  0  0  0  0  0  0  0  0  0  0
    6.9904   -0.7723   -5.0060 C   0  0  0  0  0  0  0  0  0  0  0  0
    5.6575   -0.4750   -6.1194 Cl  0  0  0  0  0  0  0  0  0  0  0  0
    6.7844   -0.9015   -3.6088 C   0  0  0  0  0  0  0  0  0  0  0  0
    5.4571   -0.7621   -3.0709 N   0  0  0  0  0  0  0  0  0  0  0  0
    5.1319   -0.7458   -1.6571 C   0  0  0  0  0  0  0  0  0  0  0  0
    4.0044   -1.6900   -1.3351 C   0  0  0  0  0  0  0  0  0  0  0  0
    4.1409   -2.8926   -1.5077 O   0  0  0  0  0  0  0  0  0  0  0  0
    2.8701   -1.1888   -0.7820 N   0  0  0  0  0  0  0  0  0  0  0  0
    1.7877   -1.9985   -0.2709 C   0  0  0  0  0  0  0  0  0  0  0  0
    0.9617   -2.7427   -1.3445 C   0  0  0  0  0  0  0  0  0  0  0  0
   -0.2199   -3.2856   -0.6863 N   0  0  0  0  0  0  0  0  0  0  0  0
   -1.0984   -2.3916    0.0077 C   0  0  0  0  0  0  0  0  0  0  0  0
   -1.4787   -1.1865   -0.6063 C   0  0  0  0  0  0  0  0  0  0  0  0
   -2.2113   -0.2303    0.0973 C   0  0  0  0  0  0  0  0  0  0  0  0
   -2.5573    1.0472   -0.5686 C   0  0  0  0  0  0  0  0  0  0  0  0
   -3.0469    2.1026    0.1103 C   0  0  0  0  0  0  0  0  0  0  0  0
   -3.3705    3.4183   -0.5177 C   0  0  0  0  0  0  0  0  0  0  0  0
   -3.3892    3.6194   -1.9173 C   0  0  0  0  0  0  0  0  0  0  0  0
   -3.6992    4.8766   -2.4458 C   0  0  0  0  0  0  0  0  0  0  0  0
   -3.9858    5.9454   -1.5958 C   0  0  0  0  0  0  0  0  0  0  0  0
   -3.9687    5.7604   -0.2127 C   0  0  0  0  0  0  0  0  0  0  0  0
   -3.6681    4.5049    0.3244 C   0  0  0  0  0  0  0  0  0  0  0  0
   -2.5545   -0.4646    1.3928 N   0  0  0  0  0  0  0  0  0  0  0  0
   -2.2165   -1.6175    2.0299 C   0  0  0  0  0  0  0  0  0  0  0  0
   -2.5578   -1.7857    3.3767 C   0  0  0  0  0  0  0  0  0  0  0  0
   -2.1763   -2.9415    4.0594 C   0  0  0  0  0  0  0  0  0  0  0  0
   -1.4534   -3.9379    3.4023 C   0  0  0  0  0  0  0  0  0  0  0  0
   -1.1033   -3.7861    2.0580 C   0  0  0  0  0  0  0  0  0  0  0  0
   -1.4822   -2.6251    1.3509 C   0  0  0  0  0  0  0  0  0  0  0  0
    7.9155   -1.1330   -2.7844 C   0  0  0  0  0  0  0  0  0  0  0  0
    9.1932   -1.2245   -3.3376 C   0  0  0  0  0  0  0  0  0  0  0  0
    8.4291   -0.7585   -6.6084 H   0  0  0  0  0  0  0  0  0  0  0  0
    4.6815   -0.5494   -3.7138 H   0  0  0  0  0  0  0  0  0  0  0  0
    4.8322    0.2914   -1.3967 H   0  0  0  0  0  0  0  0  0  0  0  0
    5.9691   -1.0009   -0.9943 H   0  0  0  0  0  0  0  0  0  0  0  0
    2.8047   -0.1710   -0.6268 H   0  0  0  0  0  0  0  0  0  0  0  0
    1.1217   -1.2909    0.2639 H   0  0  0  0  0  0  0  0  0  0  0  0
    2.1657   -2.7182    0.4881 H   0  0  0  0  0  0  0  0  0  0  0  0
    0.6630   -2.0623   -2.1677 H   0  0  0  0  0  0  0  0  0  0  0  0
    1.5698   -3.5613   -1.7853 H   0  0  0  0  0  0  0  0  0  0  0  0
   -0.2402   -4.2977   -0.5025 H   0  0  0  0  0  0  0  0  0  0  0  0
   -1.1853   -0.9788   -1.6267 H   0  0  0  0  0  0  0  0  0  0  0  0
   -2.3591    1.1223   -1.6296 H   0  0  0  0  0  0  0  0  0  0  0  0
   -3.1824    2.0127    1.1847 H   0  0  0  0  0  0  0  0  0  0  0  0
   -3.1793    2.8197   -2.6097 H   0  0  0  0  0  0  0  0  0  0  0  0
   -3.7174    5.0215   -3.5185 H   0  0  0  0  0  0  0  0  0  0  0  0
   -4.2219    6.9174   -2.0094 H   0  0  0  0  0  0  0  0  0  0  0  0
   -4.1882    6.5911    0.4453 H   0  0  0  0  0  0  0  0  0  0  0  0
   -3.6565    4.3818    1.4005 H   0  0  0  0  0  0  0  0  0  0  0  0
   -3.1044   -1.0108    3.8997 H   0  0  0  0  0  0  0  0  0  0  0  0
   -2.4322   -3.0613    5.1041 H   0  0  0  0  0  0  0  0  0  0  0  0
   -1.1520   -4.8280    3.9394 H   0  0  0  0  0  0  0  0  0  0  0  0
   -0.5286   -4.5731    1.5951 H   0  0  0  0  0  0  0  0  0  0  0  0
    7.8476   -1.2398   -1.7179 H   0  0  0  0  0  0  0  0  0  0  0  0
   10.0446   -1.3960   -2.6907 H   0  0  0  0  0  0  0  0  0  0  0  0
  2  1  1  0  0  0  0
  3  2  2  0  0  0  0
  3 35  1  0  0  0  0
  4  3  1  0  0  0  0
  5  4  1  0  0  0  0
  6  4  2  0  0  0  0
  7  6  1  0  0  0  0
  7 36  1  0  0  0  0
  8  7  1  0  0  0  0
  8 37  1  0  0  0  0
  8 38  1  0  0  0  0
  9  8  1  0  0  0  0
 10  9  2  0  0  0  0
 11  9  1  0  0  0  0
 11 39  1  0  0  0  0
 12 11  1  0  0  0  0
 12 40  1  0  0  0  0
 12 41  1  0  0  0  0
 13 12  1  0  0  0  0
 13 42  1  0  0  0  0
 13 43  1  0  0  0  0
 14 13  1  0  0  0  0
 14 44  1  0  0  0  0
 15 14  1  0  0  0  0
 16 15  2  0  0  0  0
 16 45  1  0  0  0  0
 17 16  1  0  0  0  0
 18 17  1  0  0  0  0
 18 46  1  0  0  0  0
 19 18  2  0  0  0  0
 19 47  1  0  0  0  0
 20 19  1  0  0  0  0
 21 20  2  0  0  0  0
 21 48  1  0  0  0  0
 22 21  1  0  0  0  0
 22 49  1  0  0  0  0
 23 22  2  0  0  0  0
 23 50  1  0  0  0  0
 24 23  1  0  0  0  0
 24 51  1  0  0  0  0
 25 24  2  0  0  0  0
 25 20  1  0  0  0  0
 25 52  1  0  0  0  0
 26 17  2  0  0  0  0
 27 26  1  0  0  0  0
 28 27  2  0  0  0  0
 28 53  1  0  0  0  0
 29 28  1  0  0  0  0
 29 54  1  0  0  0  0
 30 29  2  0  0  0  0
 30 55  1  0  0  0  0
 31 30  1  0  0  0  0
 31 56  1  0  0  0  0
 32 31  2  0  0  0  0
 32 15  1  0  0  0  0
 32 27  1  0  0  0  0
 33  6  1  0  0  0  0
 33 57  1  0  0  0  0
 34 33  2  0  0  0  0
 34  2  1  0  0  0  0
 34 58  1  0  0  0  0
M  END
>  <MOL Chiral Flag>
0

>  <energy>
124.97882931281011

$$$$
> 225_AKC_j.parint.2019.02.006
>220.sdf
 OpenBabel10052220403D

 30 31  0  0  0  0  0  0  0  0999 V2000
   -4.1747   -2.7962    0.0643 C   0  0  0  0  0  0  0  0  0  0  0  0
   -3.0012   -2.0734    0.0160 O   0  0  0  0  0  0  0  0  0  0  0  0
   -2.9249   -0.7519    0.3192 C   0  0  0  0  0  0  0  0  0  0  0  0
   -3.9269   -0.1346    0.6473 O   0  0  0  0  0  0  0  0  0  0  0  0
   -1.6133   -0.0774    0.2368 C   0  0  0  0  0  0  0  0  0  0  0  0
   -1.2957    1.2661    0.4779 C   0  0  0  0  0  0  0  0  0  0  0  0
   -2.1934    2.3985    0.8991 C   0  0  0  0  0  0  0  0  0  0  0  0
   -2.2307    3.7820   -0.4583 Br  0  0  0  0  0  0  0  0  0  0  0  0
    0.0644    1.3569    0.2560 C   0  0  0  0  0  0  0  0  0  0  0  0
    0.4968    0.1096   -0.0980 C   0  0  0  0  0  0  0  0  0  0  0  0
   -0.5158   -0.7280   -0.1031 O   0  0  0  0  0  0  0  0  0  0  0  0
    1.8448   -0.1748   -0.3820 C   0  0  0  0  0  0  0  0  0  0  0  0
    2.2268   -1.5887   -0.7448 C   0  0  0  0  0  0  0  0  0  0  0  0
    3.6352   -2.1284   -0.7407 C   0  0  0  0  0  0  0  0  0  0  0  0
    1.3386   -2.3792   -1.0289 O   0  0  0  0  0  0  0  0  0  0  0  0
    2.7610    0.9251   -0.3100 C   0  0  0  0  0  0  0  0  0  0  0  0
    4.0625    0.7491   -0.6154 O   0  0  0  0  0  0  0  0  0  0  0  0
    2.2898    2.2233    0.0592 C   0  0  0  0  0  0  0  0  0  0  0  0
    3.4701    3.7320    0.1710 Br  0  0  0  0  0  0  0  0  0  0  0  0
    0.9336    2.4336    0.3488 C   0  0  0  0  0  0  0  0  0  0  0  0
   -3.9692   -3.8431   -0.2398 H   0  0  0  0  0  0  0  0  0  0  0  0
   -4.9223   -2.3624   -0.6341 H   0  0  0  0  0  0  0  0  0  0  0  0
   -4.5815   -2.7973    1.0981 H   0  0  0  0  0  0  0  0  0  0  0  0
   -3.2358    2.0762    1.0637 H   0  0  0  0  0  0  0  0  0  0  0  0
   -1.8194    2.8263    1.8528 H   0  0  0  0  0  0  0  0  0  0  0  0
    3.6680   -3.0087   -0.0642 H   0  0  0  0  0  0  0  0  0  0  0  0
    4.4106   -1.4473   -0.3643 H   0  0  0  0  0  0  0  0  0  0  0  0
    3.9103   -2.4612   -1.7630 H   0  0  0  0  0  0  0  0  0  0  0  0
    4.7167    1.4592   -0.5965 H   0  0  0  0  0  0  0  0  0  0  0  0
    0.5758    3.4145    0.6328 H   0  0  0  0  0  0  0  0  0  0  0  0
  1 21  1  0  0  0  0
  1 22  1  0  0  0  0
  1 23  1  0  0  0  0
  2  1  1  0  0  0  0
  3  2  1  0  0  0  0
  4  3  2  0  0  0  0
  5  3  1  0  0  0  0
  6  5  2  0  0  0  0
  7  6  1  0  0  0  0
  7 24  1  0  0  0  0
  7 25  1  0  0  0  0
  8  7  1  0  0  0  0
  9  6  1  0  0  0  0
 10  9  2  0  0  0  0
 11 10  1  0  0  0  0
 11  5  1  0  0  0  0
 12 10  1  0  0  0  0
 13 12  1  0  0  0  0
 14 13  1  0  0  0  0
 14 26  1  0  0  0  0
 14 27  1  0  0  0  0
 14 28  1  0  0  0  0
 15 13  2  0  0  0  0
 16 12  2  0  0  0  0
 17 16  1  0  0  0  0
 17 29  1  0  0  0  0
 18 16  1  0  0  0  0
 19 18  1  0  0  0  0
 20 18  2  0  0  0  0
 20  9  1  0  0  0  0
 20 30  1  0  0  0  0
M  END
>  <MOL Chiral Flag>
0

>  <energy>
49.262953040362419

$$$$
> 226_AKC_S0031182019000052
>221.sdf
 OpenBabel10102213203D

 57 59  0  0  0  0  0  0  0  0999 V2000
   -4.0352    1.6236    2.8666 C   0  0  0  0  0  0  0  0  0  0  0  0
   -3.6343    1.3929    1.4340 C   0  0  0  0  0  0  0  0  0  0  0  0
   -4.1022    0.1246    0.7634 C   0  0  0  0  0  0  0  0  0  0  0  0
   -2.8900    2.3378    0.8123 C   0  0  0  0  0  0  0  0  0  0  0  0
   -2.4193    2.2826   -0.6241 C   0  0  0  0  0  0  0  0  0  0  0  0
   -1.4143    1.1798   -0.9025 C   0  0  0  0  0  0  0  0  0  0  0  0
   -0.2165    1.1379   -0.1670 C   0  0  0  0  0  0  0  0  0  0  0  0
    0.7516    0.1595   -0.4340 C   0  0  0  0  0  0  0  0  0  0  0  0
    0.5159   -0.7859   -1.4373 C   0  0  0  0  0  0  0  0  0  0  0  0
   -0.6728   -0.7770   -2.1811 C   0  0  0  0  0  0  0  0  0  0  0  0
   -0.8563   -1.8256   -3.2642 C   0  0  0  0  0  0  0  0  0  0  0  0
   -2.0751   -2.7017   -3.0693 C   0  0  0  0  0  0  0  0  0  0  0  0
   -2.2723   -3.5620   -2.0397 C   0  0  0  0  0  0  0  0  0  0  0  0
   -3.5439   -4.3679   -1.9844 C   0  0  0  0  0  0  0  0  0  0  0  0
   -1.2746   -3.7787   -0.9291 C   0  0  0  0  0  0  0  0  0  0  0  0
   -1.6439    0.2256   -1.9224 C   0  0  0  0  0  0  0  0  0  0  0  0
   -2.7829    0.3039   -2.6497 O   0  0  0  0  0  0  0  0  0  0  0  0
    2.0585    0.1267    0.3228 C   0  0  2  0  0  0  0  0  0  0  0  0
    1.8859   -0.1628    1.8262 C   0  0  0  0  0  0  0  0  0  0  0  0
    3.2258   -0.0426    2.5136 C   0  0  0  0  0  0  0  0  0  0  0  0
    3.3883   -0.5317    3.6212 O   0  0  0  0  0  0  0  0  0  0  0  0
    4.2709    0.8212    1.9073 C   0  0  0  0  0  0  0  0  0  0  0  0
    5.5235    1.0130    2.5125 C   0  0  0  0  0  0  0  0  0  0  0  0
    6.4567    1.8769    1.9285 C   0  0  0  0  0  0  0  0  0  0  0  0
    6.1435    2.5637    0.7488 C   0  0  0  0  0  0  0  0  0  0  0  0
    7.0507    3.3987    0.2028 O   0  0  0  0  0  0  0  0  0  0  0  0
    4.8911    2.3762    0.1439 C   0  0  0  0  0  0  0  0  0  0  0  0
    3.9630    1.4999    0.7131 C   0  0  0  0  0  0  0  0  0  0  0  0
    2.7635    1.2994    0.1129 O   0  0  0  0  0  0  0  0  0  0  0  0
   -3.1311    1.7249    3.5030 H   0  0  0  0  0  0  0  0  0  0  0  0
   -4.6394    2.5534    2.9412 H   0  0  0  0  0  0  0  0  0  0  0  0
   -4.6466    0.7807    3.2531 H   0  0  0  0  0  0  0  0  0  0  0  0
   -3.6983   -0.7512    1.3131 H   0  0  0  0  0  0  0  0  0  0  0  0
   -3.7985    0.0388   -0.2919 H   0  0  0  0  0  0  0  0  0  0  0  0
   -5.2112    0.0853    0.7914 H   0  0  0  0  0  0  0  0  0  0  0  0
   -2.6185    3.2277    1.3758 H   0  0  0  0  0  0  0  0  0  0  0  0
   -3.3089    2.2271   -1.2856 H   0  0  0  0  0  0  0  0  0  0  0  0
   -1.9106    3.2449   -0.8478 H   0  0  0  0  0  0  0  0  0  0  0  0
   -0.0319    1.8797    0.6010 H   0  0  0  0  0  0  0  0  0  0  0  0
    1.2697   -1.5356   -1.6470 H   0  0  0  0  0  0  0  0  0  0  0  0
    0.0341   -2.4860   -3.3482 H   0  0  0  0  0  0  0  0  0  0  0  0
   -0.9535   -1.2918   -4.2337 H   0  0  0  0  0  0  0  0  0  0  0  0
   -2.8423   -2.6301   -3.8357 H   0  0  0  0  0  0  0  0  0  0  0  0
   -4.0900   -4.1355   -1.0466 H   0  0  0  0  0  0  0  0  0  0  0  0
   -3.2951   -5.4499   -1.9994 H   0  0  0  0  0  0  0  0  0  0  0  0
   -4.2190   -4.1577   -2.8416 H   0  0  0  0  0  0  0  0  0  0  0  0
   -1.7387   -3.5038    0.0413 H   0  0  0  0  0  0  0  0  0  0  0  0
   -0.9901   -4.8510   -0.8985 H   0  0  0  0  0  0  0  0  0  0  0  0
   -0.3423   -3.2059   -1.0431 H   0  0  0  0  0  0  0  0  0  0  0  0
   -2.9875   -0.2752   -3.3933 H   0  0  0  0  0  0  0  0  0  0  0  0
    2.6899   -0.7021   -0.0758 H   0  0  0  0  0  0  0  0  0  0  0  0
    1.1800    0.5408    2.3163 H   0  0  0  0  0  0  0  0  0  0  0  0
    1.4912   -1.1973    1.9316 H   0  0  0  0  0  0  0  0  0  0  0  0
    5.7755    0.5008    3.4324 H   0  0  0  0  0  0  0  0  0  0  0  0
    7.4224    2.0195    2.3970 H   0  0  0  0  0  0  0  0  0  0  0  0
    6.8660    3.8883   -0.6116 H   0  0  0  0  0  0  0  0  0  0  0  0
    4.6447    2.8995   -0.7717 H   0  0  0  0  0  0  0  0  0  0  0  0
  1 30  1  0  0  0  0
  1 31  1  0  0  0  0
  1 32  1  0  0  0  0
  2  1  1  0  0  0  0
  3  2  1  0  0  0  0
  3 33  1  0  0  0  0
  3 34  1  0  0  0  0
  3 35  1  0  0  0  0
  4  2  2  0  0  0  0
  4 36  1  0  0  0  0
  5  4  1  0  0  0  0
  5 37  1  0  0  0  0
  5 38  1  0  0  0  0
  6  5  1  0  0  0  0
  7  6  2  0  0  0  0
  7 39  1  0  0  0  0
  8  7  1  0  0  0  0
  9  8  2  0  0  0  0
  9 40  1  0  0  0  0
 10  9  1  0  0  0  0
 11 10  1  0  0  0  0
 11 41  1  0  0  0  0
 11 42  1  0  0  0  0
 12 11  1  0  0  0  0
 12 43  1  0  0  0  0
 13 12  2  0  0  0  0
 14 13  1  0  0  0  0
 14 44  1  0  0  0  0
 14 45  1  0  0  0  0
 14 46  1  0  0  0  0
 15 13  1  0  0  0  0
 15 47  1  0  0  0  0
 15 48  1  0  0  0  0
 15 49  1  0  0  0  0
 16 10  2  0  0  0  0
 16  6  1  0  0  0  0
 17 16  1  0  0  0  0
 17 50  1  0  0  0  0
 18  8  1  0  0  0  0
 18 51  1  6  0  0  0
 19 18  1  0  0  0  0
 19 52  1  0  0  0  0
 19 53  1  0  0  0  0
 20 19  1  0  0  0  0
 21 20  2  0  0  0  0
 22 20  1  0  0  0  0
 23 22  2  0  0  0  0
 23 54  1  0  0  0  0
 24 23  1  0  0  0  0
 24 55  1  0  0  0  0
 25 24  2  0  0  0  0
 26 25  1  0  0  0  0
 26 56  1  0  0  0  0
 27 25  1  0  0  0  0
 27 57  1  0  0  0  0
 28 27  2  0  0  0  0
 28 22  1  0  0  0  0
 29 28  1  0  0  0  0
 29 18  1  0  0  0  0
M  END
>  <MOL Chiral Flag>
0

>  <energy>
83.460017701994857

$$$$
> 227_AKC_S0031182019000052
>222.sdf
 OpenBabel10052220413D

 41 44  0  0  0  0  0  0  0  0999 V2000
   -2.2548   -4.1189    1.4451 C   0  0  0  0  0  0  0  0  0  0  0  0
   -2.3945   -3.2959    0.1576 C   0  0  0  0  0  0  0  0  0  0  0  0
   -3.1875   -4.0887   -0.8864 C   0  0  0  0  0  0  0  0  0  0  0  0
   -3.1059   -2.1348    0.4624 O   0  0  0  0  0  0  0  0  0  0  0  0
   -2.6080   -0.8725    0.4354 C   0  0  0  0  0  0  0  0  0  0  0  0
   -3.3996    0.1910    0.8719 C   0  0  0  0  0  0  0  0  0  0  0  0
   -2.8792    1.4941    0.9317 C   0  0  0  0  0  0  0  0  0  0  0  0
   -3.6546    2.5028    1.3826 O   0  0  0  0  0  0  0  0  0  0  0  0
   -1.5344    1.7278    0.5480 C   0  0  0  0  0  0  0  0  0  0  0  0
   -0.9194    2.9939    0.6537 C   0  0  0  0  0  0  0  0  0  0  0  0
   -1.5317    3.9636    1.0629 O   0  0  0  0  0  0  0  0  0  0  0  0
    0.4288    3.1283    0.3152 C   0  0  0  0  0  0  0  0  0  0  0  0
    1.1361    2.0131   -0.1624 C   0  0  0  0  0  0  0  0  0  0  0  0
    0.5144    0.8437   -0.2837 O   0  0  0  0  0  0  0  0  0  0  0  0
   -0.7552    0.6521    0.0662 C   0  0  0  0  0  0  0  0  0  0  0  0
   -1.2966   -0.6418    0.0087 C   0  0  0  0  0  0  0  0  0  0  0  0
   -0.4949   -1.7866   -0.4479 C   0  0  0  0  0  0  0  0  0  0  0  0
   -0.9953   -3.0237   -0.3807 C   0  0  0  0  0  0  0  0  0  0  0  0
    2.5856    2.0695   -0.4858 C   0  0  0  0  0  0  0  0  0  0  0  0
    3.1367    1.1145   -1.3597 C   0  0  0  0  0  0  0  0  0  0  0  0
    4.5047    1.1196   -1.6455 C   0  0  0  0  0  0  0  0  0  0  0  0
    5.3458    2.0586   -1.0428 C   0  0  0  0  0  0  0  0  0  0  0  0
    6.6686    2.0325   -1.3033 O   0  0  0  0  0  0  0  0  0  0  0  0
    4.8085    3.0109   -0.1661 C   0  0  0  0  0  0  0  0  0  0  0  0
    3.4369    3.0257    0.1039 C   0  0  0  0  0  0  0  0  0  0  0  0
   -1.7134   -5.0710    1.2553 H   0  0  0  0  0  0  0  0  0  0  0  0
   -3.2532   -4.3533    1.8716 H   0  0  0  0  0  0  0  0  0  0  0  0
   -1.6840   -3.5375    2.2031 H   0  0  0  0  0  0  0  0  0  0  0  0
   -4.2014   -4.3266   -0.4975 H   0  0  0  0  0  0  0  0  0  0  0  0
   -2.6736   -5.0452   -1.1269 H   0  0  0  0  0  0  0  0  0  0  0  0
   -3.2983   -3.4979   -1.8201 H   0  0  0  0  0  0  0  0  0  0  0  0
   -4.4166    0.0010    1.1936 H   0  0  0  0  0  0  0  0  0  0  0  0
   -4.5718    2.3601    1.6578 H   0  0  0  0  0  0  0  0  0  0  0  0
    0.9059    4.0941    0.4185 H   0  0  0  0  0  0  0  0  0  0  0  0
    0.5153   -1.6404   -0.8198 H   0  0  0  0  0  0  0  0  0  0  0  0
   -0.3760   -3.8592   -0.6959 H   0  0  0  0  0  0  0  0  0  0  0  0
    2.5050    0.3703   -1.8297 H   0  0  0  0  0  0  0  0  0  0  0  0
    4.9133    0.3845   -2.3274 H   0  0  0  0  0  0  0  0  0  0  0  0
    7.2821    2.6513   -0.8821 H   0  0  0  0  0  0  0  0  0  0  0  0
    5.4548    3.7339    0.3154 H   0  0  0  0  0  0  0  0  0  0  0  0
    3.0576    3.7569    0.8032 H   0  0  0  0  0  0  0  0  0  0  0  0
  1 26  1  0  0  0  0
  1 27  1  0  0  0  0
  1 28  1  0  0  0  0
  2  1  1  0  0  0  0
  3  2  1  0  0  0  0
  3 29  1  0  0  0  0
  3 30  1  0  0  0  0
  3 31  1  0  0  0  0
  4  2  1  0  0  0  0
  5  4  1  0  0  0  0
  6  5  2  0  0  0  0
  6 32  1  0  0  0  0
  7  6  1  0  0  0  0
  8  7  1  0  0  0  0
  8 33  1  0  0  0  0
  9  7  2  0  0  0  0
 10  9  1  0  0  0  0
 11 10  2  0  0  0  0
 12 10  1  0  0  0  0
 12 34  1  0  0  0  0
 13 12  2  0  0  0  0
 14 13  1  0  0  0  0
 15 14  1  0  0  0  0
 15  9  1  0  0  0  0
 16 15  2  0  0  0  0
 16  5  1  0  0  0  0
 17 16  1  0  0  0  0
 17 35  1  0  0  0  0
 18 17  2  0  0  0  0
 18  2  1  0  0  0  0
 18 36  1  0  0  0  0
 19 13  1  0  0  0  0
 20 19  2  0  0  0  0
 20 37  1  0  0  0  0
 21 20  1  0  0  0  0
 21 38  1  0  0  0  0
 22 21  2  0  0  0  0
 23 22  1  0  0  0  0
 23 39  1  0  0  0  0
 24 22  1  0  0  0  0
 24 40  1  0  0  0  0
 25 24  2  0  0  0  0
 25 19  1  0  0  0  0
 25 41  1  0  0  0  0
M  END
>  <MOL Chiral Flag>
0

>  <energy>
72.129800115127466

$$$$
> 228_AKC_AAC.02200-18
>223.sdf
 OpenBabel10052220423D

 72 75  0  0  0  0  0  0  0  0999 V2000
    6.7938   -1.8861   -3.9867 N   0  0  0  0  0  0  0  0  0  0  0  0
    5.8311   -2.4574   -3.3408 C   0  0  0  0  0  0  0  0  0  0  0  0
    5.9620   -3.7913   -2.8322 N   0  0  0  0  0  0  0  0  0  0  0  0
    7.0554   -4.2241   -1.9572 C   0  0  0  0  0  0  0  0  0  0  0  0
    7.2125   -3.2451   -0.7736 C   0  0  0  0  0  0  0  0  0  0  0  0
    8.2504   -3.7677    0.2279 C   0  0  0  0  0  0  0  0  0  0  0  0
    9.5986   -3.9952   -0.4659 C   0  0  0  0  0  0  0  0  0  0  0  0
    9.4392   -4.9911   -1.6269 C   0  0  0  0  0  0  0  0  0  0  0  0
    8.4187   -4.4632   -2.6487 C   0  0  0  0  0  0  0  0  0  0  0  0
    4.5795   -1.7853   -3.1680 N   0  0  0  0  0  0  0  0  0  0  0  0
    4.4545   -0.3868   -2.8758 C   0  0  0  0  0  0  0  0  0  0  0  0
    5.5657    0.4061   -2.5040 C   0  0  0  0  0  0  0  0  0  0  0  0
    5.3977    1.7477   -2.1678 C   0  0  0  0  0  0  0  0  0  0  0  0
    4.1284    2.3223   -2.1825 C   0  0  0  0  0  0  0  0  0  0  0  0
    3.9242    4.1554   -1.6601 Se  0  0  0  0  0  0  0  0  0  0  0  0
    3.9796    3.4999    0.6356 Se  0  0  0  0  0  0  0  0  0  0  0  0
    2.0676    3.6029    0.6991 C   0  0  0  0  0  0  0  0  0  0  0  0
    1.4558    4.7938    1.0870 C   0  0  0  0  0  0  0  0  0  0  0  0
    0.0645    4.8960    1.0952 C   0  0  0  0  0  0  0  0  0  0  0  0
   -0.7413    3.8053    0.7202 C   0  0  0  0  0  0  0  0  0  0  0  0
   -2.1624    3.9921    0.6893 N   0  0  0  0  0  0  0  0  0  0  0  0
   -3.1593    2.9718    0.5269 C   0  0  0  0  0  0  0  0  0  0  0  0
   -4.3167    3.3152    0.0603 N   0  0  0  0  0  0  0  0  0  0  0  0
   -2.9083    1.6198    0.9459 N   0  0  0  0  0  0  0  0  0  0  0  0
   -3.7799    0.4988    0.6111 C   0  0  0  0  0  0  0  0  0  0  0  0
   -3.3289   -0.7793    1.3513 C   0  0  0  0  0  0  0  0  0  0  0  0
   -4.2453   -1.9591    0.9925 C   0  0  0  0  0  0  0  0  0  0  0  0
   -4.2248   -2.2086   -0.5208 C   0  0  0  0  0  0  0  0  0  0  0  0
   -4.6622   -0.9468   -1.2748 C   0  0  0  0  0  0  0  0  0  0  0  0
   -3.7542    0.2367   -0.9139 C   0  0  0  0  0  0  0  0  0  0  0  0
   -0.1092    2.6044    0.3224 C   0  0  0  0  0  0  0  0  0  0  0  0
    1.2863    2.5076    0.3234 C   0  0  0  0  0  0  0  0  0  0  0  0
    3.0179    1.5525   -2.5423 C   0  0  0  0  0  0  0  0  0  0  0  0
    3.1784    0.2037   -2.8802 C   0  0  0  0  0  0  0  0  0  0  0  0
    6.6712   -0.9535   -4.4042 H   0  0  0  0  0  0  0  0  0  0  0  0
    5.0924   -4.3398   -2.7482 H   0  0  0  0  0  0  0  0  0  0  0  0
    6.7466   -5.2069   -1.5306 H   0  0  0  0  0  0  0  0  0  0  0  0
    7.5309   -2.2474   -1.1479 H   0  0  0  0  0  0  0  0  0  0  0  0
    6.2376   -3.1262   -0.2516 H   0  0  0  0  0  0  0  0  0  0  0  0
    7.8940   -4.7283    0.6614 H   0  0  0  0  0  0  0  0  0  0  0  0
    8.3690   -3.0374    1.0571 H   0  0  0  0  0  0  0  0  0  0  0  0
   10.3320   -4.3896    0.2693 H   0  0  0  0  0  0  0  0  0  0  0  0
    9.9829   -3.0253   -0.8534 H   0  0  0  0  0  0  0  0  0  0  0  0
    9.1003   -5.9731   -1.2304 H   0  0  0  0  0  0  0  0  0  0  0  0
   10.4221   -5.1382   -2.1243 H   0  0  0  0  0  0  0  0  0  0  0  0
    8.8599   -3.5338   -3.0411 H   0  0  0  0  0  0  0  0  0  0  0  0
    8.3048   -5.1943   -3.4769 H   0  0  0  0  0  0  0  0  0  0  0  0
    3.7338   -2.3665   -3.0645 H   0  0  0  0  0  0  0  0  0  0  0  0
    6.5609   -0.0030   -2.4342 H   0  0  0  0  0  0  0  0  0  0  0  0
    6.2568    2.3376   -1.8745 H   0  0  0  0  0  0  0  0  0  0  0  0
    2.0593    5.6470    1.3694 H   0  0  0  0  0  0  0  0  0  0  0  0
   -0.3912    5.8339    1.3865 H   0  0  0  0  0  0  0  0  0  0  0  0
   -2.4974    4.9676    0.7086 H   0  0  0  0  0  0  0  0  0  0  0  0
   -4.4970    4.2915   -0.2148 H   0  0  0  0  0  0  0  0  0  0  0  0
   -2.0987    1.4408    1.5574 H   0  0  0  0  0  0  0  0  0  0  0  0
   -4.8151    0.7210    0.9513 H   0  0  0  0  0  0  0  0  0  0  0  0
   -2.2809   -1.0294    1.0728 H   0  0  0  0  0  0  0  0  0  0  0  0
   -3.3667   -0.6098    2.4493 H   0  0  0  0  0  0  0  0  0  0  0  0
   -3.9067   -2.8731    1.5255 H   0  0  0  0  0  0  0  0  0  0  0  0
   -5.2854   -1.7333    1.3171 H   0  0  0  0  0  0  0  0  0  0  0  0
   -3.1953   -2.4893   -0.8350 H   0  0  0  0  0  0  0  0  0  0  0  0
   -4.9065   -3.0493   -0.7723 H   0  0  0  0  0  0  0  0  0  0  0  0
   -5.7132   -0.6987   -1.0078 H   0  0  0  0  0  0  0  0  0  0  0  0
   -4.6166   -1.1330   -2.3695 H   0  0  0  0  0  0  0  0  0  0  0  0
   -4.0941    1.1278   -1.4796 H   0  0  0  0  0  0  0  0  0  0  0  0
   -2.7117    0.0126   -1.2330 H   0  0  0  0  0  0  0  0  0  0  0  0
   -0.6679    1.7514   -0.0240 H   0  0  0  0  0  0  0  0  0  0  0  0
    1.7600    1.5866    0.0099 H   0  0  0  0  0  0  0  0  0  0  0  0
    2.0295    1.9934   -2.5452 H   0  0  0  0  0  0  0  0  0  0  0  0
    2.3076   -0.3854   -3.1396 H   0  0  0  0  0  0  0  0  0  0  0  0
    7.6726   -2.3640   -4.1801 H   0  0  0  0  0  0  0  0  0  0  0  0
   -5.0867    2.6437   -0.0476 H   0  0  0  0  0  0  0  0  0  0  0  0
  1 35  1  0  0  0  0
  1 71  1  0  0  0  0
  2  1  2  0  0  0  0
  3  2  1  0  0  0  0
  3 36  1  0  0  0  0
  4  3  1  0  0  0  0
  4 37  1  0  0  0  0
  5  4  1  0  0  0  0
  5 38  1  0  0  0  0
  5 39  1  0  0  0  0
  6  5  1  0  0  0  0
  6 40  1  0  0  0  0
  6 41  1  0  0  0  0
  7  6  1  0  0  0  0
  7 42  1  0  0  0  0
  7 43  1  0  0  0  0
  8  7  1  0  0  0  0
  8 44  1  0  0  0  0
  8 45  1  0  0  0  0
  9  8  1  0  0  0  0
  9  4  1  0  0  0  0
  9 46  1  0  0  0  0
  9 47  1  0  0  0  0
 10  2  1  0  0  0  0
 10 48  1  0  0  0  0
 11 10  1  0  0  0  0
 12 11  2  0  0  0  0
 12 49  1  0  0  0  0
 13 12  1  0  0  0  0
 13 50  1  0  0  0  0
 14 13  2  0  0  0  0
 15 14  1  0  0  0  0
 16 15  1  0  0  0  0
 17 16  1  0  0  0  0
 18 17  2  0  0  0  0
 18 51  1  0  0  0  0
 19 18  1  0  0  0  0
 19 52  1  0  0  0  0
 20 19  2  0  0  0  0
 21 20  1  0  0  0  0
 21 53  1  0  0  0  0
 22 21  1  0  0  0  0
 23 22  2  0  0  0  0
 23 54  1  0  0  0  0
 23 72  1  0  0  0  0
 24 22  1  0  0  0  0
 24 55  1  0  0  0  0
 25 24  1  0  0  0  0
 25 56  1  0  0  0  0
 26 25  1  0  0  0  0
 26 57  1  0  0  0  0
 26 58  1  0  0  0  0
 27 26  1  0  0  0  0
 27 59  1  0  0  0  0
 27 60  1  0  0  0  0
 28 27  1  0  0  0  0
 28 61  1  0  0  0  0
 28 62  1  0  0  0  0
 29 28  1  0  0  0  0
 29 63  1  0  0  0  0
 29 64  1  0  0  0  0
 30 29  1  0  0  0  0
 30 25  1  0  0  0  0
 30 65  1  0  0  0  0
 30 66  1  0  0  0  0
 31 20  1  0  0  0  0
 31 67  1  0  0  0  0
 32 31  2  0  0  0  0
 32 17  1  0  0  0  0
 32 68  1  0  0  0  0
 33 14  1  0  0  0  0
 33 69  1  0  0  0  0
 34 33  2  0  0  0  0
 34 11  1  0  0  0  0
 34 70  1  0  0  0  0
M  END
>  <MOL Chiral Flag>
0

>  <energy>
-159.84539116516348

$$$$
> 229_AKC_ardp.201800281
>224.sdf
 OpenBabel10052220423D

 58 62  0  0  0  0  0  0  0  0999 V2000
    2.6529   -5.2251   -2.2407 Cl  0  0  0  0  0  0  0  0  0  0  0  0
    1.9754   -3.9247   -1.2781 C   0  0  0  0  0  0  0  0  0  0  0  0
    1.7169   -2.6766   -1.8594 C   0  0  0  0  0  0  0  0  0  0  0  0
    1.1893   -1.6331   -1.0863 C   0  0  0  0  0  0  0  0  0  0  0  0
    0.8858   -1.8491    0.2663 C   0  0  0  0  0  0  0  0  0  0  0  0
    1.1494   -3.1067    0.8399 C   0  0  0  0  0  0  0  0  0  0  0  0
    1.6990   -4.1344    0.0743 C   0  0  0  0  0  0  0  0  0  0  0  0
    0.3319   -0.7757    1.1272 C   0  0  0  0  0  0  0  0  0  0  0  0
   -0.9078   -0.9342    1.7975 C   0  0  0  0  0  0  0  0  0  0  0  0
   -1.8761   -2.0436    1.4105 C   0  0  0  0  0  0  0  0  0  0  0  0
   -2.3723   -1.7982    0.0239 N   0  3  0  0  0  0  0  0  0  0  0  0
   -3.1234   -2.9620   -0.4969 C   0  0  0  0  0  0  0  0  0  0  0  0
   -3.5610   -2.7146   -1.9554 C   0  0  0  0  0  0  0  0  0  0  0  0
   -4.4325   -1.4587   -2.0366 C   0  0  0  0  0  0  0  0  0  0  0  0
   -3.6649   -0.2673   -1.4668 C   0  0  0  0  0  0  0  0  0  0  0  0
   -3.2201   -0.5748   -0.0298 C   0  0  0  0  0  0  0  0  0  0  0  0
   -1.3129    0.0269    2.7333 C   0  0  0  0  0  0  0  0  0  0  0  0
   -0.5380    1.1621    2.9590 C   0  0  0  0  0  0  0  0  0  0  0  0
    0.6360    1.3836    2.2217 C   0  0  0  0  0  0  0  0  0  0  0  0
    1.3282    2.6230    2.3720 N   0  0  0  0  0  0  0  0  0  0  0  0
    1.5520    3.3815    1.1895 C   0  0  0  0  0  0  0  0  0  0  0  0
    0.5493    4.2733    0.7853 C   0  0  0  0  0  0  0  0  0  0  0  0
    0.6915    5.0013   -0.3914 C   0  0  0  0  0  0  0  0  0  0  0  0
    1.8052    4.8566   -1.1521 N   0  0  0  0  0  0  0  0  0  0  0  0
    2.8122    4.0162   -0.7931 C   0  0  0  0  0  0  0  0  0  0  0  0
    3.9433    3.9110   -1.6067 C   0  0  0  0  0  0  0  0  0  0  0  0
    4.9910    3.0614   -1.2453 C   0  0  0  0  0  0  0  0  0  0  0  0
    6.4075    2.9384   -2.2724 Cl  0  0  0  0  0  0  0  0  0  0  0  0
    4.9131    2.3152   -0.0645 C   0  0  0  0  0  0  0  0  0  0  0  0
    3.7838    2.4081    0.7576 C   0  0  0  0  0  0  0  0  0  0  0  0
    2.7165    3.2521    0.3984 C   0  0  0  0  0  0  0  0  0  0  0  0
    1.0697    0.4020    1.3112 C   0  0  0  0  0  0  0  0  0  0  0  0
    1.9276   -2.5161   -2.9083 H   0  0  0  0  0  0  0  0  0  0  0  0
    0.9927   -0.6722   -1.5437 H   0  0  0  0  0  0  0  0  0  0  0  0
    0.9514   -3.2798    1.8917 H   0  0  0  0  0  0  0  0  0  0  0  0
    1.9113   -5.0918    0.5348 H   0  0  0  0  0  0  0  0  0  0  0  0
   -2.7465   -2.0720    2.1045 H   0  0  0  0  0  0  0  0  0  0  0  0
   -1.3813   -3.0313    1.4983 H   0  0  0  0  0  0  0  0  0  0  0  0
   -1.5541   -1.6589   -0.6120 H   0  0  0  0  0  0  0  0  0  0  0  0
   -4.0195   -3.1598    0.1331 H   0  0  0  0  0  0  0  0  0  0  0  0
   -2.4788   -3.8689   -0.4819 H   0  0  0  0  0  0  0  0  0  0  0  0
   -4.1265   -3.5888   -2.3413 H   0  0  0  0  0  0  0  0  0  0  0  0
   -2.6590   -2.5756   -2.5931 H   0  0  0  0  0  0  0  0  0  0  0  0
   -5.3632   -1.6146   -1.4483 H   0  0  0  0  0  0  0  0  0  0  0  0
   -4.7163   -1.2539   -3.0917 H   0  0  0  0  0  0  0  0  0  0  0  0
   -4.3082    0.6395   -1.4805 H   0  0  0  0  0  0  0  0  0  0  0  0
   -2.7678   -0.0653   -2.0931 H   0  0  0  0  0  0  0  0  0  0  0  0
   -4.1191   -0.6998    0.6163 H   0  0  0  0  0  0  0  0  0  0  0  0
   -2.6609    0.3148    0.3308 H   0  0  0  0  0  0  0  0  0  0  0  0
   -2.2582   -0.0763    3.2516 H   0  0  0  0  0  0  0  0  0  0  0  0
   -0.8917    1.9089    3.6589 H   0  0  0  0  0  0  0  0  0  0  0  0
    0.9851    3.1885    3.1642 H   0  0  0  0  0  0  0  0  0  0  0  0
   -0.3514    4.3829    1.3778 H   0  0  0  0  0  0  0  0  0  0  0  0
   -0.0929    5.6767   -0.7055 H   0  0  0  0  0  0  0  0  0  0  0  0
    4.0080    4.4923   -2.5189 H   0  0  0  0  0  0  0  0  0  0  0  0
    5.7297    1.6629    0.2165 H   0  0  0  0  0  0  0  0  0  0  0  0
    3.7488    1.8250    1.6691 H   0  0  0  0  0  0  0  0  0  0  0  0
    1.9884    0.5311    0.7633 H   0  0  0  0  0  0  0  0  0  0  0  0
  2  1  1  0  0  0  0
  3  2  2  0  0  0  0
  3 33  1  0  0  0  0
  4  3  1  0  0  0  0
  4 34  1  0  0  0  0
  5  4  2  0  0  0  0
  6  5  1  0  0  0  0
  6 35  1  0  0  0  0
  7  6  2  0  0  0  0
  7  2  1  0  0  0  0
  7 36  1  0  0  0  0
  8  5  1  0  0  0  0
  9  8  2  0  0  0  0
 10  9  1  0  0  0  0
 10 37  1  0  0  0  0
 10 38  1  0  0  0  0
 11 10  1  0  0  0  0
 11 39  1  0  0  0  0
 12 11  1  0  0  0  0
 12 40  1  0  0  0  0
 12 41  1  0  0  0  0
 13 12  1  0  0  0  0
 13 42  1  0  0  0  0
 13 43  1  0  0  0  0
 14 13  1  0  0  0  0
 14 44  1  0  0  0  0
 14 45  1  0  0  0  0
 15 14  1  0  0  0  0
 15 46  1  0  0  0  0
 15 47  1  0  0  0  0
 16 15  1  0  0  0  0
 16 11  1  0  0  0  0
 16 48  1  0  0  0  0
 16 49  1  0  0  0  0
 17  9  1  0  0  0  0
 17 50  1  0  0  0  0
 18 17  2  0  0  0  0
 18 51  1  0  0  0  0
 19 18  1  0  0  0  0
 20 19  1  0  0  0  0
 20 52  1  0  0  0  0
 21 20  1  0  0  0  0
 22 21  2  0  0  0  0
 22 53  1  0  0  0  0
 23 22  1  0  0  0  0
 23 54  1  0  0  0  0
 24 23  2  0  0  0  0
 25 24  1  0  0  0  0
 26 25  2  0  0  0  0
 26 55  1  0  0  0  0
 27 26  1  0  0  0  0
 28 27  1  0  0  0  0
 29 27  2  0  0  0  0
 29 56  1  0  0  0  0
 30 29  1  0  0  0  0
 30 57  1  0  0  0  0
 31 30  2  0  0  0  0
 31 21  1  0  0  0  0
 31 25  1  0  0  0  0
 32 19  2  0  0  0  0
 32  8  1  0  0  0  0
 32 58  1  0  0  0  0
M  CHG  1  11   1
M  END
>  <MOL Chiral Flag>
0

>  <energy>
73.791965721016496

$$$$
> 230_AKC_acs.jnatprod.8b00884
>225.sdf
 OpenBabel10052220433D

 61 63  0  0  0  0  0  0  0  0999 V2000
   -3.9941   -2.8838    4.3623 C   0  0  0  0  0  0  0  0  0  0  0  0
   -3.2956   -2.6825    3.1862 O   0  0  0  0  0  0  0  0  0  0  0  0
   -3.6607   -1.8255    2.1926 C   0  0  0  0  0  0  0  0  0  0  0  0
   -4.7078   -1.1952    2.2913 O   0  0  0  0  0  0  0  0  0  0  0  0
   -2.7930   -1.7147    0.9141 C   0  0  2  0  0  0  0  0  0  0  0  0
   -3.6673   -0.9409   -0.1253 C   0  0  0  0  0  0  0  0  0  0  0  0
   -2.5688   -3.1663    0.3882 C   0  0  0  0  0  0  0  0  0  0  0  0
   -1.5889   -3.2387   -0.7919 C   0  0  0  0  0  0  0  0  0  0  0  0
   -0.2141   -2.6267   -0.4387 C   0  0  0  0  0  0  0  0  0  0  0  0
   -0.3192   -1.1192   -0.0211 C   0  0  2  0  0  0  0  0  0  0  0  0
   -0.6421   -0.3107   -1.3225 C   0  0  0  0  0  0  0  0  0  0  0  0
    1.0288   -0.4762    0.3995 C   0  0  0  0  0  0  0  0  0  0  0  0
    1.0579    0.5895    1.3296 C   0  0  0  0  0  0  0  0  0  0  0  0
   -0.1889    1.1029    2.0285 C   0  0  0  0  0  0  0  0  0  0  0  0
   -1.5091    0.4638    1.5717 C   0  0  0  0  0  0  0  0  0  0  0  0
   -1.3533   -1.0373    1.2167 C   0  0  1  0  0  0  0  0  0  0  0  0
   -0.7119   -1.7561    2.4716 C   0  0  0  0  0  0  0  0  0  0  0  0
    2.2767    1.1722    1.6828 C   0  0  0  0  0  0  0  0  0  0  0  0
    3.5042    0.7568    1.1197 C   0  0  0  0  0  0  0  0  0  0  0  0
    4.8077    1.4791    1.5291 C   0  0  0  0  0  0  0  0  0  0  0  0
    5.3629    2.2927    0.3425 C   0  0  0  0  0  0  0  0  0  0  0  0
    4.6854    2.4360    2.7324 C   0  0  0  0  0  0  0  0  0  0  0  0
    3.4878   -0.3157    0.1611 C   0  0  0  0  0  0  0  0  0  0  0  0
    2.2440   -0.8984   -0.1745 C   0  0  0  0  0  0  0  0  0  0  0  0
    4.7488   -0.8760   -0.4738 C   0  0  0  0  0  0  0  0  0  0  0  0
    4.7495   -1.7391   -1.7141 C   0  0  0  0  0  0  0  0  0  0  0  0
    5.8370   -0.6519    0.0285 O   0  0  0  0  0  0  0  0  0  0  0  0
   -4.2856   -3.9519    4.4321 H   0  0  0  0  0  0  0  0  0  0  0  0
   -3.3352   -2.6379    5.2204 H   0  0  0  0  0  0  0  0  0  0  0  0
   -4.9116   -2.2621    4.4348 H   0  0  0  0  0  0  0  0  0  0  0  0
   -3.2955   -0.9066   -1.1446 H   0  0  0  0  0  0  0  0  0  0  0  0
   -4.6501   -1.4498   -0.2380 H   0  0  0  0  0  0  0  0  0  0  0  0
   -3.8802    0.0963    0.2057 H   0  0  0  0  0  0  0  0  0  0  0  0
   -3.5381   -3.6300    0.0998 H   0  0  0  0  0  0  0  0  0  0  0  0
   -2.1524   -3.8121    1.1869 H   0  0  0  0  0  0  0  0  0  0  0  0
   -2.0265   -2.7426   -1.6782 H   0  0  0  0  0  0  0  0  0  0  0  0
   -1.4467   -4.3053   -1.0705 H   0  0  0  0  0  0  0  0  0  0  0  0
    0.2437   -3.2235    0.3761 H   0  0  0  0  0  0  0  0  0  0  0  0
    0.4291   -2.7605   -1.3325 H   0  0  0  0  0  0  0  0  0  0  0  0
   -1.4864   -0.6451   -1.9238 H   0  0  0  0  0  0  0  0  0  0  0  0
    0.2025   -0.4122   -2.0399 H   0  0  0  0  0  0  0  0  0  0  0  0
   -0.7449    0.7775   -1.1392 H   0  0  0  0  0  0  0  0  0  0  0  0
   -0.0440    0.8757    3.1075 H   0  0  0  0  0  0  0  0  0  0  0  0
   -0.2842    2.2068    1.9372 H   0  0  0  0  0  0  0  0  0  0  0  0
   -2.2701    0.6342    2.3642 H   0  0  0  0  0  0  0  0  0  0  0  0
   -1.8710    1.0107    0.6820 H   0  0  0  0  0  0  0  0  0  0  0  0
    0.3172   -1.4285    2.7052 H   0  0  0  0  0  0  0  0  0  0  0  0
   -1.2762   -1.5312    3.3971 H   0  0  0  0  0  0  0  0  0  0  0  0
   -0.6333   -2.8519    2.3700 H   0  0  0  0  0  0  0  0  0  0  0  0
    2.2431    1.9721    2.4055 H   0  0  0  0  0  0  0  0  0  0  0  0
    5.5377    0.7182    1.8701 H   0  0  0  0  0  0  0  0  0  0  0  0
    6.3286    2.7675    0.6189 H   0  0  0  0  0  0  0  0  0  0  0  0
    4.6439    3.0919    0.0603 H   0  0  0  0  0  0  0  0  0  0  0  0
    5.5415    1.6799   -0.5602 H   0  0  0  0  0  0  0  0  0  0  0  0
    4.3063    1.8894    3.6225 H   0  0  0  0  0  0  0  0  0  0  0  0
    4.0189    3.2961    2.5069 H   0  0  0  0  0  0  0  0  0  0  0  0
    5.6838    2.8486    2.9938 H   0  0  0  0  0  0  0  0  0  0  0  0
    2.2151   -1.7055   -0.8719 H   0  0  0  0  0  0  0  0  0  0  0  0
    3.7720   -1.8770   -2.2046 H   0  0  0  0  0  0  0  0  0  0  0  0
    5.1682   -2.7375   -1.4683 H   0  0  0  0  0  0  0  0  0  0  0  0
    5.4025   -1.2615   -2.4747 H   0  0  0  0  0  0  0  0  0  0  0  0
  1 28  1  0  0  0  0
  1 29  1  0  0  0  0
  1 30  1  0  0  0  0
  2  1  1  0  0  0  0
  3  2  1  0  0  0  0
  4  3  2  0  0  0  0
  5  3  1  1  0  0  0
  6  5  1  0  0  0  0
  6 31  1  0  0  0  0
  6 32  1  0  0  0  0
  6 33  1  0  0  0  0
  7  5  1  0  0  0  0
  7 34  1  0  0  0  0
  7 35  1  0  0  0  0
  8  7  1  0  0  0  0
  8 36  1  0  0  0  0
  8 37  1  0  0  0  0
  9  8  1  0  0  0  0
  9 38  1  0  0  0  0
  9 39  1  0  0  0  0
 10  9  1  0  0  0  0
 10 11  1  6  0  0  0
 11 40  1  0  0  0  0
 11 41  1  0  0  0  0
 11 42  1  0  0  0  0
 12 10  1  0  0  0  0
 13 12  2  0  0  0  0
 14 13  1  0  0  0  0
 14 43  1  0  0  0  0
 14 44  1  0  0  0  0
 15 14  1  0  0  0  0
 15 45  1  0  0  0  0
 15 46  1  0  0  0  0
 16 15  1  0  0  0  0
 16  5  1  0  0  0  0
 16 10  1  0  0  0  0
 16 17  1  1  0  0  0
 17 47  1  0  0  0  0
 17 48  1  0  0  0  0
 17 49  1  0  0  0  0
 18 13  1  0  0  0  0
 18 50  1  0  0  0  0
 19 18  2  0  0  0  0
 20 19  1  0  0  0  0
 20 51  1  0  0  0  0
 21 20  1  0  0  0  0
 21 52  1  0  0  0  0
 21 53  1  0  0  0  0
 21 54  1  0  0  0  0
 22 20  1  0  0  0  0
 22 55  1  0  0  0  0
 22 56  1  0  0  0  0
 22 57  1  0  0  0  0
 23 19  1  0  0  0  0
 24 23  2  0  0  0  0
 24 12  1  0  0  0  0
 24 58  1  0  0  0  0
 25 23  1  0  0  0  0
 26 25  1  0  0  0  0
 26 59  1  0  0  0  0
 26 60  1  0  0  0  0
 26 61  1  0  0  0  0
 27 25  2  0  0  0  0
M  END
>  <MOL Chiral Flag>
0

>  <energy>
150.94017789441719

$$$$
> 231_AKC_j.parint.2018.12.006
>226.sdf
 OpenBabel10052220443D

 35 38  0  0  0  0  0  0  0  0999 V2000
   -6.1728    1.2013   -0.1013 Cl  0  0  0  0  0  0  0  0  0  0  0  0
   -4.4657    0.8003   -0.1458 C   0  0  0  0  0  0  0  0  0  0  0  0
   -3.7394    0.9624   -1.3298 C   0  0  0  0  0  0  0  0  0  0  0  0
   -2.3786    0.6434   -1.3678 C   0  0  0  0  0  0  0  0  0  0  0  0
   -1.7319    0.1596   -0.2172 C   0  0  0  0  0  0  0  0  0  0  0  0
   -2.4699   -0.0025    0.9692 C   0  0  0  0  0  0  0  0  0  0  0  0
   -3.8304    0.3175    1.0024 C   0  0  0  0  0  0  0  0  0  0  0  0
   -0.2610   -0.1844   -0.2572 C   0  0  2  0  0  0  0  0  0  0  0  0
   -0.0808   -1.5248    0.0431 O   0  0  0  0  0  0  0  0  0  0  0  0
    1.1604   -2.0570    0.1730 C   0  0  0  0  0  0  0  0  0  0  0  0
    1.3545   -3.4305   -0.0078 C   0  0  0  0  0  0  0  0  0  0  0  0
    2.6346   -3.9792    0.1170 C   0  0  0  0  0  0  0  0  0  0  0  0
    3.7230   -3.1586    0.4303 C   0  0  0  0  0  0  0  0  0  0  0  0
    3.5353   -1.7866    0.6268 C   0  0  0  0  0  0  0  0  0  0  0  0
    2.2524   -1.2288    0.4994 C   0  0  0  0  0  0  0  0  0  0  0  0
    1.9967    0.2099    0.7506 C   0  0  0  0  0  0  0  0  0  0  0  0
    2.8862    0.9305    1.1802 O   0  0  0  0  0  0  0  0  0  0  0  0
    0.5730    0.7181    0.6883 C   0  0  1  0  0  0  0  0  0  0  0  0
    0.5328    2.1102    0.2292 N   0  0  0  0  0  0  0  0  0  0  0  0
    0.9643    2.5998   -0.9467 C   0  0  0  0  0  0  0  0  0  0  0  0
    0.7183    3.9526   -0.9263 C   0  0  0  0  0  0  0  0  0  0  0  0
    0.1464    4.2465    0.2594 N   0  0  0  0  0  0  0  0  0  0  0  0
    0.0456    3.1136    0.9409 N   0  0  0  0  0  0  0  0  0  0  0  0
   -4.2287    1.3355   -2.2204 H   0  0  0  0  0  0  0  0  0  0  0  0
   -1.8296    0.7754   -2.2918 H   0  0  0  0  0  0  0  0  0  0  0  0
   -1.9917   -0.3778    1.8651 H   0  0  0  0  0  0  0  0  0  0  0  0
   -4.3902    0.1895    1.9201 H   0  0  0  0  0  0  0  0  0  0  0  0
    0.1315   -0.0315   -1.2887 H   0  0  0  0  0  0  0  0  0  0  0  0
    0.5157   -4.0697   -0.2526 H   0  0  0  0  0  0  0  0  0  0  0  0
    2.7834   -5.0413   -0.0288 H   0  0  0  0  0  0  0  0  0  0  0  0
    4.7116   -3.5880    0.5289 H   0  0  0  0  0  0  0  0  0  0  0  0
    4.3840   -1.1652    0.8838 H   0  0  0  0  0  0  0  0  0  0  0  0
    0.1696    0.6657    1.7233 H   0  0  0  0  0  0  0  0  0  0  0  0
    1.4165    2.0233   -1.7432 H   0  0  0  0  0  0  0  0  0  0  0  0
    0.9353    4.6704   -1.7056 H   0  0  0  0  0  0  0  0  0  0  0  0
  2  1  1  0  0  0  0
  3  2  2  0  0  0  0
  3 24  1  0  0  0  0
  4  3  1  0  0  0  0
  4 25  1  0  0  0  0
  5  4  2  0  0  0  0
  6  5  1  0  0  0  0
  6 26  1  0  0  0  0
  7  6  2  0  0  0  0
  7  2  1  0  0  0  0
  7 27  1  0  0  0  0
  8  5  1  0  0  0  0
  8 28  1  6  0  0  0
  9  8  1  0  0  0  0
 10  9  1  0  0  0  0
 11 10  2  0  0  0  0
 11 29  1  0  0  0  0
 12 11  1  0  0  0  0
 12 30  1  0  0  0  0
 13 12  2  0  0  0  0
 13 31  1  0  0  0  0
 14 13  1  0  0  0  0
 14 32  1  0  0  0  0
 15 14  2  0  0  0  0
 15 10  1  0  0  0  0
 16 15  1  0  0  0  0
 17 16  2  0  0  0  0
 18 16  1  0  0  0  0
 18  8  1  0  0  0  0
 18 33  1  1  0  0  0
 19 18  1  0  0  0  0
 20 19  1  0  0  0  0
 20 34  1  0  0  0  0
 21 20  2  0  0  0  0
 21 35  1  0  0  0  0
 22 21  1  0  0  0  0
 23 22  2  0  0  0  0
 23 19  1  0  0  0  0
M  END
>  <MOL Chiral Flag>
0

>  <energy>
49.423290265907859

$$$$
> 232_AKC_j.parint.2018.12.006
>226_2.sdf
 OpenBabel10102213213D

 35 38  0  0  0  0  0  0  0  0999 V2000
   -6.0392    1.3379   -0.4922 Cl  0  0  0  0  0  0  0  0  0  0  0  0
   -4.4114    0.8173   -0.0982 C   0  0  0  0  0  0  0  0  0  0  0  0
   -3.3884    0.9496   -1.0404 C   0  0  0  0  0  0  0  0  0  0  0  0
   -2.0914    0.5347   -0.7293 C   0  0  0  0  0  0  0  0  0  0  0  0
   -1.8026   -0.0184    0.5323 C   0  0  0  0  0  0  0  0  0  0  0  0
   -2.8413   -0.1586    1.4694 C   0  0  0  0  0  0  0  0  0  0  0  0
   -4.1373    0.2625    1.1555 C   0  0  0  0  0  0  0  0  0  0  0  0
   -0.4034   -0.4881    0.8721 C   0  0  1  0  0  0  0  0  0  0  0  0
    0.0629   -1.3659   -0.0896 O   0  0  0  0  0  0  0  0  0  0  0  0
    1.2913   -1.9261    0.0235 C   0  0  0  0  0  0  0  0  0  0  0  0
    1.5417   -3.1815   -0.5419 C   0  0  0  0  0  0  0  0  0  0  0  0
    2.8033   -3.7694   -0.4108 C   0  0  0  0  0  0  0  0  0  0  0  0
    3.8231   -3.0970    0.2700 C   0  0  0  0  0  0  0  0  0  0  0  0
    3.5848   -1.8345    0.8248 C   0  0  0  0  0  0  0  0  0  0  0  0
    2.3133   -1.2459    0.7126 C   0  0  0  0  0  0  0  0  0  0  0  0
    2.0196    0.0990    1.2710 C   0  0  0  0  0  0  0  0  0  0  0  0
    2.9178    0.7861    1.7345 O   0  0  0  0  0  0  0  0  0  0  0  0
    0.6087    0.6491    1.2090 C   0  0  1  0  0  0  0  0  0  0  0  0
    0.5520    1.8123    0.3168 N   0  0  0  0  0  0  0  0  0  0  0  0
    0.8697    1.8897   -0.9873 C   0  0  0  0  0  0  0  0  0  0  0  0
    0.6531    3.1965   -1.3687 C   0  0  0  0  0  0  0  0  0  0  0  0
    0.2190    3.8728   -0.2874 N   0  0  0  0  0  0  0  0  0  0  0  0
    0.1695    3.0130    0.7202 N   0  0  0  0  0  0  0  0  0  0  0  0
   -3.5982    1.3689   -2.0164 H   0  0  0  0  0  0  0  0  0  0  0  0
   -1.3217    0.6277   -1.4797 H   0  0  0  0  0  0  0  0  0  0  0  0
   -2.6465   -0.5877    2.4441 H   0  0  0  0  0  0  0  0  0  0  0  0
   -4.9282    0.1551    1.8863 H   0  0  0  0  0  0  0  0  0  0  0  0
   -0.4567   -1.0820    1.8154 H   0  0  0  0  0  0  0  0  0  0  0  0
    0.7547   -3.7075   -1.0676 H   0  0  0  0  0  0  0  0  0  0  0  0
    2.9909   -4.7471   -0.8365 H   0  0  0  0  0  0  0  0  0  0  0  0
    4.7995   -3.5544    0.3661 H   0  0  0  0  0  0  0  0  0  0  0  0
    4.3859   -1.3227    1.3428 H   0  0  0  0  0  0  0  0  0  0  0  0
    0.3195    0.9994    2.2260 H   0  0  0  0  0  0  0  0  0  0  0  0
    1.2214    1.0729   -1.6017 H   0  0  0  0  0  0  0  0  0  0  0  0
    0.7964    3.6308   -2.3486 H   0  0  0  0  0  0  0  0  0  0  0  0
  2  1  1  0  0  0  0
  3  2  2  0  0  0  0
  3 24  1  0  0  0  0
  4  3  1  0  0  0  0
  4 25  1  0  0  0  0
  5  4  2  0  0  0  0
  6  5  1  0  0  0  0
  6 26  1  0  0  0  0
  7  6  2  0  0  0  0
  7  2  1  0  0  0  0
  7 27  1  0  0  0  0
  8  5  1  0  0  0  0
  8 28  1  1  0  0  0
  9  8  1  0  0  0  0
 10  9  1  0  0  0  0
 11 10  2  0  0  0  0
 11 29  1  0  0  0  0
 12 11  1  0  0  0  0
 12 30  1  0  0  0  0
 13 12  2  0  0  0  0
 13 31  1  0  0  0  0
 14 13  1  0  0  0  0
 14 32  1  0  0  0  0
 15 14  2  0  0  0  0
 15 10  1  0  0  0  0
 16 15  1  0  0  0  0
 17 16  2  0  0  0  0
 18 16  1  0  0  0  0
 18  8  1  0  0  0  0
 18 33  1  1  0  0  0
 19 18  1  0  0  0  0
 20 19  1  0  0  0  0
 20 34  1  0  0  0  0
 21 20  2  0  0  0  0
 21 35  1  0  0  0  0
 22 21  1  0  0  0  0
 23 22  2  0  0  0  0
 23 19  1  0  0  0  0
M  END
>  <MOL Chiral Flag>
0

>  <energy>
49.423290265907859

$$$$
> 233_AKC_j.parint.2018.12.006
>226_3.sdf
 OpenBabel10102213213D

 35 38  0  0  0  0  0  0  0  0999 V2000
   -5.4952    0.7940    1.3322 Cl  0  0  0  0  0  0  0  0  0  0  0  0
   -3.9363    0.5339    0.5712 C   0  0  0  0  0  0  0  0  0  0  0  0
   -3.7669    0.8177   -0.7857 C   0  0  0  0  0  0  0  0  0  0  0  0
   -2.5256    0.6175   -1.3937 C   0  0  0  0  0  0  0  0  0  0  0  0
   -1.4343    0.1297   -0.6489 C   0  0  0  0  0  0  0  0  0  0  0  0
   -1.6166   -0.1603    0.7168 C   0  0  0  0  0  0  0  0  0  0  0  0
   -2.8624    0.0440    1.3208 C   0  0  0  0  0  0  0  0  0  0  0  0
   -0.0896   -0.0594   -1.3320 C   0  0  2  0  0  0  0  0  0  0  0  0
    0.2846   -1.4047   -1.2959 O   0  0  0  0  0  0  0  0  0  0  0  0
    1.1876   -1.9455   -0.4242 C   0  0  0  0  0  0  0  0  0  0  0  0
    1.4162   -3.3265   -0.4351 C   0  0  0  0  0  0  0  0  0  0  0  0
    2.3026   -3.9005    0.4829 C   0  0  0  0  0  0  0  0  0  0  0  0
    2.9568   -3.0991    1.4241 C   0  0  0  0  0  0  0  0  0  0  0  0
    2.7346   -1.7189    1.4467 C   0  0  0  0  0  0  0  0  0  0  0  0
    1.8620   -1.1369    0.5145 C   0  0  0  0  0  0  0  0  0  0  0  0
    1.6159    0.3111    0.4725 C   0  0  0  0  0  0  0  0  0  0  0  0
    1.9349    1.0439    1.3977 O   0  0  0  0  0  0  0  0  0  0  0  0
    1.0453    0.8554   -0.8037 C   0  0  2  0  0  0  0  0  0  0  0  0
    0.6515    2.2643   -0.6953 N   0  0  0  0  0  0  0  0  0  0  0  0
    1.1548    3.2951   -1.3923 C   0  0  0  0  0  0  0  0  0  0  0  0
    0.4972    4.4240   -0.9601 C   0  0  0  0  0  0  0  0  0  0  0  0
   -0.3845    4.0465   -0.0122 N   0  0  0  0  0  0  0  0  0  0  0  0
   -0.2708    2.7336    0.1306 N   0  0  0  0  0  0  0  0  0  0  0  0
   -4.5958    1.1970   -1.3702 H   0  0  0  0  0  0  0  0  0  0  0  0
   -2.4138    0.8488   -2.4458 H   0  0  0  0  0  0  0  0  0  0  0  0
   -0.8016   -0.5382    1.3160 H   0  0  0  0  0  0  0  0  0  0  0  0
   -2.9923   -0.1763    2.3726 H   0  0  0  0  0  0  0  0  0  0  0  0
   -0.2095    0.2237   -2.4011 H   0  0  0  0  0  0  0  0  0  0  0  0
    0.9008   -3.9558   -1.1495 H   0  0  0  0  0  0  0  0  0  0  0  0
    2.4769   -4.9687    0.4697 H   0  0  0  0  0  0  0  0  0  0  0  0
    3.6394   -3.5481    2.1343 H   0  0  0  0  0  0  0  0  0  0  0  0
    3.2536   -1.1065    2.1735 H   0  0  0  0  0  0  0  0  0  0  0  0
    1.8670    0.7542   -1.5494 H   0  0  0  0  0  0  0  0  0  0  0  0
    1.9287    3.2288   -2.1455 H   0  0  0  0  0  0  0  0  0  0  0  0
    0.6429    5.4396   -1.3014 H   0  0  0  0  0  0  0  0  0  0  0  0
  2  1  1  0  0  0  0
  3  2  2  0  0  0  0
  3 24  1  0  0  0  0
  4  3  1  0  0  0  0
  4 25  1  0  0  0  0
  5  4  2  0  0  0  0
  6  5  1  0  0  0  0
  6 26  1  0  0  0  0
  7  6  2  0  0  0  0
  7  2  1  0  0  0  0
  7 27  1  0  0  0  0
  8  5  1  0  0  0  0
  8 28  1  6  0  0  0
  9  8  1  0  0  0  0
 10  9  1  0  0  0  0
 11 10  2  0  0  0  0
 11 29  1  0  0  0  0
 12 11  1  0  0  0  0
 12 30  1  0  0  0  0
 13 12  2  0  0  0  0
 13 31  1  0  0  0  0
 14 13  1  0  0  0  0
 14 32  1  0  0  0  0
 15 14  2  0  0  0  0
 15 10  1  0  0  0  0
 16 15  1  0  0  0  0
 17 16  2  0  0  0  0
 18 16  1  0  0  0  0
 18  8  1  0  0  0  0
 18 33  1  6  0  0  0
 19 18  1  0  0  0  0
 20 19  1  0  0  0  0
 20 34  1  0  0  0  0
 21 20  2  0  0  0  0
 21 35  1  0  0  0  0
 22 21  1  0  0  0  0
 23 22  2  0  0  0  0
 23 19  1  0  0  0  0
M  END
>  <MOL Chiral Flag>
0

>  <energy>
49.423290265907859

$$$$
> 234_AKC_j.parint.2018.12.006
>226_4.sdf
 OpenBabel10102213223D

 35 38  0  0  0  0  0  0  0  0999 V2000
   -6.1775    1.2026   -0.6760 Cl  0  0  0  0  0  0  0  0  0  0  0  0
   -4.5047    0.7805   -0.3592 C   0  0  0  0  0  0  0  0  0  0  0  0
   -3.6441    0.4818   -1.4202 C   0  0  0  0  0  0  0  0  0  0  0  0
   -2.3104    0.1424   -1.1697 C   0  0  0  0  0  0  0  0  0  0  0  0
   -1.8228    0.1137    0.1498 C   0  0  0  0  0  0  0  0  0  0  0  0
   -2.6973    0.4153    1.2101 C   0  0  0  0  0  0  0  0  0  0  0  0
   -4.0313    0.7423    0.9551 C   0  0  0  0  0  0  0  0  0  0  0  0
   -0.3778   -0.2333    0.4418 C   0  0  1  0  0  0  0  0  0  0  0  0
   -0.1412   -1.5615    0.0949 O   0  0  0  0  0  0  0  0  0  0  0  0
    1.1061   -2.1070    0.1429 C   0  0  0  0  0  0  0  0  0  0  0  0
    1.2640   -3.4963    0.1762 C   0  0  0  0  0  0  0  0  0  0  0  0
    2.5439   -4.0527    0.2764 C   0  0  0  0  0  0  0  0  0  0  0  0
    3.6688   -3.2228    0.3460 C   0  0  0  0  0  0  0  0  0  0  0  0
    3.5211   -1.8324    0.2996 C   0  0  0  0  0  0  0  0  0  0  0  0
    2.2407   -1.2708    0.1811 C   0  0  0  0  0  0  0  0  0  0  0  0
    2.0216    0.1887    0.0991 C   0  0  0  0  0  0  0  0  0  0  0  0
    2.9156    0.9766    0.3724 O   0  0  0  0  0  0  0  0  0  0  0  0
    0.6405    0.6645   -0.3059 C   0  0  2  0  0  0  0  0  0  0  0  0
    0.4600    2.1075   -0.0936 N   0  0  0  0  0  0  0  0  0  0  0  0
    1.1313    3.0896   -0.7190 C   0  0  0  0  0  0  0  0  0  0  0  0
    0.6248    4.2786   -0.2504 C   0  0  0  0  0  0  0  0  0  0  0  0
   -0.3391    3.9867    0.6465 N   0  0  0  0  0  0  0  0  0  0  0  0
   -0.4210    2.6656    0.7221 N   0  0  0  0  0  0  0  0  0  0  0  0
   -4.0081    0.5134   -2.4391 H   0  0  0  0  0  0  0  0  0  0  0  0
   -1.6590   -0.0858   -2.0027 H   0  0  0  0  0  0  0  0  0  0  0  0
   -2.3467    0.3922    2.2346 H   0  0  0  0  0  0  0  0  0  0  0  0
   -4.6957    0.9680    1.7797 H   0  0  0  0  0  0  0  0  0  0  0  0
   -0.1923   -0.1254    1.5359 H   0  0  0  0  0  0  0  0  0  0  0  0
    0.3964   -4.1427    0.1403 H   0  0  0  0  0  0  0  0  0  0  0  0
    2.6639   -5.1279    0.3096 H   0  0  0  0  0  0  0  0  0  0  0  0
    4.6561   -3.6582    0.4308 H   0  0  0  0  0  0  0  0  0  0  0  0
    4.3989   -1.2000    0.3433 H   0  0  0  0  0  0  0  0  0  0  0  0
    0.5119    0.4529   -1.3896 H   0  0  0  0  0  0  0  0  0  0  0  0
    1.9106    2.9484   -1.4571 H   0  0  0  0  0  0  0  0  0  0  0  0
    0.9237    5.2770   -0.5394 H   0  0  0  0  0  0  0  0  0  0  0  0
  2  1  1  0  0  0  0
  3  2  2  0  0  0  0
  3 24  1  0  0  0  0
  4  3  1  0  0  0  0
  4 25  1  0  0  0  0
  5  4  2  0  0  0  0
  6  5  1  0  0  0  0
  6 26  1  0  0  0  0
  7  6  2  0  0  0  0
  7  2  1  0  0  0  0
  7 27  1  0  0  0  0
  8  5  1  0  0  0  0
  8 28  1  1  0  0  0
  9  8  1  0  0  0  0
 10  9  1  0  0  0  0
 11 10  2  0  0  0  0
 11 29  1  0  0  0  0
 12 11  1  0  0  0  0
 12 30  1  0  0  0  0
 13 12  2  0  0  0  0
 13 31  1  0  0  0  0
 14 13  1  0  0  0  0
 14 32  1  0  0  0  0
 15 14  2  0  0  0  0
 15 10  1  0  0  0  0
 16 15  1  0  0  0  0
 17 16  2  0  0  0  0
 18 16  1  0  0  0  0
 18  8  1  0  0  0  0
 18 33  1  6  0  0  0
 19 18  1  0  0  0  0
 20 19  1  0  0  0  0
 20 34  1  0  0  0  0
 21 20  2  0  0  0  0
 21 35  1  0  0  0  0
 22 21  1  0  0  0  0
 23 22  2  0  0  0  0
 23 19  1  0  0  0  0
M  END
>  <MOL Chiral Flag>
0

>  <energy>
49.423290265907859

$$$$
> 235_AKC_j.exppara.2019.01.011
>227.sdf
 OpenBabel10052220443D

 52 56  0  0  0  0  0  0  0  0999 V2000
   -2.8184    2.2655    2.3733 C   0  0  0  0  0  0  0  0  0  0  0  0
   -2.8701    2.7690    0.9283 C   0  0  0  0  0  0  0  0  0  0  0  0
   -2.6853    1.6407   -0.0681 C   0  0  0  0  0  0  0  0  0  0  0  0
   -3.7787    1.2786   -0.8730 C   0  0  0  0  0  0  0  0  0  0  0  0
   -3.6653    0.2579   -1.8108 C   0  0  0  0  0  0  0  0  0  0  0  0
   -2.4677   -0.4336   -1.9538 C   0  0  0  0  0  0  0  0  0  0  0  0
   -1.3552   -0.1166   -1.1542 C   0  0  0  0  0  0  0  0  0  0  0  0
   -1.4468    0.9527   -0.2237 C   0  0  0  0  0  0  0  0  0  0  0  0
   -0.2818    1.3645    0.4977 N   0  0  0  0  0  0  0  0  0  0  0  0
    1.0355    0.8911    0.1138 C   0  0  1  0  0  0  0  0  0  0  0  0
    0.9750   -0.6196   -0.2039 C   0  0  2  0  0  0  0  0  0  0  0  0
    2.3516   -1.2224   -0.5562 C   0  0  0  0  0  0  0  0  0  0  0  0
   -0.0613   -0.9069   -1.3300 C   0  0  1  0  0  0  0  0  0  0  0  0
   -0.3461   -2.4035   -1.3902 C   0  0  0  0  0  0  0  0  0  0  0  0
   -0.9548   -3.0674   -0.3067 C   0  0  0  0  0  0  0  0  0  0  0  0
   -1.2140   -4.4391   -0.3758 C   0  0  0  0  0  0  0  0  0  0  0  0
   -0.8715   -5.1603   -1.5219 C   0  0  0  0  0  0  0  0  0  0  0  0
   -0.2702   -4.5113   -2.6029 C   0  0  0  0  0  0  0  0  0  0  0  0
   -0.0086   -3.1393   -2.5408 C   0  0  0  0  0  0  0  0  0  0  0  0
    1.6272    1.7591   -1.0003 C   0  0  0  0  0  0  0  0  0  0  0  0
    1.1510    1.8729   -2.1191 O   0  0  0  0  0  0  0  0  0  0  0  0
    2.7413    2.4110   -0.6211 N   0  0  0  0  0  0  0  0  0  0  0  0
    3.0003    2.0928    0.7070 C   0  0  0  0  0  0  0  0  0  0  0  0
    4.0502    2.5597    1.4939 C   0  0  0  0  0  0  0  0  0  0  0  0
    4.1253    2.1207    2.8267 C   0  0  0  0  0  0  0  0  0  0  0  0
    3.1535    1.2335    3.3376 C   0  0  0  0  0  0  0  0  0  0  0  0
    2.1048    0.7815    2.5167 C   0  0  0  0  0  0  0  0  0  0  0  0
    2.0523    1.2277    1.1940 C   0  0  0  0  0  0  0  0  0  0  0  0
   -1.8492    1.7926    2.6249 H   0  0  0  0  0  0  0  0  0  0  0  0
   -2.9786    3.1176    3.0668 H   0  0  0  0  0  0  0  0  0  0  0  0
   -3.6239    1.5188    2.5406 H   0  0  0  0  0  0  0  0  0  0  0  0
   -3.8685    3.2410    0.7975 H   0  0  0  0  0  0  0  0  0  0  0  0
   -2.1159    3.5644    0.7505 H   0  0  0  0  0  0  0  0  0  0  0  0
   -4.7258    1.7950   -0.7768 H   0  0  0  0  0  0  0  0  0  0  0  0
   -4.5153   -0.0040   -2.4278 H   0  0  0  0  0  0  0  0  0  0  0  0
   -2.4078   -1.2290   -2.6861 H   0  0  0  0  0  0  0  0  0  0  0  0
   -0.3237    2.2214    1.0657 H   0  0  0  0  0  0  0  0  0  0  0  0
    0.6236   -1.1020    0.7349 H   0  0  0  0  0  0  0  0  0  0  0  0
    2.2714   -2.3186   -0.7101 H   0  0  0  0  0  0  0  0  0  0  0  0
    3.0776   -1.0597    0.2672 H   0  0  0  0  0  0  0  0  0  0  0  0
    2.7556   -0.7646   -1.4838 H   0  0  0  0  0  0  0  0  0  0  0  0
    0.3612   -0.5801   -2.3056 H   0  0  0  0  0  0  0  0  0  0  0  0
   -1.2314   -2.5216    0.5864 H   0  0  0  0  0  0  0  0  0  0  0  0
   -1.6822   -4.9431    0.4598 H   0  0  0  0  0  0  0  0  0  0  0  0
   -1.0735   -6.2224   -1.5730 H   0  0  0  0  0  0  0  0  0  0  0  0
   -0.0068   -5.0717   -3.4905 H   0  0  0  0  0  0  0  0  0  0  0  0
    0.4577   -2.6510   -3.3872 H   0  0  0  0  0  0  0  0  0  0  0  0
    3.2957    3.0478   -1.2122 H   0  0  0  0  0  0  0  0  0  0  0  0
    4.7869    3.2427    1.0915 H   0  0  0  0  0  0  0  0  0  0  0  0
    4.9293    2.4656    3.4637 H   0  0  0  0  0  0  0  0  0  0  0  0
    3.2153    0.9000    4.3652 H   0  0  0  0  0  0  0  0  0  0  0  0
    1.3563    0.1016    2.9018 H   0  0  0  0  0  0  0  0  0  0  0  0
  1 29  1  0  0  0  0
  1 30  1  0  0  0  0
  1 31  1  0  0  0  0
  2  1  1  0  0  0  0
  2 32  1  0  0  0  0
  2 33  1  0  0  0  0
  3  2  1  0  0  0  0
  4  3  2  0  0  0  0
  4 34  1  0  0  0  0
  5  4  1  0  0  0  0
  5 35  1  0  0  0  0
  6  5  2  0  0  0  0
  6 36  1  0  0  0  0
  7  6  1  0  0  0  0
  8  7  2  0  0  0  0
  8  3  1  0  0  0  0
  9  8  1  0  0  0  0
  9 37  1  0  0  0  0
 10  9  1  1  0  0  0
 11 10  1  0  0  0  0
 11 38  1  1  0  0  0
 12 11  1  0  0  0  0
 12 39  1  0  0  0  0
 12 40  1  0  0  0  0
 12 41  1  0  0  0  0
 13 11  1  0  0  0  0
 13  7  1  0  0  0  0
 13 42  1  6  0  0  0
 14 13  1  0  0  0  0
 15 14  2  0  0  0  0
 15 43  1  0  0  0  0
 16 15  1  0  0  0  0
 16 44  1  0  0  0  0
 17 16  2  0  0  0  0
 17 45  1  0  0  0  0
 18 17  1  0  0  0  0
 18 46  1  0  0  0  0
 19 18  2  0  0  0  0
 19 14  1  0  0  0  0
 19 47  1  0  0  0  0
 20 10  1  0  0  0  0
 21 20  2  0  0  0  0
 22 20  1  0  0  0  0
 22 48  1  0  0  0  0
 23 22  1  0  0  0  0
 24 23  2  0  0  0  0
 24 49  1  0  0  0  0
 25 24  1  0  0  0  0
 25 50  1  0  0  0  0
 26 25  2  0  0  0  0
 26 51  1  0  0  0  0
 27 26  1  0  0  0  0
 27 52  1  0  0  0  0
 28 27  2  0  0  0  0
 28 10  1  0  0  0  0
 28 23  1  0  0  0  0
M  END
>  <MOL Chiral Flag>
0

>  <energy>
95.616899101158097

$$$$
> 236_AKC_j.actatropica.2018.12.036
>228.sdf
 OpenBabel10052220453D

 35 37  0  0  0  0  0  0  0  0999 V2000
    5.9889   -4.7225   -1.8612 F   0  0  0  0  0  0  0  0  0  0  0  0
    4.7929   -4.0910   -1.9633 C   0  0  0  0  0  0  0  0  0  0  0  0
    3.7307   -4.4510   -1.1250 C   0  0  0  0  0  0  0  0  0  0  0  0
    2.4881   -3.8040   -1.2360 C   0  0  0  0  0  0  0  0  0  0  0  0
    2.3068   -2.7945   -2.1965 C   0  0  0  0  0  0  0  0  0  0  0  0
    0.9734   -2.1048   -2.4027 C   0  0  0  0  0  0  0  0  0  0  0  0
    0.4596   -1.1982   -1.2566 C   0  0  0  0  0  0  0  0  0  0  0  0
   -0.4736   -0.2513   -1.8516 N   0  0  0  0  0  0  0  0  0  0  0  0
   -1.8774   -0.2278   -1.6293 C   0  0  0  0  0  0  0  0  0  0  0  0
   -2.7109   -0.5492   -2.7090 C   0  0  0  0  0  0  0  0  0  0  0  0
   -4.0930   -0.4445   -2.5857 C   0  0  0  0  0  0  0  0  0  0  0  0
   -4.6429    0.0113   -1.4347 N   0  0  0  0  0  0  0  0  0  0  0  0
   -3.8762    0.3676   -0.3675 C   0  0  0  0  0  0  0  0  0  0  0  0
   -4.4917    0.8993    0.7678 C   0  0  0  0  0  0  0  0  0  0  0  0
   -3.7192    1.3090    1.8561 C   0  0  0  0  0  0  0  0  0  0  0  0
   -4.4996    2.0076    3.2642 Cl  0  0  0  0  0  0  0  0  0  0  0  0
   -2.3269    1.1775    1.8153 C   0  0  0  0  0  0  0  0  0  0  0  0
   -1.6957    0.6481    0.6811 C   0  0  0  0  0  0  0  0  0  0  0  0
   -2.4627    0.2408   -0.4286 C   0  0  0  0  0  0  0  0  0  0  0  0
    3.3894   -2.4420   -3.0308 C   0  0  0  0  0  0  0  0  0  0  0  0
    4.6209   -3.0843   -2.9118 C   0  0  0  0  0  0  0  0  0  0  0  0
    3.8703   -5.2380   -0.3956 H   0  0  0  0  0  0  0  0  0  0  0  0
    1.6718   -4.1018   -0.5916 H   0  0  0  0  0  0  0  0  0  0  0  0
    1.1094   -1.4548   -3.2927 H   0  0  0  0  0  0  0  0  0  0  0  0
    0.1880   -2.8412   -2.6782 H   0  0  0  0  0  0  0  0  0  0  0  0
    1.3068   -0.6106   -0.8437 H   0  0  0  0  0  0  0  0  0  0  0  0
    0.0078   -1.8015   -0.4375 H   0  0  0  0  0  0  0  0  0  0  0  0
   -0.1421    0.2380   -2.6963 H   0  0  0  0  0  0  0  0  0  0  0  0
   -2.2804   -0.8841   -3.6441 H   0  0  0  0  0  0  0  0  0  0  0  0
   -4.7301   -0.7034   -3.4214 H   0  0  0  0  0  0  0  0  0  0  0  0
   -5.5693    1.0148    0.7966 H   0  0  0  0  0  0  0  0  0  0  0  0
   -1.7323    1.5010    2.6602 H   0  0  0  0  0  0  0  0  0  0  0  0
   -0.6173    0.5760    0.6683 H   0  0  0  0  0  0  0  0  0  0  0  0
    3.2772   -1.6706   -3.7831 H   0  0  0  0  0  0  0  0  0  0  0  0
    5.4390   -2.8036   -3.5644 H   0  0  0  0  0  0  0  0  0  0  0  0
  2  1  1  0  0  0  0
  3  2  2  0  0  0  0
  3 22  1  0  0  0  0
  4  3  1  0  0  0  0
  4 23  1  0  0  0  0
  5  4  2  0  0  0  0
  6  5  1  0  0  0  0
  6 24  1  0  0  0  0
  6 25  1  0  0  0  0
  7  6  1  0  0  0  0
  7 26  1  0  0  0  0
  7 27  1  0  0  0  0
  8  7  1  0  0  0  0
  8 28  1  0  0  0  0
  9  8  1  0  0  0  0
 10  9  2  0  0  0  0
 10 29  1  0  0  0  0
 11 10  1  0  0  0  0
 11 30  1  0  0  0  0
 12 11  2  0  0  0  0
 13 12  1  0  0  0  0
 14 13  2  0  0  0  0
 14 31  1  0  0  0  0
 15 14  1  0  0  0  0
 16 15  1  0  0  0  0
 17 15  2  0  0  0  0
 17 32  1  0  0  0  0
 18 17  1  0  0  0  0
 18 33  1  0  0  0  0
 19 18  2  0  0  0  0
 19  9  1  0  0  0  0
 19 13  1  0  0  0  0
 20  5  1  0  0  0  0
 20 34  1  0  0  0  0
 21 20  2  0  0  0  0
 21  2  1  0  0  0  0
 21 35  1  0  0  0  0
M  END
>  <MOL Chiral Flag>
0

>  <energy>
61.312169736695139

$$$$
> 237_AKC_j.jmgm.2018.11.014
>229.sdf
 OpenBabel10052220463D

 32 32  0  0  0  0  0  0  0  0999 V2000
    4.2832   -0.4251   -0.3687 O   0  0  0  0  0  0  0  0  0  0  0  0
    2.9776   -0.2712   -0.8528 C   0  0  0  0  0  0  0  0  0  0  0  0
    1.9941   -0.9259    0.1290 C   0  0  0  0  0  0  0  0  0  0  0  0
    0.5907   -0.9060   -0.3601 N   0  3  1  0  0  0  0  0  0  0  0  0
   -0.2506   -1.8046    0.4740 C   0  0  0  0  0  0  0  0  0  0  0  0
   -1.6575   -1.9862   -0.1385 C   0  0  2  0  0  0  0  0  0  0  0  0
   -1.5587   -2.6147   -1.3920 O   0  0  0  0  0  0  0  0  0  0  0  0
   -2.3491   -0.6208   -0.2995 C   0  0  1  0  0  0  0  0  0  0  0  0
   -2.6416   -0.0963    0.9690 O   0  0  0  0  0  0  0  0  0  0  0  0
   -1.4449    0.3469   -1.1048 C   0  0  2  0  0  0  0  0  0  0  0  0
   -1.3150   -0.1194   -2.4254 O   0  0  0  0  0  0  0  0  0  0  0  0
   -0.0187    0.4614   -0.4840 C   0  0  1  0  0  0  0  0  0  0  0  0
   -0.0022    1.2817    0.8421 C   0  0  0  0  0  0  0  0  0  0  0  0
   -0.6078    2.5348    0.6617 O   0  0  0  0  0  0  0  0  0  0  0  0
    4.8886   -0.2493   -1.1356 H   0  0  0  0  0  0  0  0  0  0  0  0
    2.8797   -0.7836   -1.8382 H   0  0  0  0  0  0  0  0  0  0  0  0
    2.7633    0.8107   -0.9686 H   0  0  0  0  0  0  0  0  0  0  0  0
    2.0850   -0.4706    1.1367 H   0  0  0  0  0  0  0  0  0  0  0  0
    2.3281   -1.9837    0.2331 H   0  0  0  0  0  0  0  0  0  0  0  0
    0.6219   -1.3305   -1.3178 H   0  0  0  0  0  0  0  0  0  0  0  0
   -0.3322   -1.4195    1.5121 H   0  0  0  0  0  0  0  0  0  0  0  0
    0.2127   -2.8142    0.5489 H   0  0  0  0  0  0  0  0  0  0  0  0
   -2.2890   -2.6201    0.5267 H   0  0  0  0  0  0  0  0  0  0  0  0
   -1.3357   -3.5670   -1.2211 H   0  0  0  0  0  0  0  0  0  0  0  0
   -3.3134   -0.7823   -0.8372 H   0  0  0  0  0  0  0  0  0  0  0  0
   -3.3164    0.6199    0.8355 H   0  0  0  0  0  0  0  0  0  0  0  0
   -1.9084    1.3603   -1.1453 H   0  0  0  0  0  0  0  0  0  0  0  0
   -2.1559    0.1105   -2.9008 H   0  0  0  0  0  0  0  0  0  0  0  0
    0.5693    1.0659   -1.2078 H   0  0  0  0  0  0  0  0  0  0  0  0
    1.0353    1.4375    1.2075 H   0  0  0  0  0  0  0  0  0  0  0  0
   -0.5269    0.7724    1.6695 H   0  0  0  0  0  0  0  0  0  0  0  0
    0.0701    3.1261    0.2422 H   0  0  0  0  0  0  0  0  0  0  0  0
  1 15  1  0  0  0  0
  2  1  1  0  0  0  0
  2 16  1  0  0  0  0
  2 17  1  0  0  0  0
  3  2  1  0  0  0  0
  3 18  1  0  0  0  0
  3 19  1  0  0  0  0
  4  3  1  0  0  0  0
  4 20  1  6  0  0  0
  5  4  1  0  0  0  0
  5 21  1  0  0  0  0
  5 22  1  0  0  0  0
  6  5  1  0  0  0  0
  6 23  1  1  0  0  0
  7  6  1  0  0  0  0
  7 24  1  0  0  0  0
  8  6  1  0  0  0  0
  8 25  1  6  0  0  0
  9  8  1  0  0  0  0
  9 26  1  0  0  0  0
 10  8  1  0  0  0  0
 10 27  1  6  0  0  0
 11 10  1  0  0  0  0
 11 28  1  0  0  0  0
 12 10  1  0  0  0  0
 12  4  1  0  0  0  0
 12 29  1  6  0  0  0
 13 12  1  0  0  0  0
 13 30  1  0  0  0  0
 13 31  1  0  0  0  0
 14 13  1  0  0  0  0
 14 32  1  0  0  0  0
M  CHG  1   4   1
M  END
>  <MOL Chiral Flag>
0

>  <energy>
139.88702147130687

$$$$
> 238_AKC_j.bioorg.2018.11.037
>230.sdf
 OpenBabel10052220463D

 64 69  0  0  0  0  0  0  0  0999 V2000
   -5.4704   -6.3631   -7.9848 C   0  0  0  0  0  0  0  0  0  0  0  0
   -5.7396   -6.3601   -6.6316 O   0  0  0  0  0  0  0  0  0  0  0  0
   -4.9178   -5.8656   -5.6675 C   0  0  0  0  0  0  0  0  0  0  0  0
   -3.6675   -5.2923   -5.9606 C   0  0  0  0  0  0  0  0  0  0  0  0
   -2.8563   -4.7937   -4.9351 C   0  0  0  0  0  0  0  0  0  0  0  0
   -3.2704   -4.8565   -3.5824 C   0  0  0  0  0  0  0  0  0  0  0  0
   -4.5336   -5.4383   -3.3098 C   0  0  0  0  0  0  0  0  0  0  0  0
   -5.3371   -5.9312   -4.3399 C   0  0  0  0  0  0  0  0  0  0  0  0
   -2.4391   -4.3344   -2.5128 N   0  0  0  0  0  0  0  0  0  0  0  0
   -2.6186   -4.7406   -1.1198 C   0  0  0  0  0  0  0  0  0  0  0  0
   -2.9970   -3.5078   -0.2996 C   0  0  0  0  0  0  0  0  0  0  0  0
   -1.9740   -2.4793   -0.5037 N   0  0  0  0  0  0  0  0  0  0  0  0
   -1.7612   -2.0804   -1.8972 C   0  0  0  0  0  0  0  0  0  0  0  0
   -1.4127   -3.3147   -2.7414 C   0  0  0  0  0  0  0  0  0  0  0  0
   -1.3296   -1.9187    0.5881 C   0  0  0  0  0  0  0  0  0  0  0  0
   -1.7019   -2.2322    1.7119 O   0  0  0  0  0  0  0  0  0  0  0  0
   -0.2165   -0.9127    0.5127 C   0  0  0  0  0  0  0  0  0  0  0  0
    0.6177   -0.8283   -0.5703 N   0  0  0  0  0  0  0  0  0  0  0  0
    1.6471    0.0718   -0.6692 C   0  0  0  0  0  0  0  0  0  0  0  0
    1.8791    0.9374    0.4352 C   0  0  0  0  0  0  0  0  0  0  0  0
    2.8548    1.8738    0.6741 N   0  0  0  0  0  0  0  0  0  0  0  0
    3.9903    2.2619   -0.1707 C   0  0  0  0  0  0  0  0  0  0  0  0
    2.6007    2.3640    1.9199 C   0  0  0  0  0  0  0  0  0  0  0  0
    1.5010    1.7458    2.4662 C   0  0  0  0  0  0  0  0  0  0  0  0
    1.0304    2.0560    3.7413 C   0  0  0  0  0  0  0  0  0  0  0  0
    1.7108    3.0414    4.4749 C   0  0  0  0  0  0  0  0  0  0  0  0
    2.8395    3.6858    3.9248 C   0  0  0  0  0  0  0  0  0  0  0  0
    3.2974    3.3488    2.6373 C   0  0  0  0  0  0  0  0  0  0  0  0
    1.0562    0.8377    1.5395 C   0  0  0  0  0  0  0  0  0  0  0  0
    0.0102   -0.0670    1.6148 C   0  0  0  0  0  0  0  0  0  0  0  0
    2.4460    0.0537   -1.9125 C   0  0  0  0  0  0  0  0  0  0  0  0
    2.9938   -1.1599   -2.3623 C   0  0  0  0  0  0  0  0  0  0  0  0
    3.7468   -1.2012   -3.5399 C   0  0  0  0  0  0  0  0  0  0  0  0
    3.9366   -0.0383   -4.2902 C   0  0  0  0  0  0  0  0  0  0  0  0
    3.3634    1.1644   -3.8701 C   0  0  0  0  0  0  0  0  0  0  0  0
    2.6156    1.2099   -2.6892 C   0  0  0  0  0  0  0  0  0  0  0  0
   -4.5548   -6.9561   -8.1941 H   0  0  0  0  0  0  0  0  0  0  0  0
   -5.3492   -5.3230   -8.3555 H   0  0  0  0  0  0  0  0  0  0  0  0
   -6.3221   -6.8304   -8.5207 H   0  0  0  0  0  0  0  0  0  0  0  0
   -3.3121   -5.2293   -6.9802 H   0  0  0  0  0  0  0  0  0  0  0  0
   -1.9017   -4.3823   -5.2185 H   0  0  0  0  0  0  0  0  0  0  0  0
   -4.9317   -5.4998   -2.3111 H   0  0  0  0  0  0  0  0  0  0  0  0
   -6.3008   -6.3649   -4.1020 H   0  0  0  0  0  0  0  0  0  0  0  0
   -3.3640   -5.5395   -0.9699 H   0  0  0  0  0  0  0  0  0  0  0  0
   -1.6583   -5.1535   -0.7399 H   0  0  0  0  0  0  0  0  0  0  0  0
   -3.1210   -3.8081    0.7623 H   0  0  0  0  0  0  0  0  0  0  0  0
   -3.9785   -3.1258   -0.6570 H   0  0  0  0  0  0  0  0  0  0  0  0
   -1.0252   -1.2858   -2.0602 H   0  0  0  0  0  0  0  0  0  0  0  0
   -2.7194   -1.6684   -2.2845 H   0  0  0  0  0  0  0  0  0  0  0  0
   -1.3386   -2.9785   -3.7902 H   0  0  0  0  0  0  0  0  0  0  0  0
   -0.4219   -3.7113   -2.4303 H   0  0  0  0  0  0  0  0  0  0  0  0
    4.6852    2.9423    0.3533 H   0  0  0  0  0  0  0  0  0  0  0  0
    3.6548    2.8296   -1.0511 H   0  0  0  0  0  0  0  0  0  0  0  0
    4.5729    1.3623   -0.4588 H   0  0  0  0  0  0  0  0  0  0  0  0
    0.1661    1.5556    4.1580 H   0  0  0  0  0  0  0  0  0  0  0  0
    1.3685    3.3067    5.4668 H   0  0  0  0  0  0  0  0  0  0  0  0
    3.3572    4.4440    4.4979 H   0  0  0  0  0  0  0  0  0  0  0  0
    4.1620    3.8536    2.2345 H   0  0  0  0  0  0  0  0  0  0  0  0
   -0.6088   -0.1150    2.5020 H   0  0  0  0  0  0  0  0  0  0  0  0
    2.8552   -2.0682   -1.7882 H   0  0  0  0  0  0  0  0  0  0  0  0
    4.1828   -2.1350   -3.8704 H   0  0  0  0  0  0  0  0  0  0  0  0
    4.5176   -0.0717   -5.2028 H   0  0  0  0  0  0  0  0  0  0  0  0
    3.4930    2.0607   -4.4627 H   0  0  0  0  0  0  0  0  0  0  0  0
    2.1486    2.1394   -2.3938 H   0  0  0  0  0  0  0  0  0  0  0  0
  1 37  1  0  0  0  0
  1 38  1  0  0  0  0
  1 39  1  0  0  0  0
  2  1  1  0  0  0  0
  3  2  1  0  0  0  0
  4  3  2  0  0  0  0
  4 40  1  0  0  0  0
  5  4  1  0  0  0  0
  5 41  1  0  0  0  0
  6  5  2  0  0  0  0
  7  6  1  0  0  0  0
  7 42  1  0  0  0  0
  8  7  2  0  0  0  0
  8  3  1  0  0  0  0
  8 43  1  0  0  0  0
  9  6  1  0  0  0  0
 10  9  1  0  0  0  0
 10 44  1  0  0  0  0
 10 45  1  0  0  0  0
 11 10  1  0  0  0  0
 11 46  1  0  0  0  0
 11 47  1  0  0  0  0
 12 11  1  0  0  0  0
 13 12  1  0  0  0  0
 13 48  1  0  0  0  0
 13 49  1  0  0  0  0
 14 13  1  0  0  0  0
 14  9  1  0  0  0  0
 14 50  1  0  0  0  0
 14 51  1  0  0  0  0
 15 12  1  0  0  0  0
 16 15  2  0  0  0  0
 17 15  1  0  0  0  0
 18 17  2  0  0  0  0
 19 18  1  0  0  0  0
 20 19  2  0  0  0  0
 21 20  1  0  0  0  0
 22 21  1  0  0  0  0
 22 52  1  0  0  0  0
 22 53  1  0  0  0  0
 22 54  1  0  0  0  0
 23 21  1  0  0  0  0
 24 23  2  0  0  0  0
 25 24  1  0  0  0  0
 25 55  1  0  0  0  0
 26 25  2  0  0  0  0
 26 56  1  0  0  0  0
 27 26  1  0  0  0  0
 27 57  1  0  0  0  0
 28 27  2  0  0  0  0
 28 23  1  0  0  0  0
 28 58  1  0  0  0  0
 29 24  1  0  0  0  0
 29 20  1  0  0  0  0
 30 29  2  0  0  0  0
 30 17  1  0  0  0  0
 30 59  1  0  0  0  0
 31 19  1  0  0  0  0
 32 31  2  0  0  0  0
 32 60  1  0  0  0  0
 33 32  1  0  0  0  0
 33 61  1  0  0  0  0
 34 33  2  0  0  0  0
 34 62  1  0  0  0  0
 35 34  1  0  0  0  0
 35 63  1  0  0  0  0
 36 35  2  0  0  0  0
 36 31  1  0  0  0  0
 36 64  1  0  0  0  0
M  END
>  <MOL Chiral Flag>
0

>  <energy>
192.80600790530781

$$$$
> 239_AKC_j.bioorg.2018.10.059
>231.sdf
 OpenBabel10102213273D

 55 56  0  0  0  0  0  0  0  0999 V2000
    4.2128   -1.4670   -0.7596 C   0  0  0  0  0  0  0  0  0  0  0  0
    3.2035   -0.6305   -0.0512 C   0  0  0  0  0  0  0  0  0  0  0  0
    3.1296   -0.6993    1.1689 O   0  0  0  0  0  0  0  0  0  0  0  0
    2.4127    0.2425   -0.7523 O   0  0  0  0  0  0  0  0  0  0  0  0
    1.6990    1.2523   -0.1162 C   0  0  2  0  0  0  0  0  0  0  0  0
    0.3555    0.7513    0.5429 C   0  0  1  0  0  0  0  0  0  0  0  0
    0.2793   -0.6388    0.6389 O   0  0  0  0  0  0  0  0  0  0  0  0
    0.1765   -1.4273   -0.4844 C   0  0  0  0  0  0  0  0  0  0  0  0
    0.1614   -0.9094   -1.5958 O   0  0  0  0  0  0  0  0  0  0  0  0
    0.0832   -2.9077   -0.3842 C   0  0  0  0  0  0  0  0  0  0  0  0
   -0.0843   -3.5564    0.9590 C   0  0  0  0  0  0  0  0  0  0  0  0
    0.1393   -3.6682   -1.4963 C   0  0  0  0  0  0  0  0  0  0  0  0
    0.0552    1.4840    1.8855 C   0  0  2  0  0  0  0  0  0  0  0  0
    1.0842    1.2714    3.0665 C   0  0  1  0  0  0  0  0  0  0  0  0
    2.2164    2.3256    3.1834 C   0  0  0  0  0  0  0  0  0  0  0  0
    1.7642    3.7731    3.2432 C   0  0  0  0  0  0  0  0  0  0  0  0
    1.3460    4.3116    4.5886 C   0  0  0  0  0  0  0  0  0  0  0  0
    1.8120    4.6272    2.1799 C   0  0  0  0  0  0  0  0  0  0  0  0
    2.2720    4.3141    0.7640 C   0  0  0  0  0  0  0  0  0  0  0  0
    1.2105    3.7322   -0.1618 C   0  0  0  0  0  0  0  0  0  0  0  0
    0.1429    4.3190   -0.2734 O   0  0  0  0  0  0  0  0  0  0  0  0
    1.4912    2.4967   -1.0322 C   0  0  1  0  0  0  0  0  0  0  0  0
    2.7382    2.7602   -1.9033 C   0  0  0  0  0  0  0  0  0  0  0  0
    0.4137    2.2338   -1.9077 O   0  0  0  0  0  0  0  0  0  0  0  0
    0.3275    1.1855    4.2282 O   0  0  0  0  0  0  0  0  0  0  0  0
   -0.9674    1.0123    3.9601 C   0  0  0  0  0  0  0  0  0  0  0  0
   -1.8117    0.8330    4.8271 O   0  0  0  0  0  0  0  0  0  0  0  0
   -1.2331    1.1295    2.5561 C   0  0  0  0  0  0  0  0  0  0  0  0
   -2.4367    1.0491    1.9777 C   0  0  0  0  0  0  0  0  0  0  0  0
    4.7799   -2.0837   -0.0267 H   0  0  0  0  0  0  0  0  0  0  0  0
    4.9295   -0.8010   -1.2834 H   0  0  0  0  0  0  0  0  0  0  0  0
    3.7099   -2.1343   -1.4856 H   0  0  0  0  0  0  0  0  0  0  0  0
    2.3897    1.5841    0.6474 H   0  0  0  0  0  0  0  0  0  0  0  0
   -0.4910    1.0269   -0.1197 H   0  0  0  0  0  0  0  0  0  0  0  0
    0.7741   -3.2981    1.6108 H   0  0  0  0  0  0  0  0  0  0  0  0
   -0.1480   -4.6637    0.8771 H   0  0  0  0  0  0  0  0  0  0  0  0
   -1.0258   -3.1911    1.4200 H   0  0  0  0  0  0  0  0  0  0  0  0
    0.0710   -4.7501   -1.4410 H   0  0  0  0  0  0  0  0  0  0  0  0
    0.2636   -3.2212   -2.4796 H   0  0  0  0  0  0  0  0  0  0  0  0
   -0.0771    2.5626    1.6901 H   0  0  0  0  0  0  0  0  0  0  0  0
    1.5535    0.2688    2.9749 H   0  0  0  0  0  0  0  0  0  0  0  0
    2.7960    2.1017    4.1052 H   0  0  0  0  0  0  0  0  0  0  0  0
    3.0094    2.2209    2.4340 H   0  0  0  0  0  0  0  0  0  0  0  0
    1.0915    5.3926    4.5541 H   0  0  0  0  0  0  0  0  0  0  0  0
    2.1896    4.1913    5.3025 H   0  0  0  0  0  0  0  0  0  0  0  0
    0.4667    3.7565    4.9690 H   0  0  0  0  0  0  0  0  0  0  0  0
    1.5442    5.6657    2.3557 H   0  0  0  0  0  0  0  0  0  0  0  0
    3.2299    3.7588    0.7708 H   0  0  0  0  0  0  0  0  0  0  0  0
    2.5067    5.2982    0.3046 H   0  0  0  0  0  0  0  0  0  0  0  0
    2.5764    3.6572   -2.5397 H   0  0  0  0  0  0  0  0  0  0  0  0
    3.6494    2.9131   -1.2932 H   0  0  0  0  0  0  0  0  0  0  0  0
    2.9175    1.8999   -2.5840 H   0  0  0  0  0  0  0  0  0  0  0  0
    0.2418    3.0441   -2.4560 H   0  0  0  0  0  0  0  0  0  0  0  0
   -3.3186    0.8287    2.5704 H   0  0  0  0  0  0  0  0  0  0  0  0
   -2.5484    1.2061    0.9111 H   0  0  0  0  0  0  0  0  0  0  0  0
  1 30  1  0  0  0  0
  1 31  1  0  0  0  0
  1 32  1  0  0  0  0
  2  1  1  0  0  0  0
  3  2  2  0  0  0  0
  4  2  1  0  0  0  0
  5  4  1  0  0  0  0
  5 33  1  1  0  0  0
  6  5  1  0  0  0  0
  6 34  1  6  0  0  0
  7  6  1  0  0  0  0
  8  7  1  0  0  0  0
  9  8  2  0  0  0  0
 10  8  1  0  0  0  0
 11 10  1  0  0  0  0
 11 35  1  0  0  0  0
 11 36  1  0  0  0  0
 11 37  1  0  0  0  0
 12 10  2  0  0  0  0
 12 38  1  0  0  0  0
 12 39  1  0  0  0  0
 13  6  1  0  0  0  0
 13 40  1  6  0  0  0
 14 13  1  0  0  0  0
 14 41  1  6  0  0  0
 15 14  1  0  0  0  0
 15 42  1  0  0  0  0
 15 43  1  0  0  0  0
 16 15  1  0  0  0  0
 17 16  1  0  0  0  0
 17 44  1  0  0  0  0
 17 45  1  0  0  0  0
 17 46  1  0  0  0  0
 18 16  2  0  0  0  0
 18 47  1  0  0  0  0
 19 18  1  0  0  0  0
 19 48  1  0  0  0  0
 19 49  1  0  0  0  0
 20 19  1  0  0  0  0
 21 20  2  0  0  0  0
 22 20  1  0  0  0  0
 22  5  1  0  0  0  0
 22 23  1  6  0  0  0
 23 50  1  0  0  0  0
 23 51  1  0  0  0  0
 23 52  1  0  0  0  0
 24 22  1  0  0  0  0
 24 53  1  0  0  0  0
 25 14  1  0  0  0  0
 26 25  1  0  0  0  0
 27 26  2  0  0  0  0
 28 26  1  0  0  0  0
 28 13  1  0  0  0  0
 29 28  2  0  0  0  0
 29 54  1  0  0  0  0
 29 55  1  0  0  0  0
M  END
>  <MOL Chiral Flag>
0

>  <energy>
137.95121044236828

$$$$
> 240_AKC_j.bioorg.2018.10.028
>232.sdf
 OpenBabel10052220473D

 31 33  0  0  0  0  0  0  0  0999 V2000
   -4.8477    0.5585    1.0262 C   0  0  0  0  0  0  0  0  0  0  0  0
   -4.5887   -0.3014   -0.0217 O   0  0  0  0  0  0  0  0  0  0  0  0
   -3.4002   -0.9347   -0.1144 C   0  0  0  0  0  0  0  0  0  0  0  0
   -2.2019   -0.2191   -0.2716 C   0  0  0  0  0  0  0  0  0  0  0  0
   -0.9701   -0.8970   -0.2570 C   0  0  0  0  0  0  0  0  0  0  0  0
   -0.9503   -2.2900   -0.0867 C   0  0  0  0  0  0  0  0  0  0  0  0
   -2.1499   -3.0016    0.0115 C   0  0  0  0  0  0  0  0  0  0  0  0
   -3.3699   -2.3251   -0.0073 C   0  0  0  0  0  0  0  0  0  0  0  0
    0.2896   -0.1454   -0.4128 C   0  0  0  0  0  0  0  0  0  0  0  0
    1.3536   -0.4304    0.3885 N   0  0  0  0  0  0  0  0  0  0  0  0
    2.5143    0.2701    0.2905 C   0  0  0  0  0  0  0  0  0  0  0  0
    2.6518    1.2689   -0.6937 C   0  0  0  0  0  0  0  0  0  0  0  0
    3.8616    1.9789   -0.8023 C   0  0  0  0  0  0  0  0  0  0  0  0
    4.9095    1.7108    0.0829 C   0  0  0  0  0  0  0  0  0  0  0  0
    4.7612    0.7356    1.0738 C   0  0  0  0  0  0  0  0  0  0  0  0
    3.5690    0.0106    1.1749 C   0  0  0  0  0  0  0  0  0  0  0  0
    1.5578    1.5301   -1.5331 C   0  0  0  0  0  0  0  0  0  0  0  0
    1.6312    2.3753   -2.4080 O   0  0  0  0  0  0  0  0  0  0  0  0
    0.3896    0.8329   -1.3563 N   0  0  0  0  0  0  0  0  0  0  0  0
   -4.1523    1.4238    1.0249 H   0  0  0  0  0  0  0  0  0  0  0  0
   -4.7348    0.0046    1.9860 H   0  0  0  0  0  0  0  0  0  0  0  0
   -5.8926    0.9215    0.9602 H   0  0  0  0  0  0  0  0  0  0  0  0
   -2.2262    0.8604   -0.3667 H   0  0  0  0  0  0  0  0  0  0  0  0
   -0.0107   -2.8275   -0.0681 H   0  0  0  0  0  0  0  0  0  0  0  0
   -2.1361   -4.0780    0.1133 H   0  0  0  0  0  0  0  0  0  0  0  0
   -4.2959   -2.8759    0.0952 H   0  0  0  0  0  0  0  0  0  0  0  0
    3.9904    2.7431   -1.5587 H   0  0  0  0  0  0  0  0  0  0  0  0
    5.8353    2.2660    0.0048 H   0  0  0  0  0  0  0  0  0  0  0  0
    5.5721    0.5412    1.7638 H   0  0  0  0  0  0  0  0  0  0  0  0
    3.4627   -0.7422    1.9461 H   0  0  0  0  0  0  0  0  0  0  0  0
   -0.4223    1.0361   -1.9844 H   0  0  0  0  0  0  0  0  0  0  0  0
  1 20  1  0  0  0  0
  1 21  1  0  0  0  0
  1 22  1  0  0  0  0
  2  1  1  0  0  0  0
  3  2  1  0  0  0  0
  4  3  2  0  0  0  0
  4 23  1  0  0  0  0
  5  4  1  0  0  0  0
  6  5  2  0  0  0  0
  6 24  1  0  0  0  0
  7  6  1  0  0  0  0
  7 25  1  0  0  0  0
  8  7  2  0  0  0  0
  8  3  1  0  0  0  0
  8 26  1  0  0  0  0
  9  5  1  0  0  0  0
 10  9  2  0  0  0  0
 11 10  1  0  0  0  0
 12 11  2  0  0  0  0
 13 12  1  0  0  0  0
 13 27  1  0  0  0  0
 14 13  2  0  0  0  0
 14 28  1  0  0  0  0
 15 14  1  0  0  0  0
 15 29  1  0  0  0  0
 16 15  2  0  0  0  0
 16 11  1  0  0  0  0
 16 30  1  0  0  0  0
 17 12  1  0  0  0  0
 18 17  2  0  0  0  0
 19 17  1  0  0  0  0
 19  9  1  0  0  0  0
 19 31  1  0  0  0  0
M  END
>  <MOL Chiral Flag>
0

>  <energy>
12.930747161383621

$$$$
> 241_AKC_j.ejmech.2018.12.034
>233.sdf
 OpenBabel10052220483D

 56 58  0  0  0  0  0  0  0  0999 V2000
   -6.8458   -1.8976   -1.2203 N   0  3  0  0  0  0  0  0  0  0  0  0
   -6.1674   -1.5912    0.0397 C   0  0  0  0  0  0  0  0  0  0  0  0
   -4.6183   -1.4999   -0.0627 C   0  0  0  0  0  0  0  0  0  0  0  0
   -4.1120   -0.3559   -0.8797 N   0  3  0  0  0  0  0  0  0  0  0  0
   -3.8938   -0.7698   -2.2958 C   0  0  0  0  0  0  0  0  0  0  0  0
   -3.8887    0.4375   -3.2681 C   0  0  0  0  0  0  0  0  0  0  0  0
   -3.5058    0.0279   -4.6188 N   0  3  0  0  0  0  0  0  0  0  0  0
   -2.8301    0.1856   -0.3083 C   0  0  0  0  0  0  0  0  0  0  0  0
   -3.0736    1.1468    0.8844 C   0  0  0  0  0  0  0  0  0  0  0  0
   -1.8814    1.9305    1.3003 N   0  3  0  0  0  0  0  0  0  0  0  0
   -0.9544    1.2217    2.2039 C   0  0  0  0  0  0  0  0  0  0  0  0
   -0.0250    2.1990    2.9318 C   0  0  0  0  0  0  0  0  0  0  0  0
    0.9169    2.9924    2.2279 C   0  0  0  0  0  0  0  0  0  0  0  0
    1.7469    3.8706    2.9484 C   0  0  0  0  0  0  0  0  0  0  0  0
    1.6476    3.9672    4.3210 C   0  0  0  0  0  0  0  0  0  0  0  0
    0.7317    3.2091    5.0416 C   0  0  0  0  0  0  0  0  0  0  0  0
   -0.1054    2.3206    4.3449 C   0  0  0  0  0  0  0  0  0  0  0  0
    2.6157    4.9290    4.7869 C   0  0  0  0  0  0  0  0  0  0  0  0
    2.8995    5.3626    6.0860 C   0  0  0  0  0  0  0  0  0  0  0  0
    3.9151    6.3175    6.2662 C   0  0  0  0  0  0  0  0  0  0  0  0
    4.6225    6.8186    5.1555 C   0  0  0  0  0  0  0  0  0  0  0  0
    4.3166    6.3673    3.8583 C   0  0  0  0  0  0  0  0  0  0  0  0
    3.3036    5.4162    3.6972 C   0  0  0  0  0  0  0  0  0  0  0  0
    2.8194    4.7946    2.4037 C   0  0  0  0  0  0  0  0  0  0  0  0
   -6.7564   -1.1044   -1.8930 H   0  0  0  0  0  0  0  0  0  0  0  0
   -7.8654   -2.0337   -1.0246 H   0  0  0  0  0  0  0  0  0  0  0  0
   -6.4718   -2.7843   -1.6295 H   0  0  0  0  0  0  0  0  0  0  0  0
   -6.5746   -0.6448    0.4595 H   0  0  0  0  0  0  0  0  0  0  0  0
   -6.4073   -2.4029    0.7635 H   0  0  0  0  0  0  0  0  0  0  0  0
   -4.1907   -2.4679   -0.4109 H   0  0  0  0  0  0  0  0  0  0  0  0
   -4.2918   -1.3855    0.9922 H   0  0  0  0  0  0  0  0  0  0  0  0
   -4.8347    0.4028   -0.8711 H   0  0  0  0  0  0  0  0  0  0  0  0
   -4.6922   -1.4522   -2.6530 H   0  0  0  0  0  0  0  0  0  0  0  0
   -2.9406   -1.3385   -2.3773 H   0  0  0  0  0  0  0  0  0  0  0  0
   -3.1828    1.2264   -2.9440 H   0  0  0  0  0  0  0  0  0  0  0  0
   -4.9042    0.8936   -3.2883 H   0  0  0  0  0  0  0  0  0  0  0  0
   -2.5265   -0.3409   -4.6079 H   0  0  0  0  0  0  0  0  0  0  0  0
   -3.5376    0.8610   -5.2508 H   0  0  0  0  0  0  0  0  0  0  0  0
   -4.1568   -0.7041   -4.9828 H   0  0  0  0  0  0  0  0  0  0  0  0
   -2.3017    0.7954   -1.0646 H   0  0  0  0  0  0  0  0  0  0  0  0
   -2.1329   -0.6384   -0.0343 H   0  0  0  0  0  0  0  0  0  0  0  0
   -3.5263    0.6195    1.7513 H   0  0  0  0  0  0  0  0  0  0  0  0
   -3.8291    1.8817    0.5294 H   0  0  0  0  0  0  0  0  0  0  0  0
   -2.2537    2.7517    1.8325 H   0  0  0  0  0  0  0  0  0  0  0  0
   -1.3689    2.3018    0.4663 H   0  0  0  0  0  0  0  0  0  0  0  0
   -0.3576    0.4705    1.6421 H   0  0  0  0  0  0  0  0  0  0  0  0
   -1.5459    0.6714    2.9688 H   0  0  0  0  0  0  0  0  0  0  0  0
    1.0060    2.9241    1.1514 H   0  0  0  0  0  0  0  0  0  0  0  0
    0.6648    3.2980    6.1185 H   0  0  0  0  0  0  0  0  0  0  0  0
   -0.8181    1.7298    4.9044 H   0  0  0  0  0  0  0  0  0  0  0  0
    2.3557    4.9745    6.9366 H   0  0  0  0  0  0  0  0  0  0  0  0
    4.1567    6.6690    7.2622 H   0  0  0  0  0  0  0  0  0  0  0  0
    5.4051    7.5532    5.3021 H   0  0  0  0  0  0  0  0  0  0  0  0
    4.8595    6.7500    3.0040 H   0  0  0  0  0  0  0  0  0  0  0  0
    3.6327    4.2272    1.9045 H   0  0  0  0  0  0  0  0  0  0  0  0
    2.3956    5.5621    1.7224 H   0  0  0  0  0  0  0  0  0  0  0  0
  1 25  1  0  0  0  0
  1 26  1  0  0  0  0
  1 27  1  0  0  0  0
  2  1  1  0  0  0  0
  2 28  1  0  0  0  0
  2 29  1  0  0  0  0
  3  2  1  0  0  0  0
  3 30  1  0  0  0  0
  3 31  1  0  0  0  0
  4  3  1  0  0  0  0
  4 32  1  0  0  0  0
  5  4  1  0  0  0  0
  5 33  1  0  0  0  0
  5 34  1  0  0  0  0
  6  5  1  0  0  0  0
  6 35  1  0  0  0  0
  6 36  1  0  0  0  0
  7  6  1  0  0  0  0
  7 37  1  0  0  0  0
  7 38  1  0  0  0  0
  7 39  1  0  0  0  0
  8  4  1  0  0  0  0
  8 40  1  0  0  0  0
  8 41  1  0  0  0  0
  9  8  1  0  0  0  0
  9 42  1  0  0  0  0
  9 43  1  0  0  0  0
 10  9  1  0  0  0  0
 10 44  1  0  0  0  0
 10 45  1  0  0  0  0
 11 10  1  0  0  0  0
 11 46  1  0  0  0  0
 11 47  1  0  0  0  0
 12 11  1  0  0  0  0
 13 12  2  0  0  0  0
 13 48  1  0  0  0  0
 14 13  1  0  0  0  0
 15 14  2  0  0  0  0
 16 15  1  0  0  0  0
 16 49  1  0  0  0  0
 17 16  2  0  0  0  0
 17 12  1  0  0  0  0
 17 50  1  0  0  0  0
 18 15  1  0  0  0  0
 19 18  2  0  0  0  0
 19 51  1  0  0  0  0
 20 19  1  0  0  0  0
 20 52  1  0  0  0  0
 21 20  2  0  0  0  0
 21 53  1  0  0  0  0
 22 21  1  0  0  0  0
 22 54  1  0  0  0  0
 23 22  2  0  0  0  0
 23 18  1  0  0  0  0
 24 23  1  0  0  0  0
 24 14  1  0  0  0  0
 24 55  1  0  0  0  0
 24 56  1  0  0  0  0
M  CHG  4   1   1   4   1   7   1  10   1
M  END
>  <MOL Chiral Flag>
0

>  <energy>
117.20807889232348

$$$$
> 242_AKC_j.ejmech.2018.10.065
>234.sdf
 OpenBabel10052220483D

 70 75  0  0  0  0  0  0  0  0999 V2000
    1.5554   -5.5548   -0.5950 C   0  0  0  0  0  0  0  0  0  0  0  0
    1.3935   -4.8871    0.6021 O   0  0  0  0  0  0  0  0  0  0  0  0
    1.6047   -3.5573    0.7914 C   0  0  0  0  0  0  0  0  0  0  0  0
    2.0910   -2.7183   -0.2276 C   0  0  0  0  0  0  0  0  0  0  0  0
    2.2708   -1.3514    0.0081 C   0  0  0  0  0  0  0  0  0  0  0  0
    1.9556   -0.7855    1.2568 C   0  0  0  0  0  0  0  0  0  0  0  0
    1.5126   -1.6439    2.2801 C   0  0  0  0  0  0  0  0  0  0  0  0
    1.3326   -3.0091    2.0458 C   0  0  0  0  0  0  0  0  0  0  0  0
    2.1414    0.7211    1.4618 C   0  0  2  0  0  0  0  0  0  0  0  0
    1.6717    1.3547    2.7887 C   0  0  0  0  0  0  0  0  0  0  0  0
    0.1374    1.5444    2.8986 C   0  0  2  0  0  0  0  0  0  0  0  0
   -0.6205    0.3320    3.4289 C   0  0  0  0  0  0  0  0  0  0  0  0
   -0.3893   -0.0827    4.7547 C   0  0  0  0  0  0  0  0  0  0  0  0
   -1.0644   -1.1846    5.2849 C   0  0  0  0  0  0  0  0  0  0  0  0
   -1.9860   -1.8922    4.5012 C   0  0  0  0  0  0  0  0  0  0  0  0
   -2.7154   -3.0774    5.0613 C   0  0  0  0  0  0  0  0  0  0  0  0
   -2.2268   -1.4859    3.1824 C   0  0  0  0  0  0  0  0  0  0  0  0
   -1.5545   -0.3834    2.6477 C   0  0  0  0  0  0  0  0  0  0  0  0
   -0.4389    2.1098    1.6151 C   0  0  0  0  0  0  0  0  0  0  0  0
   -1.7168    2.6861    1.6628 C   0  0  0  0  0  0  0  0  0  0  0  0
   -2.2757    3.2595    0.5318 C   0  0  0  0  0  0  0  0  0  0  0  0
   -1.5749    3.2670   -0.6671 C   0  0  0  0  0  0  0  0  0  0  0  0
   -0.3021    2.6750   -0.7712 C   0  0  0  0  0  0  0  0  0  0  0  0
    0.5904    2.7909   -2.4167 P   0  0  0  0  0  0  0  0  0  0  0  0
    1.1404    1.0708   -2.8356 C   0  0  0  0  0  0  0  0  0  0  0  0
    0.3543   -0.0717   -2.6102 C   0  0  0  0  0  0  0  0  0  0  0  0
    0.8254   -1.3326   -2.9941 C   0  0  0  0  0  0  0  0  0  0  0  0
    2.0846   -1.4629   -3.5877 C   0  0  0  0  0  0  0  0  0  0  0  0
    2.8774   -0.3336   -3.7949 C   0  0  0  0  0  0  0  0  0  0  0  0
    2.4068    0.9266   -3.4216 C   0  0  0  0  0  0  0  0  0  0  0  0
   -0.8058    2.8840   -3.6482 C   0  0  0  0  0  0  0  0  0  0  0  0
   -1.9522    2.0690   -3.5631 C   0  0  0  0  0  0  0  0  0  0  0  0
   -2.9637    2.1697   -4.5218 C   0  0  0  0  0  0  0  0  0  0  0  0
   -2.8432    3.0783   -5.5741 C   0  0  0  0  0  0  0  0  0  0  0  0
   -1.7127    3.8934   -5.6655 C   0  0  0  0  0  0  0  0  0  0  0  0
   -0.6996    3.7990   -4.7053 C   0  0  0  0  0  0  0  0  0  0  0  0
    0.2844    2.0879    0.3933 C   0  0  0  0  0  0  0  0  0  0  0  0
    1.5776    1.4735    0.3457 N   0  0  0  0  0  0  0  0  0  0  0  0
    0.8754   -5.1308   -1.3653 H   0  0  0  0  0  0  0  0  0  0  0  0
    2.6101   -5.4886   -0.9361 H   0  0  0  0  0  0  0  0  0  0  0  0
    1.2978   -6.6240   -0.4503 H   0  0  0  0  0  0  0  0  0  0  0  0
    2.3283   -3.1139   -1.2047 H   0  0  0  0  0  0  0  0  0  0  0  0
    2.6459   -0.7310   -0.7923 H   0  0  0  0  0  0  0  0  0  0  0  0
    1.3172   -1.2770    3.2654 H   0  0  0  0  0  0  0  0  0  0  0  0
    0.9773   -3.6454    2.8470 H   0  0  0  0  0  0  0  0  0  0  0  0
    3.2431    0.8765    1.4306 H   0  0  0  0  0  0  0  0  0  0  0  0
    2.1124    0.8689    3.6847 H   0  0  0  0  0  0  0  0  0  0  0  0
    2.0949    2.3854    2.7658 H   0  0  0  0  0  0  0  0  0  0  0  0
   -0.0012    2.3353    3.6714 H   0  0  0  0  0  0  0  0  0  0  0  0
    0.3177    0.4519    5.3770 H   0  0  0  0  0  0  0  0  0  0  0  0
   -0.8680   -1.4851    6.3066 H   0  0  0  0  0  0  0  0  0  0  0  0
   -2.4844   -3.9781    4.4547 H   0  0  0  0  0  0  0  0  0  0  0  0
   -2.4224   -3.2787    6.1138 H   0  0  0  0  0  0  0  0  0  0  0  0
   -3.8094   -2.8897    5.0322 H   0  0  0  0  0  0  0  0  0  0  0  0
   -2.9366   -2.0261    2.5681 H   0  0  0  0  0  0  0  0  0  0  0  0
   -1.7603   -0.1025    1.6241 H   0  0  0  0  0  0  0  0  0  0  0  0
   -2.2720    2.7043    2.5931 H   0  0  0  0  0  0  0  0  0  0  0  0
   -3.2549    3.7175    0.5877 H   0  0  0  0  0  0  0  0  0  0  0  0
   -2.0315    3.7530   -1.5159 H   0  0  0  0  0  0  0  0  0  0  0  0
   -0.6081   -0.0025   -2.1369 H   0  0  0  0  0  0  0  0  0  0  0  0
    0.2176   -2.2114   -2.8241 H   0  0  0  0  0  0  0  0  0  0  0  0
    2.4493   -2.4392   -3.8792 H   0  0  0  0  0  0  0  0  0  0  0  0
    3.8554   -0.4325   -4.2486 H   0  0  0  0  0  0  0  0  0  0  0  0
    3.0262    1.7979   -3.5960 H   0  0  0  0  0  0  0  0  0  0  0  0
   -2.0825    1.3723   -2.7550 H   0  0  0  0  0  0  0  0  0  0  0  0
   -3.8432    1.5429   -4.4464 H   0  0  0  0  0  0  0  0  0  0  0  0
   -3.6273    3.1524   -6.3166 H   0  0  0  0  0  0  0  0  0  0  0  0
   -1.6206    4.5979   -6.4816 H   0  0  0  0  0  0  0  0  0  0  0  0
    0.1739    4.4328   -4.7888 H   0  0  0  0  0  0  0  0  0  0  0  0
    2.1143    1.4893   -0.5282 H   0  0  0  0  0  0  0  0  0  0  0  0
  1 39  1  0  0  0  0
  1 40  1  0  0  0  0
  1 41  1  0  0  0  0
  2  1  1  0  0  0  0
  3  2  1  0  0  0  0
  4  3  2  0  0  0  0
  4 42  1  0  0  0  0
  5  4  1  0  0  0  0
  5 43  1  0  0  0  0
  6  5  2  0  0  0  0
  7  6  1  0  0  0  0
  7 44  1  0  0  0  0
  8  7  2  0  0  0  0
  8  3  1  0  0  0  0
  8 45  1  0  0  0  0
  9  6  1  0  0  0  0
  9 46  1  6  0  0  0
 10  9  1  0  0  0  0
 10 47  1  0  0  0  0
 10 48  1  0  0  0  0
 11 10  1  0  0  0  0
 11 49  1  1  0  0  0
 12 11  1  0  0  0  0
 13 12  2  0  0  0  0
 13 50  1  0  0  0  0
 14 13  1  0  0  0  0
 14 51  1  0  0  0  0
 15 14  2  0  0  0  0
 16 15  1  0  0  0  0
 16 52  1  0  0  0  0
 16 53  1  0  0  0  0
 16 54  1  0  0  0  0
 17 15  1  0  0  0  0
 17 55  1  0  0  0  0
 18 17  2  0  0  0  0
 18 12  1  0  0  0  0
 18 56  1  0  0  0  0
 19 11  1  0  0  0  0
 20 19  2  0  0  0  0
 20 57  1  0  0  0  0
 21 20  1  0  0  0  0
 21 58  1  0  0  0  0
 22 21  2  0  0  0  0
 22 59  1  0  0  0  0
 23 22  1  0  0  0  0
 24 23  1  0  0  0  0
 25 24  1  0  0  0  0
 26 25  2  0  0  0  0
 26 60  1  0  0  0  0
 27 26  1  0  0  0  0
 27 61  1  0  0  0  0
 28 27  2  0  0  0  0
 28 62  1  0  0  0  0
 29 28  1  0  0  0  0
 29 63  1  0  0  0  0
 30 29  2  0  0  0  0
 30 25  1  0  0  0  0
 30 64  1  0  0  0  0
 31 24  1  0  0  0  0
 32 31  2  0  0  0  0
 32 65  1  0  0  0  0
 33 32  1  0  0  0  0
 33 66  1  0  0  0  0
 34 33  2  0  0  0  0
 34 67  1  0  0  0  0
 35 34  1  0  0  0  0
 35 68  1  0  0  0  0
 36 35  2  0  0  0  0
 36 31  1  0  0  0  0
 36 69  1  0  0  0  0
 37 23  2  0  0  0  0
 37 19  1  0  0  0  0
 38 37  1  0  0  0  0
 38  9  1  0  0  0  0
 38 70  1  0  0  0  0
M  END
>  <MOL Chiral Flag>
0

>  <energy>
143.27955025208735

$$$$
> 243_AKC_journal.pntd.0007643
>N1.sdf
 OpenBabel10102213513D

118123  0  0  1  0  0  0  0  0999 V2000
    2.0493    2.2514    0.0575 O   0  0  0  0  0  0  0  0  0  0  0  0
    0.9103    3.1304   -0.0467 C   0  0  2  0  0  0  0  0  0  0  0  0
    0.9186    3.7550    1.3618 C   0  0  0  0  0  0  0  0  0  0  0  0
    2.4094    3.8814    1.6857 C   0  0  0  0  0  0  0  0  0  0  0  0
    3.1257    2.8246    0.8207 C   0  0  2  0  0  0  0  0  0  0  0  0
   -0.3958    2.3832   -0.4746 C   0  0  1  0  0  0  0  0  0  0  0  0
   -0.8306    1.5079    0.5810 O   0  0  0  0  0  0  0  0  0  0  0  0
   -2.2685    1.4693    0.7000 C   0  0  1  0  0  0  0  0  0  0  0  0
   -2.8046    0.5283   -0.2773 O   0  0  0  0  0  0  0  0  0  0  0  0
   -2.4179   -0.8642   -0.1977 C   0  0  1  0  0  0  0  0  0  0  0  0
   -2.7419   -1.4103    1.2212 C   0  0  0  0  0  0  0  0  0  0  0  0
   -2.2263   -0.4849    2.3662 C   0  0  2  0  0  0  0  0  0  0  0  0
   -2.7584    0.9706    2.1120 C   0  0  1  0  0  0  0  0  0  0  0  0
   -1.6068    3.2959   -0.7544 C   0  0  0  0  0  0  0  0  0  0  0  0
   -2.6233    2.9323    0.3296 C   0  0  1  0  0  0  0  0  0  0  0  0
    4.0784    3.5738   -0.1506 C   0  0  0  0  0  0  0  0  0  0  0  0
    3.8402    1.6577    1.5978 C   0  0  2  0  0  0  0  0  0  0  0  0
    2.9506    0.8776    2.4175 O   0  0  0  0  0  0  0  0  0  0  0  0
    3.7028    0.0472    3.3224 C   0  0  2  0  0  0  0  0  0  0  0  0
    5.0784    0.7228    3.4827 C   0  0  0  0  0  0  0  0  0  0  0  0
    5.0974    1.8827    2.4877 C   0  0  2  0  0  0  0  0  0  0  0  0
   -0.1799    1.6018   -1.7955 C   0  0  0  0  0  0  0  0  0  0  0  0
   -3.1713   -1.6422   -1.2883 C   0  0  0  0  0  0  0  0  0  0  0  0
   -2.8773   -1.2426   -2.7474 C   0  0  2  0  0  0  0  0  0  0  0  0
   -3.9953   -1.7092   -3.5543 O   0  0  0  0  0  0  0  0  0  0  0  0
   -3.9451   -1.6378   -5.0136 C   0  0  2  0  0  0  0  0  0  0  0  0
   -2.6782   -2.4728   -5.4380 C   0  0  2  0  0  0  0  0  0  0  0  0
   -1.4038   -1.8886   -4.7776 C   0  0  0  0  0  0  0  0  0  0  0  0
   -1.5444   -1.8758   -3.2355 C   0  0  0  0  0  0  0  0  0  0  0  0
   -0.7948   -0.6528    2.4190 O   0  0  0  0  0  0  0  0  0  0  0  0
   -0.1616   -0.2932    3.6531 C   0  0  0  0  0  0  0  0  0  0  0  0
   -2.6180    1.8956    3.3431 C   0  0  0  0  0  0  0  0  0  0  0  0
   -4.0576    3.2573   -0.1216 C   0  0  0  0  0  0  0  0  0  0  0  0
    3.7574   -1.4839    3.0017 C   0  0  1  0  0  0  0  0  0  0  0  0
    2.4438   -2.0512    3.2661 O   0  0  0  0  0  0  0  0  0  0  0  0
    1.9348   -3.1595    2.4827 C   0  0  1  0  0  0  0  0  0  0  0  0
    1.8905   -2.6636    0.9985 C   0  0  1  0  0  0  0  0  0  0  0  0
    3.2374   -2.0579    0.5159 C   0  0  0  0  0  0  0  0  0  0  0  0
    4.3405   -1.7889    1.5728 C   0  0  2  0  0  0  0  0  0  0  0  0
    5.2429    3.1574    3.3371 C   0  0  0  0  0  0  0  0  0  0  0  0
   -4.1586   -0.1566   -5.5064 C   0  0  2  0  0  0  0  0  0  0  0  0
   -5.3129    0.4795   -4.9059 C   0  0  0  0  0  0  0  0  0  0  0  0
   -5.1366    1.4625   -4.2008 O   0  0  0  0  0  0  0  0  0  0  0  0
   -2.4125   -2.7815   -6.9213 C   0  0  0  0  0  0  0  0  0  0  0  0
    2.7390   -4.3235    2.6766 O   0  0  0  0  0  0  0  0  0  0  0  0
    0.5559   -3.5509    3.0529 C   0  0  0  0  0  0  0  0  0  0  0  0
    0.5841   -3.8202    4.4503 O   0  0  0  0  0  0  0  0  0  0  0  0
    1.4718   -3.6538   -0.1046 C   0  0  0  0  0  0  0  0  0  0  0  0
    5.3567   -2.9467    1.4834 C   0  0  0  0  0  0  0  0  0  0  0  0
   -4.2112    0.0924   -7.0320 C   0  0  0  0  0  0  0  0  0  0  0  0
   -6.4654    0.0758   -5.0364 O   0  0  0  0  0  0  0  0  0  0  0  0
    4.3765   -1.9348    3.7873 H   0  0  0  0  0  0  0  0  0  0  0  0
    3.2173    0.1649    4.2947 H   0  0  0  0  0  0  0  0  0  0  0  0
    4.1745    0.9687    0.8117 H   0  0  0  0  0  0  0  0  0  0  0  0
    1.1304    3.9205   -0.7794 H   0  0  0  0  0  0  0  0  0  0  0  0
   -4.8158   -2.2211   -5.3305 H   0  0  0  0  0  0  0  0  0  0  0  0
    0.4364    4.7325    1.3576 H   0  0  0  0  0  0  0  0  0  0  0  0
    0.4289    3.0920    2.0751 H   0  0  0  0  0  0  0  0  0  0  0  0
    2.5845    3.6860    2.7437 H   0  0  0  0  0  0  0  0  0  0  0  0
    2.7644    4.8788    1.4266 H   0  0  0  0  0  0  0  0  0  0  0  0
   -1.3458   -0.9476   -0.3759 H   0  0  0  0  0  0  0  0  0  0  0  0
   -2.2758   -2.3896    1.3305 H   0  0  0  0  0  0  0  0  0  0  0  0
   -3.8219   -1.5215    1.3176 H   0  0  0  0  0  0  0  0  0  0  0  0
   -2.6458   -0.8413    3.3070 H   0  0  0  0  0  0  0  0  0  0  0  0
   -3.8346    0.8451    1.9929 H   0  0  0  0  0  0  0  0  0  0  0  0
   -1.3229    4.3456   -0.6788 H   0  0  0  0  0  0  0  0  0  0  0  0
   -2.0172    3.0861   -1.7422 H   0  0  0  0  0  0  0  0  0  0  0  0
   -2.4071    3.5511    1.2005 H   0  0  0  0  0  0  0  0  0  0  0  0
    5.2012    1.0947    4.4999 H   0  0  0  0  0  0  0  0  0  0  0  0
    5.8722    0.0144    3.2457 H   0  0  0  0  0  0  0  0  0  0  0  0
    5.9840    1.7839    1.8614 H   0  0  0  0  0  0  0  0  0  0  0  0
   -4.2386   -1.5036   -1.1160 H   0  0  0  0  0  0  0  0  0  0  0  0
   -2.9418   -2.7014   -1.1719 H   0  0  0  0  0  0  0  0  0  0  0  0
   -2.8089   -0.1570   -2.8180 H   0  0  0  0  0  0  0  0  0  0  0  0
   -2.8151   -3.4473   -4.9692 H   0  0  0  0  0  0  0  0  0  0  0  0
   -1.2527   -0.8688   -5.1316 H   0  0  0  0  0  0  0  0  0  0  0  0
   -0.5433   -2.4972   -5.0554 H   0  0  0  0  0  0  0  0  0  0  0  0
   -1.4966   -2.9033   -2.8749 H   0  0  0  0  0  0  0  0  0  0  0  0
   -0.7120   -1.3147   -2.8108 H   0  0  0  0  0  0  0  0  0  0  0  0
    1.1640   -1.8515    0.9704 H   0  0  0  0  0  0  0  0  0  0  0  0
    3.6555   -2.7450   -0.2198 H   0  0  0  0  0  0  0  0  0  0  0  0
    3.0202   -1.1168    0.0106 H   0  0  0  0  0  0  0  0  0  0  0  0
    4.8654   -0.8889    1.2524 H   0  0  0  0  0  0  0  0  0  0  0  0
   -3.2941    0.4012   -5.1464 H   0  0  0  0  0  0  0  0  0  0  0  0
   -0.1393   -2.7311    2.8720 H   0  0  0  0  0  0  0  0  0  0  0  0
    0.1978   -4.4380    2.5305 H   0  0  0  0  0  0  0  0  0  0  0  0
    2.7824   -4.5298    3.6132 H   0  0  0  0  0  0  0  0  0  0  0  0
    6.1501   -2.7917    2.2145 H   0  0  0  0  0  0  0  0  0  0  0  0
    4.8514   -3.8901    1.6905 H   0  0  0  0  0  0  0  0  0  0  0  0
    5.7861   -2.9767    0.4820 H   0  0  0  0  0  0  0  0  0  0  0  0
    0.6674    0.9253   -1.6837 H   0  0  0  0  0  0  0  0  0  0  0  0
    0.0207    2.3044   -2.6043 H   0  0  0  0  0  0  0  0  0  0  0  0
   -1.0760    1.0264   -2.0279 H   0  0  0  0  0  0  0  0  0  0  0  0
    0.5258   -4.1223    0.1670 H   0  0  0  0  0  0  0  0  0  0  0  0
    2.2386   -4.4207   -0.2142 H   0  0  0  0  0  0  0  0  0  0  0  0
    1.3551   -3.1194   -1.0474 H   0  0  0  0  0  0  0  0  0  0  0  0
   -0.2970   -4.0573    4.7488 H   0  0  0  0  0  0  0  0  0  0  0  0
    5.2633    4.0296    2.6837 H   0  0  0  0  0  0  0  0  0  0  0  0
    6.1703    3.1095    3.9078 H   0  0  0  0  0  0  0  0  0  0  0  0
    4.3985    3.2360    4.0219 H   0  0  0  0  0  0  0  0  0  0  0  0
    4.6008    2.8511   -0.7775 H   0  0  0  0  0  0  0  0  0  0  0  0
    3.4980    4.2481   -0.7803 H   0  0  0  0  0  0  0  0  0  0  0  0
    4.8048    4.1484    0.4241 H   0  0  0  0  0  0  0  0  0  0  0  0
   -4.7715    1.0056   -7.2325 H   0  0  0  0  0  0  0  0  0  0  0  0
   -3.1972    0.1964   -7.4181 H   0  0  0  0  0  0  0  0  0  0  0  0
   -4.7015   -0.7494   -7.5208 H   0  0  0  0  0  0  0  0  0  0  0  0
   -4.7576    2.9881    0.6693 H   0  0  0  0  0  0  0  0  0  0  0  0
   -4.1394    4.3238   -0.3314 H   0  0  0  0  0  0  0  0  0  0  0  0
   -4.2922    2.6907   -1.0228 H   0  0  0  0  0  0  0  0  0  0  0  0
    0.9123   -0.4618    3.5737 H   0  0  0  0  0  0  0  0  0  0  0  0
   -0.3492    0.7596    3.8642 H   0  0  0  0  0  0  0  0  0  0  0  0
   -0.5665   -0.9034    4.4605 H   0  0  0  0  0  0  0  0  0  0  0  0
   -3.3991    2.6554    3.3183 H   0  0  0  0  0  0  0  0  0  0  0  0
   -2.7149    1.3049    4.2540 H   0  0  0  0  0  0  0  0  0  0  0  0
   -1.6409    2.3783    3.3253 H   0  0  0  0  0  0  0  0  0  0  0  0
   -3.3149   -3.1914   -7.3749 H   0  0  0  0  0  0  0  0  0  0  0  0
   -2.1308   -1.8642   -7.4383 H   0  0  0  0  0  0  0  0  0  0  0  0
   -1.6033   -3.5073   -7.0021 H   0  0  0  0  0  0  0  0  0  0  0  0
  1  2  1  0  0  0  0
  1  5  1  0  0  0  0
  2  6  1  0  0  0  0
  2  3  1  0  0  0  0
  2 55  1  6  0  0  0
  3  4  1  0  0  0  0
  4  5  1  0  0  0  0
  5 17  1  0  0  0  0
  5 16  1  6  0  0  0
  6  7  1  0  0  0  0
  6 14  1  0  0  0  0
  6 22  1  6  0  0  0
  8  7  1  6  0  0  0
  8 13  1  0  0  0  0
  8  9  1  0  0  0  0
  8 15  1  0  0  0  0
  9 10  1  0  0  0  0
 10 23  1  0  0  0  0
 10 11  1  0  0  0  0
 10 61  1  6  0  0  0
 11 12  1  0  0  0  0
 12 13  1  0  0  0  0
 12 30  1  0  0  0  0
 12 64  1  1  0  0  0
 13 32  1  0  0  0  0
 13 65  1  6  0  0  0
 14 15  1  0  0  0  0
 15 33  1  0  0  0  0
 15 68  1  1  0  0  0
 17 18  1  0  0  0  0
 17 21  1  0  0  0  0
 17 54  1  6  0  0  0
 18 19  1  0  0  0  0
 19 20  1  0  0  0  0
 19 34  1  0  0  0  0
 19 53  1  1  0  0  0
 20 21  1  0  0  0  0
 21 40  1  0  0  0  0
 21 71  1  6  0  0  0
 24 23  1  0  0  0  0
 24 29  1  0  0  0  0
 24 25  1  0  0  0  0
 24 74  1  6  0  0  0
 25 26  1  0  0  0  0
 26 27  1  0  0  0  0
 26 41  1  0  0  0  0
 26 56  1  6  0  0  0
 27 28  1  0  0  0  0
 27 44  1  0  0  0  0
 27 75  1  1  0  0  0
 28 29  1  0  0  0  0
 30 31  1  0  0  0  0
 34 35  1  0  0  0  0
 34 39  1  0  0  0  0
 34 52  1  1  0  0  0
 35 36  1  0  0  0  0
 36 37  1  0  0  0  0
 36 46  1  1  0  0  0
 36 45  1  0  0  0  0
 37 38  1  0  0  0  0
 37 48  1  0  0  0  0
 37 80  1  6  0  0  0
 38 39  1  0  0  0  0
 39 49  1  0  0  0  0
 39 83  1  6  0  0  0
 41 50  1  0  0  0  0
 41 42  1  0  0  0  0
 41 84  1  1  0  0  0
 42 51  2  0  0  0  0
 42 43  2  0  0  0  0
 46 47  1  0  0  0  0
 57  3  1  0  0  0  0
 58  3  1  0  0  0  0
 59  4  1  0  0  0  0
 60  4  1  0  0  0  0
 62 11  1  0  0  0  0
 63 11  1  0  0  0  0
 66 14  1  0  0  0  0
 67 14  1  0  0  0  0
 69 20  1  0  0  0  0
 70 20  1  0  0  0  0
 72 23  1  0  0  0  0
 73 23  1  0  0  0  0
 76 28  1  0  0  0  0
 77 28  1  0  0  0  0
 78 29  1  0  0  0  0
 79 29  1  0  0  0  0
 81 38  1  0  0  0  0
 82 38  1  0  0  0  0
 85 46  1  0  0  0  0
 86 46  1  0  0  0  0
 87 45  1  0  0  0  0
 88 49  1  0  0  0  0
 89 49  1  0  0  0  0
 90 49  1  0  0  0  0
 91 22  1  0  0  0  0
 92 22  1  0  0  0  0
 93 22  1  0  0  0  0
 94 48  1  0  0  0  0
 95 48  1  0  0  0  0
 96 48  1  0  0  0  0
 97 47  1  0  0  0  0
 98 40  1  0  0  0  0
 99 40  1  0  0  0  0
100 40  1  0  0  0  0
101 16  1  0  0  0  0
102 16  1  0  0  0  0
103 16  1  0  0  0  0
104 50  1  0  0  0  0
105 50  1  0  0  0  0
106 50  1  0  0  0  0
107 33  1  0  0  0  0
108 33  1  0  0  0  0
109 33  1  0  0  0  0
110 31  1  0  0  0  0
111 31  1  0  0  0  0
112 31  1  0  0  0  0
113 32  1  0  0  0  0
114 32  1  0  0  0  0
115 32  1  0  0  0  0
116 44  1  0  0  0  0
117 44  1  0  0  0  0
118 44  1  0  0  0  0
M  END
$$$$
> 244_AKC_C8MD00475G
>235.sdf
 OpenBabel10052220483D

 40 42  0  0  0  0  0  0  0  0999 V2000
    6.9400    0.7606   -3.6745 C   0  0  0  0  0  0  0  0  0  0  0  0
    6.2794    1.3967   -2.4514 C   0  0  0  0  0  0  0  0  0  0  0  0
    4.9661    0.8079   -2.1865 N   0  0  0  0  0  0  0  0  0  0  0  0
    4.6779    0.1394   -1.0717 N   0  0  0  0  0  0  0  0  0  0  0  0
    3.3951   -0.2588   -1.1648 C   0  0  0  0  0  0  0  0  0  0  0  0
    2.6488   -0.9810   -0.2369 C   0  0  0  0  0  0  0  0  0  0  0  0
    1.3128   -1.3069   -0.5698 C   0  0  0  0  0  0  0  0  0  0  0  0
    0.5038   -2.0237    0.3611 N   0  0  0  0  0  0  0  0  0  0  0  0
   -0.6258   -2.8085   -0.0407 C   0  0  0  0  0  0  0  0  0  0  0  0
   -0.4483   -3.7148   -1.2442 C   0  0  0  0  0  0  0  0  0  0  0  0
   -1.8126   -2.7600    0.6590 C   0  0  0  0  0  0  0  0  0  0  0  0
   -3.0129   -3.5958    0.3050 C   0  0  0  0  0  0  0  0  0  0  0  0
   -2.9815   -4.4098   -0.6025 O   0  0  0  0  0  0  0  0  0  0  0  0
   -4.1689   -3.4562    1.0047 O   0  0  0  0  0  0  0  0  0  0  0  0
   -4.3545   -2.5799    2.0286 C   0  0  0  0  0  0  0  0  0  0  0  0
   -5.7046   -2.5251    2.6825 C   0  0  0  0  0  0  0  0  0  0  0  0
   -3.3596   -1.7748    2.4465 C   0  0  0  0  0  0  0  0  0  0  0  0
   -2.0358   -1.8179    1.8006 C   0  0  0  0  0  0  0  0  0  0  0  0
   -1.1740   -1.0413    2.1793 O   0  0  0  0  0  0  0  0  0  0  0  0
    0.7734   -0.8695   -1.8161 C   0  0  0  0  0  0  0  0  0  0  0  0
    1.5538   -0.1196   -2.7119 C   0  0  0  0  0  0  0  0  0  0  0  0
    2.8643    0.1607   -2.3513 C   0  0  0  0  0  0  0  0  0  0  0  0
    3.8687    0.8487   -2.9841 C   0  0  0  0  0  0  0  0  0  0  0  0
    3.7445    1.6562   -4.5411 Cl  0  0  0  0  0  0  0  0  0  0  0  0
    7.9451    1.2062   -3.8277 H   0  0  0  0  0  0  0  0  0  0  0  0
    7.0515   -0.3339   -3.5236 H   0  0  0  0  0  0  0  0  0  0  0  0
    6.3475    0.9359   -4.5933 H   0  0  0  0  0  0  0  0  0  0  0  0
    6.1750    2.4924   -2.5996 H   0  0  0  0  0  0  0  0  0  0  0  0
    6.9433    1.2225   -1.5766 H   0  0  0  0  0  0  0  0  0  0  0  0
    3.0861   -1.2940    0.7030 H   0  0  0  0  0  0  0  0  0  0  0  0
    0.7840   -2.0287    1.3529 H   0  0  0  0  0  0  0  0  0  0  0  0
    0.5805   -3.6452   -1.6543 H   0  0  0  0  0  0  0  0  0  0  0  0
   -1.1595   -3.4435   -2.0515 H   0  0  0  0  0  0  0  0  0  0  0  0
   -0.5858   -4.7751   -0.9439 H   0  0  0  0  0  0  0  0  0  0  0  0
   -5.7487   -1.7689    3.4953 H   0  0  0  0  0  0  0  0  0  0  0  0
   -6.4694   -2.2668    1.9204 H   0  0  0  0  0  0  0  0  0  0  0  0
   -5.9443   -3.5202    3.1112 H   0  0  0  0  0  0  0  0  0  0  0  0
   -3.5257   -1.0748    3.2611 H   0  0  0  0  0  0  0  0  0  0  0  0
   -0.2540   -1.0840   -2.0766 H   0  0  0  0  0  0  0  0  0  0  0  0
    1.1435    0.2276   -3.6511 H   0  0  0  0  0  0  0  0  0  0  0  0
  1 25  1  0  0  0  0
  1 26  1  0  0  0  0
  1 27  1  0  0  0  0
  2  1  1  0  0  0  0
  2 28  1  0  0  0  0
  2 29  1  0  0  0  0
  3  2  1  0  0  0  0
  4  3  1  0  0  0  0
  5  4  2  0  0  0  0
  6  5  1  0  0  0  0
  6 30  1  0  0  0  0
  7  6  2  0  0  0  0
  8  7  1  0  0  0  0
  8 31  1  0  0  0  0
  9  8  1  0  0  0  0
 10  9  1  0  0  0  0
 10 32  1  0  0  0  0
 10 33  1  0  0  0  0
 10 34  1  0  0  0  0
 11  9  2  0  0  0  0
 12 11  1  0  0  0  0
 13 12  2  0  0  0  0
 14 12  1  0  0  0  0
 15 14  1  0  0  0  0
 16 15  1  0  0  0  0
 16 35  1  0  0  0  0
 16 36  1  0  0  0  0
 16 37  1  0  0  0  0
 17 15  2  0  0  0  0
 17 38  1  0  0  0  0
 18 17  1  0  0  0  0
 18 11  1  0  0  0  0
 19 18  2  0  0  0  0
 20  7  1  0  0  0  0
 20 39  1  0  0  0  0
 21 20  2  0  0  0  0
 21 40  1  0  0  0  0
 22 21  1  0  0  0  0
 22  5  1  0  0  0  0
 23 22  2  0  0  0  0
 23  3  1  0  0  0  0
 24 23  1  0  0  0  0
M  END
>  <MOL Chiral Flag>
0

>  <energy>
75.784964222050704

$$$$
> 245_AKC_journal.pntd.0006930
>236.sdf
 OpenBabel10052220493D

 30 32  0  0  0  0  0  0  0  0999 V2000
   -2.7670    0.7461   -0.3604 O   0  0  0  0  0  0  0  0  0  0  0  0
   -2.7812   -0.6002   -0.2759 C   0  0  0  0  0  0  0  0  0  0  0  0
   -1.5719   -1.3292   -0.1739 C   0  0  0  0  0  0  0  0  0  0  0  0
   -1.6329   -2.7345   -0.0769 C   0  0  0  0  0  0  0  0  0  0  0  0
   -2.8541   -3.4036   -0.1039 C   0  0  0  0  0  0  0  0  0  0  0  0
   -4.0408   -2.6861   -0.2220 C   0  0  0  0  0  0  0  0  0  0  0  0
   -4.0101   -1.2913   -0.3000 C   0  0  0  0  0  0  0  0  0  0  0  0
   -0.1941   -0.6844   -0.2342 C   0  0  1  0  0  0  0  0  0  0  0  0
    0.0795   -0.0528   -1.6029 C   0  0  0  0  0  0  0  0  0  0  0  0
    1.5300    0.3392   -1.6044 C   0  0  0  0  0  0  0  0  0  0  0  0
    2.2408    0.1008   -2.5683 O   0  0  0  0  0  0  0  0  0  0  0  0
    2.0799    0.9350   -0.3707 C   0  0  0  0  0  0  0  0  0  0  0  0
    1.2754    0.9057    0.7922 C   0  0  0  0  0  0  0  0  0  0  0  0
    0.0654    0.2561    0.7665 O   0  0  0  0  0  0  0  0  0  0  0  0
    1.7484    1.5007    1.9701 C   0  0  0  0  0  0  0  0  0  0  0  0
    3.0281    2.0778    1.9986 C   0  0  0  0  0  0  0  0  0  0  0  0
    3.8368    2.0613    0.8564 C   0  0  0  0  0  0  0  0  0  0  0  0
    3.3651    1.4945   -0.3286 C   0  0  0  0  0  0  0  0  0  0  0  0
   -3.5887    1.2566   -0.4203 H   0  0  0  0  0  0  0  0  0  0  0  0
   -0.7248   -3.3195   -0.0038 H   0  0  0  0  0  0  0  0  0  0  0  0
   -2.8752   -4.4844   -0.0461 H   0  0  0  0  0  0  0  0  0  0  0  0
   -4.9855   -3.2142   -0.2558 H   0  0  0  0  0  0  0  0  0  0  0  0
   -4.9431   -0.7491   -0.3915 H   0  0  0  0  0  0  0  0  0  0  0  0
    0.5530   -1.5027   -0.1143 H   0  0  0  0  0  0  0  0  0  0  0  0
   -0.1416   -0.7390   -2.4482 H   0  0  0  0  0  0  0  0  0  0  0  0
   -0.5475    0.8600   -1.7024 H   0  0  0  0  0  0  0  0  0  0  0  0
    1.1436    1.4964    2.8669 H   0  0  0  0  0  0  0  0  0  0  0  0
    3.4022    2.5241    2.9111 H   0  0  0  0  0  0  0  0  0  0  0  0
    4.8305    2.4918    0.8873 H   0  0  0  0  0  0  0  0  0  0  0  0
    3.9951    1.4935   -1.2098 H   0  0  0  0  0  0  0  0  0  0  0  0
  1 19  1  0  0  0  0
  2  1  1  0  0  0  0
  3  2  2  0  0  0  0
  4  3  1  0  0  0  0
  4 20  1  0  0  0  0
  5  4  2  0  0  0  0
  5 21  1  0  0  0  0
  6  5  1  0  0  0  0
  6 22  1  0  0  0  0
  7  6  2  0  0  0  0
  7  2  1  0  0  0  0
  7 23  1  0  0  0  0
  8  3  1  0  0  0  0
  8 24  1  1  0  0  0
  9  8  1  0  0  0  0
  9 25  1  0  0  0  0
  9 26  1  0  0  0  0
 10  9  1  0  0  0  0
 11 10  2  0  0  0  0
 12 10  1  0  0  0  0
 13 12  2  0  0  0  0
 14 13  1  0  0  0  0
 14  8  1  0  0  0  0
 15 13  1  0  0  0  0
 15 27  1  0  0  0  0
 16 15  2  0  0  0  0
 16 28  1  0  0  0  0
 17 16  1  0  0  0  0
 17 29  1  0  0  0  0
 18 17  2  0  0  0  0
 18 12  1  0  0  0  0
 18 30  1  0  0  0  0
M  END
>  <MOL Chiral Flag>
0

>  <energy>
47.263344802944829

$$$$
> 246_AKC_j.exppara.2018.10.007
>237.sdf
 OpenBabel10052220493D

 31 33  0  0  0  0  0  0  0  0999 V2000
    6.5528    4.5307   -1.6029 Cl  0  0  0  0  0  0  0  0  0  0  0  0
    5.0425    3.8020   -1.0873 C   0  0  0  0  0  0  0  0  0  0  0  0
    4.5358    4.0867    0.1800 C   0  0  0  0  0  0  0  0  0  0  0  0
    3.3238    3.5317    0.5930 C   0  0  0  0  0  0  0  0  0  0  0  0
    2.5962    2.6682   -0.2710 C   0  0  0  0  0  0  0  0  0  0  0  0
    3.1251    2.3796   -1.5456 C   0  0  0  0  0  0  0  0  0  0  0  0
    4.3421    2.9487   -1.9464 C   0  0  0  0  0  0  0  0  0  0  0  0
    1.3436    2.1751    0.1725 C   0  0  0  0  0  0  0  0  0  0  0  0
    0.5138    1.3183   -0.6110 N   0  0  0  0  0  0  0  0  0  0  0  0
   -0.8546    1.4359   -0.4782 N   0  0  0  0  0  0  0  0  0  0  0  0
   -1.7404    0.3268   -0.3928 C   0  0  0  0  0  0  0  0  0  0  0  0
   -1.2982   -1.0072   -0.4779 C   0  0  0  0  0  0  0  0  0  0  0  0
   -2.2072   -2.0559   -0.2744 C   0  0  0  0  0  0  0  0  0  0  0  0
   -3.5498   -1.7814    0.0097 C   0  0  0  0  0  0  0  0  0  0  0  0
   -3.9922   -0.4611    0.0810 C   0  0  0  0  0  0  0  0  0  0  0  0
   -3.0942    0.5844   -0.1189 C   0  0  0  0  0  0  0  0  0  0  0  0
    0.8851    2.5458    1.4495 C   0  0  0  0  0  0  0  0  0  0  0  0
    1.6500    3.3684    2.2629 C   0  0  0  0  0  0  0  0  0  0  0  0
    2.8383    3.8448    1.8231 N   0  0  0  0  0  0  0  0  0  0  0  0
    5.0761    4.7531    0.8424 H   0  0  0  0  0  0  0  0  0  0  0  0
    2.6015    1.7381   -2.2399 H   0  0  0  0  0  0  0  0  0  0  0  0
    4.7374    2.7357   -2.9312 H   0  0  0  0  0  0  0  0  0  0  0  0
    0.9220    0.6225   -1.2529 H   0  0  0  0  0  0  0  0  0  0  0  0
   -1.2359    2.3558   -0.2069 H   0  0  0  0  0  0  0  0  0  0  0  0
   -0.2609   -1.2426   -0.6693 H   0  0  0  0  0  0  0  0  0  0  0  0
   -1.8693   -3.0826   -0.3194 H   0  0  0  0  0  0  0  0  0  0  0  0
   -4.2473   -2.5903    0.1827 H   0  0  0  0  0  0  0  0  0  0  0  0
   -5.0281   -0.2431    0.3078 H   0  0  0  0  0  0  0  0  0  0  0  0
   -3.4460    1.6062   -0.0378 H   0  0  0  0  0  0  0  0  0  0  0  0
   -0.0593    2.1720    1.8255 H   0  0  0  0  0  0  0  0  0  0  0  0
    1.2926    3.6302    3.2495 H   0  0  0  0  0  0  0  0  0  0  0  0
  2  1  1  0  0  0  0
  3  2  2  0  0  0  0
  3 20  1  0  0  0  0
  4  3  1  0  0  0  0
  5  4  2  0  0  0  0
  6  5  1  0  0  0  0
  6 21  1  0  0  0  0
  7  6  2  0  0  0  0
  7  2  1  0  0  0  0
  7 22  1  0  0  0  0
  8  5  1  0  0  0  0
  9  8  1  0  0  0  0
  9 23  1  0  0  0  0
 10  9  1  0  0  0  0
 10 24  1  0  0  0  0
 11 10  1  0  0  0  0
 12 11  2  0  0  0  0
 12 25  1  0  0  0  0
 13 12  1  0  0  0  0
 13 26  1  0  0  0  0
 14 13  2  0  0  0  0
 14 27  1  0  0  0  0
 15 14  1  0  0  0  0
 15 28  1  0  0  0  0
 16 15  2  0  0  0  0
 16 11  1  0  0  0  0
 16 29  1  0  0  0  0
 17  8  2  0  0  0  0
 17 30  1  0  0  0  0
 18 17  1  0  0  0  0
 18 31  1  0  0  0  0
 19 18  2  0  0  0  0
 19  4  1  0  0  0  0
M  END
>  <MOL Chiral Flag>
0

>  <energy>
62.285321585967459

$$$$
> 247_AKC_j.biopha.2018.10.012
>238.sdf
 OpenBabel10052220493D

 37 40  0  0  0  0  0  0  0  0999 V2000
    5.0426   -3.2716    1.1769 Br  0  0  0  0  0  0  0  0  0  0  0  0
    4.8894   -1.3947    0.9571 C   0  0  0  0  0  0  0  0  0  0  0  0
    6.0503   -0.6084    0.8673 C   0  0  0  0  0  0  0  0  0  0  0  0
    5.9481    0.7845    0.6857 C   0  0  0  0  0  0  0  0  0  0  0  0
    4.6458    1.3517    0.5948 C   0  0  0  0  0  0  0  0  0  0  0  0
    4.2958    2.6438    0.3994 N   0  0  0  0  0  0  0  0  0  0  0  0
    2.9461    2.7194    0.3172 C   0  0  0  0  0  0  0  0  0  0  0  0
    2.4232    1.4446    0.4946 C   0  0  0  0  0  0  0  0  0  0  0  0
    1.0412    1.0269    0.4427 C   0  0  0  0  0  0  0  0  0  0  0  0
    0.1567    1.7047   -0.1815 N   0  0  0  0  0  0  0  0  0  0  0  0
   -1.1049    1.1326   -0.2927 C   0  0  0  0  0  0  0  0  0  0  0  0
   -1.4272   -0.0578   -0.9840 C   0  0  0  0  0  0  0  0  0  0  0  0
   -0.4790   -0.7990   -1.7785 C   0  0  0  0  0  0  0  0  0  0  0  0
    0.2511   -1.4210   -2.4245 N   0  0  0  0  0  0  0  0  0  0  0  0
   -2.7850   -0.4302   -0.7809 C   0  0  0  0  0  0  0  0  0  0  0  0
   -3.4722    0.5074    0.0142 C   0  0  0  0  0  0  0  0  0  0  0  0
   -4.8986    0.4185    0.3830 C   0  0  0  0  0  0  0  0  0  0  0  0
   -5.4084   -1.0151    0.2380 C   0  0  0  0  0  0  0  0  0  0  0  0
   -4.9922   -1.6338   -1.1010 C   0  0  0  0  0  0  0  0  0  0  0  0
   -3.4608   -1.6934   -1.2689 C   0  0  0  0  0  0  0  0  0  0  0  0
   -2.4290    1.7065    0.4880 S   0  0  0  0  0  0  0  0  0  0  0  0
    3.5207    0.5823    0.6779 C   0  0  0  0  0  0  0  0  0  0  0  0
    3.6142   -0.8078    0.8618 C   0  0  0  0  0  0  0  0  0  0  0  0
    7.0217   -1.0840    0.9254 H   0  0  0  0  0  0  0  0  0  0  0  0
    6.8563    1.3762    0.6072 H   0  0  0  0  0  0  0  0  0  0  0  0
    4.9296    3.4486    0.3063 H   0  0  0  0  0  0  0  0  0  0  0  0
    2.4257    3.6677    0.1352 H   0  0  0  0  0  0  0  0  0  0  0  0
    0.8024    0.0534    0.8866 H   0  0  0  0  0  0  0  0  0  0  0  0
   -5.0345    0.7496    1.4261 H   0  0  0  0  0  0  0  0  0  0  0  0
   -5.4788    1.1064   -0.2596 H   0  0  0  0  0  0  0  0  0  0  0  0
   -5.0045   -1.6291    1.0604 H   0  0  0  0  0  0  0  0  0  0  0  0
   -6.5071   -1.0195    0.3326 H   0  0  0  0  0  0  0  0  0  0  0  0
   -5.4315   -1.0433   -1.9243 H   0  0  0  0  0  0  0  0  0  0  0  0
   -5.3995   -2.6538   -1.1850 H   0  0  0  0  0  0  0  0  0  0  0  0
   -3.0600   -2.5415   -0.6787 H   0  0  0  0  0  0  0  0  0  0  0  0
   -3.2243   -1.8878   -2.3270 H   0  0  0  0  0  0  0  0  0  0  0  0
    2.7366   -1.4329    0.9078 H   0  0  0  0  0  0  0  0  0  0  0  0
  2  1  1  0  0  0  0
  3  2  2  0  0  0  0
  3 24  1  0  0  0  0
  4  3  1  0  0  0  0
  4 25  1  0  0  0  0
  5  4  2  0  0  0  0
  6  5  1  0  0  0  0
  6 26  1  0  0  0  0
  7  6  1  0  0  0  0
  7 27  1  0  0  0  0
  8  7  2  0  0  0  0
  9  8  1  0  0  0  0
  9 28  1  0  0  0  0
 10  9  2  0  0  0  0
 11 10  1  0  0  0  0
 12 11  2  0  0  0  0
 13 12  1  0  0  0  0
 14 13  3  0  0  0  0
 15 12  1  0  0  0  0
 16 15  2  0  0  0  0
 17 16  1  0  0  0  0
 17 29  1  0  0  0  0
 17 30  1  0  0  0  0
 18 17  1  0  0  0  0
 18 31  1  0  0  0  0
 18 32  1  0  0  0  0
 19 18  1  0  0  0  0
 19 33  1  0  0  0  0
 19 34  1  0  0  0  0
 20 19  1  0  0  0  0
 20 15  1  0  0  0  0
 20 35  1  0  0  0  0
 20 36  1  0  0  0  0
 21 16  1  0  0  0  0
 21 11  1  0  0  0  0
 22  8  1  0  0  0  0
 22  5  1  0  0  0  0
 23 22  2  0  0  0  0
 23  2  1  0  0  0  0
 23 37  1  0  0  0  0
M  END
>  <MOL Chiral Flag>
0

>  <energy>
50.602242183466188

$$$$
> 248_AKC_molecules23123160
>239.sdf
 OpenBabel10102213593D

 78 83  0  0  1  0  0  0  0  0999 V2000
   -0.0990    3.4013    0.8477 C   0  0  0  0  0  0  0  0  0  0  0  0
   -1.1398    2.8576   -0.1578 C   0  0  2  0  0  0  0  0  0  0  0  0
   -1.4548    1.3763    0.3119 C   0  0  1  0  0  0  0  0  0  0  0  0
   -2.7394    0.6985   -0.2574 C   0  0  0  0  0  0  0  0  0  0  0  0
   -2.6017   -0.7291   -0.7522 C   0  0  0  0  0  0  0  0  0  0  0  0
   -3.8571   -1.4190   -1.2368 C   0  0  0  0  0  0  0  0  0  0  0  0
   -1.3993   -1.3560   -0.7655 C   0  0  0  0  0  0  0  0  0  0  0  0
   -1.2091   -2.7641   -1.2981 C   0  0  0  0  0  0  0  0  0  0  0  0
   -0.2140   -0.6500   -0.2432 C   0  0  0  0  0  0  0  0  0  0  0  0
    0.8755   -1.2052   -0.2454 O   0  0  0  0  0  0  0  0  0  0  0  0
   -0.3098    0.5971    0.2642 O   0  0  0  0  0  0  0  0  0  0  0  0
   -0.6559    3.0573   -1.6751 C   0  0  1  0  0  0  0  0  0  0  0  0
    0.4499    2.2011   -1.9054 O   0  0  0  0  0  0  0  0  0  0  0  0
   -1.8025    2.7776   -2.7425 C   0  0  1  0  0  0  0  0  0  0  0  0
   -1.5947    3.7731   -3.9148 C   0  0  0  0  0  0  0  0  0  0  0  0
   -0.1980    4.3092   -3.6805 C   0  0  1  0  0  0  0  0  0  0  0  0
    0.2844    5.5400   -4.5119 C   0  0  2  0  0  0  0  0  0  0  0  0
    0.1022    5.2199   -6.0116 C   0  0  0  0  0  0  0  0  0  0  0  0
    0.9200    6.0906   -6.9617 C   0  0  2  0  0  0  0  0  0  0  0  0
    2.2234    5.4896   -6.9045 O   0  0  0  0  0  0  0  0  0  0  0  0
    2.1496    6.8112   -6.5162 C   0  0  1  0  0  0  0  0  0  0  0  0
    2.9233    7.6958   -7.5146 C   0  0  2  0  0  0  0  0  0  0  0  0
    2.7000    7.3327   -8.8576 O   0  0  0  0  0  0  0  0  0  0  0  0
    4.3961    7.6411   -7.1872 C   0  0  0  0  0  0  0  0  0  0  0  0
    4.8334    7.4242   -5.9359 C   0  0  0  0  0  0  0  0  0  0  0  0
    3.9035    7.2140   -4.7905 C   0  0  0  0  0  0  0  0  0  0  0  0
    4.3708    7.2812   -3.6660 O   0  0  0  0  0  0  0  0  0  0  0  0
    2.3842    7.0512   -4.9922 C   0  0  1  0  0  0  0  0  0  0  0  0
    1.7353    8.4037   -4.6113 C   0  0  0  0  0  0  0  0  0  0  0  0
    1.7784    5.8417   -4.1402 C   0  0  1  0  0  0  0  0  0  0  0  0
    1.8740    6.0436   -2.5885 C   0  0  0  0  0  0  0  0  0  0  0  0
    1.3363    4.8328   -1.7971 C   0  0  0  0  0  0  0  0  0  0  0  0
   -0.1508    4.4937   -2.1437 C   0  0  2  0  0  0  0  0  0  0  0  0
   -1.0970    5.6368   -1.6413 C   0  0  0  0  0  0  0  0  0  0  0  0
   -1.7374    1.4668   -3.1935 O   0  0  0  0  0  0  0  0  0  0  0  0
   -2.6241    0.8752   -4.0327 C   0  0  0  0  0  0  0  0  0  0  0  0
   -2.2803   -0.4513   -4.6340 C   0  0  0  0  0  0  0  0  0  0  0  0
   -3.6906    1.4113   -4.2977 O   0  0  0  0  0  0  0  0  0  0  0  0
    0.0400    4.4876    0.7667 H   0  0  0  0  0  0  0  0  0  0  0  0
    0.8801    2.8934    0.7238 H   0  0  0  0  0  0  0  0  0  0  0  0
   -0.4444    3.2508    1.8934 H   0  0  0  0  0  0  0  0  0  0  0  0
   -2.0630    3.4580   -0.0002 H   0  0  0  0  0  0  0  0  0  0  0  0
   -1.6867    1.4496    1.3994 H   0  0  0  0  0  0  0  0  0  0  0  0
   -3.1700    1.2897   -1.0749 H   0  0  0  0  0  0  0  0  0  0  0  0
   -3.5196    0.7117    0.5377 H   0  0  0  0  0  0  0  0  0  0  0  0
   -3.7701   -1.6979   -2.3056 H   0  0  0  0  0  0  0  0  0  0  0  0
   -4.0424   -2.3316   -0.6303 H   0  0  0  0  0  0  0  0  0  0  0  0
   -4.7428   -0.7583   -1.1301 H   0  0  0  0  0  0  0  0  0  0  0  0
   -0.8171   -3.4181   -0.4917 H   0  0  0  0  0  0  0  0  0  0  0  0
   -0.4686   -2.7388   -2.1264 H   0  0  0  0  0  0  0  0  0  0  0  0
   -2.1266   -3.2357   -1.6982 H   0  0  0  0  0  0  0  0  0  0  0  0
    0.1576    1.2630   -1.9810 H   0  0  0  0  0  0  0  0  0  0  0  0
   -2.8112    3.0028   -2.3325 H   0  0  0  0  0  0  0  0  0  0  0  0
   -2.3037    4.6212   -3.8107 H   0  0  0  0  0  0  0  0  0  0  0  0
   -1.7744    3.3469   -4.9243 H   0  0  0  0  0  0  0  0  0  0  0  0
    0.4912    3.4756   -3.9586 H   0  0  0  0  0  0  0  0  0  0  0  0
   -0.3228    6.4392   -4.2846 H   0  0  0  0  0  0  0  0  0  0  0  0
   -0.9770    5.3105   -6.2634 H   0  0  0  0  0  0  0  0  0  0  0  0
    0.3888    4.1645   -6.2197 H   0  0  0  0  0  0  0  0  0  0  0  0
    0.6454    6.0298   -8.0356 H   0  0  0  0  0  0  0  0  0  0  0  0
    2.5952    8.7488   -7.4053 H   0  0  0  0  0  0  0  0  0  0  0  0
    3.1548    6.4646   -9.0243 H   0  0  0  0  0  0  0  0  0  0  0  0
    5.1213    7.8221   -7.9762 H   0  0  0  0  0  0  0  0  0  0  0  0
    5.9031    7.4457   -5.7465 H   0  0  0  0  0  0  0  0  0  0  0  0
    0.6435    8.4033   -4.7988 H   0  0  0  0  0  0  0  0  0  0  0  0
    2.1721    9.2323   -5.2084 H   0  0  0  0  0  0  0  0  0  0  0  0
    1.9225    8.6637   -3.5502 H   0  0  0  0  0  0  0  0  0  0  0  0
    2.3725    4.9342   -4.3942 H   0  0  0  0  0  0  0  0  0  0  0  0
    2.9225    6.1690   -2.2668 H   0  0  0  0  0  0  0  0  0  0  0  0
    1.3199    6.9487   -2.2764 H   0  0  0  0  0  0  0  0  0  0  0  0
    1.4785    5.0251   -0.7192 H   0  0  0  0  0  0  0  0  0  0  0  0
    1.9988    3.9820   -2.0643 H   0  0  0  0  0  0  0  0  0  0  0  0
   -0.8759    6.6095   -2.1190 H   0  0  0  0  0  0  0  0  0  0  0  0
   -2.1690    5.4213   -1.8121 H   0  0  0  0  0  0  0  0  0  0  0  0
   -0.9972    5.8039   -0.5552 H   0  0  0  0  0  0  0  0  0  0  0  0
   -2.0756   -1.1888   -3.8326 H   0  0  0  0  0  0  0  0  0  0  0  0
   -1.3668   -0.3459   -5.2558 H   0  0  0  0  0  0  0  0  0  0  0  0
   -3.1081   -0.8275   -5.2717 H   0  0  0  0  0  0  0  0  0  0  0  0
  1 39  1  0  0  0  0
  1 40  1  0  0  0  0
  1 41  1  0  0  0  0
  2  1  1  0  0  0  0
  2  3  1  0  0  0  0
  2 42  1  1  0  0  0
  3  4  1  0  0  0  0
  3 11  1  0  0  0  0
  3 43  1  1  0  0  0
  4  5  1  0  0  0  0
  4 44  1  0  0  0  0
  4 45  1  0  0  0  0
  5  6  1  0  0  0  0
  5  7  2  0  0  0  0
  6 46  1  0  0  0  0
  6 47  1  0  0  0  0
  6 48  1  0  0  0  0
  7  8  1  0  0  0  0
  7  9  1  0  0  0  0
  8 49  1  0  0  0  0
  8 50  1  0  0  0  0
  8 51  1  0  0  0  0
  9 10  2  0  0  0  0
  9 11  1  0  0  0  0
 12  2  1  0  0  0  0
 12 13  1  6  0  0  0
 12 14  1  0  0  0  0
 12 33  1  0  0  0  0
 13 52  1  0  0  0  0
 14 15  1  0  0  0  0
 14 35  1  0  0  0  0
 14 53  1  1  0  0  0
 15 54  1  0  0  0  0
 15 55  1  0  0  0  0
 16 15  1  0  0  0  0
 16 17  1  0  0  0  0
 16 56  1  6  0  0  0
 17 18  1  0  0  0  0
 17 30  1  0  0  0  0
 17 57  1  1  0  0  0
 18 58  1  0  0  0  0
 18 59  1  0  0  0  0
 19 18  1  0  0  0  0
 19 20  1  0  0  0  0
 19 60  1  6  0  0  0
 21 20  1  6  0  0  0
 21 19  1  0  0  0  0
 21 22  1  0  0  0  0
 22 23  1  0  0  0  0
 22 24  1  0  0  0  0
 22 61  1  1  0  0  0
 23 62  1  0  0  0  0
 24 25  2  0  0  0  0
 24 63  1  0  0  0  0
 25 26  1  0  0  0  0
 25 64  1  0  0  0  0
 26 27  2  0  0  0  0
 28 26  1  0  0  0  0
 28 21  1  0  0  0  0
 28 29  1  1  0  0  0
 29 65  1  0  0  0  0
 29 66  1  0  0  0  0
 29 67  1  0  0  0  0
 30 28  1  0  0  0  0
 30 31  1  0  0  0  0
 30 68  1  6  0  0  0
 31 32  1  0  0  0  0
 31 69  1  0  0  0  0
 31 70  1  0  0  0  0
 32 71  1  0  0  0  0
 32 72  1  0  0  0  0
 33 32  1  0  0  0  0
 33 16  1  0  0  0  0
 33 34  1  1  0  0  0
 34 73  1  0  0  0  0
 34 74  1  0  0  0  0
 34 75  1  0  0  0  0
 35 36  1  0  0  0  0
 36 37  1  0  0  0  0
 36 38  2  0  0  0  0
 37 76  1  0  0  0  0
 37 77  1  0  0  0  0
 37 78  1  0  0  0  0
M  END
>  <MOL Chiral Flag>
1

$$$$
> 249_AKC_s40409-018-0174-7
>240.sdf
 OpenBabel10052220503D

 35 39  0  0  0  0  0  0  0  0999 V2000
   -0.8777   -2.2931    1.0458 H   0  0  0  0  0  0  0  0  0  0  0  0
   -0.8581   -1.1847    0.9522 C   0  0  1  0  0  0  0  0  0  0  0  0
   -1.2853   -0.5412    2.2744 C   0  0  0  0  0  0  0  0  0  0  0  0
   -1.3297    0.8323    2.1627 O   0  0  0  0  0  0  0  0  0  0  0  0
   -1.9875    1.4350    1.1460 C   0  0  0  0  0  0  0  0  0  0  0  0
   -2.2500    0.7343   -0.0522 C   0  0  0  0  0  0  0  0  0  0  0  0
   -2.9434    1.3790   -1.0891 C   0  0  0  0  0  0  0  0  0  0  0  0
   -3.3576    2.7060   -0.9400 C   0  0  0  0  0  0  0  0  0  0  0  0
   -3.0787    3.3998    0.2406 C   0  0  0  0  0  0  0  0  0  0  0  0
   -2.3947    2.7661    1.2810 C   0  0  0  0  0  0  0  0  0  0  0  0
   -1.7273   -0.6803   -0.2546 C   0  0  1  0  0  0  0  0  0  0  0  0
   -2.5687   -1.3773   -0.4578 H   0  0  0  0  0  0  0  0  0  0  0  0
   -0.8222   -0.5913   -1.2982 O   0  0  0  0  0  0  0  0  0  0  0  0
    0.4341   -0.5633   -0.8352 C   0  0  0  0  0  0  0  0  0  0  0  0
    0.5049   -0.8506    0.4431 C   0  0  0  0  0  0  0  0  0  0  0  0
    1.8002   -0.9014    1.1573 C   0  0  0  0  0  0  0  0  0  0  0  0
    1.8467   -1.2228    2.3345 O   0  0  0  0  0  0  0  0  0  0  0  0
    3.0362   -0.5227    0.4145 C   0  0  0  0  0  0  0  0  0  0  0  0
    4.2837   -0.4811    1.0590 C   0  0  0  0  0  0  0  0  0  0  0  0
    5.4286   -0.1090    0.3489 C   0  0  0  0  0  0  0  0  0  0  0  0
    5.3410    0.2192   -1.0062 C   0  0  0  0  0  0  0  0  0  0  0  0
    4.1082    0.1775   -1.6623 C   0  0  0  0  0  0  0  0  0  0  0  0
    2.9483   -0.1904   -0.9610 C   0  0  0  0  0  0  0  0  0  0  0  0
    1.6234   -0.2293   -1.6384 C   0  0  0  0  0  0  0  0  0  0  0  0
    1.5101    0.0350   -2.8252 O   0  0  0  0  0  0  0  0  0  0  0  0
   -2.3056   -0.9092    2.5215 H   0  0  0  0  0  0  0  0  0  0  0  0
   -0.6114   -0.8320    3.1060 H   0  0  0  0  0  0  0  0  0  0  0  0
   -3.1453    0.8577   -2.0167 H   0  0  0  0  0  0  0  0  0  0  0  0
   -3.8842    3.2010   -1.7453 H   0  0  0  0  0  0  0  0  0  0  0  0
   -3.3920    4.4299    0.3492 H   0  0  0  0  0  0  0  0  0  0  0  0
   -2.1828    3.3076    2.1944 H   0  0  0  0  0  0  0  0  0  0  0  0
    4.3694   -0.7289    2.1094 H   0  0  0  0  0  0  0  0  0  0  0  0
    6.3863   -0.0727    0.8514 H   0  0  0  0  0  0  0  0  0  0  0  0
    6.2309    0.5088   -1.5497 H   0  0  0  0  0  0  0  0  0  0  0  0
    4.0577    0.4372   -2.7122 H   0  0  0  0  0  0  0  0  0  0  0  0
  2  1  1  1  0  0  0
  3  2  1  0  0  0  0
  3 26  1  0  0  0  0
  3 27  1  0  0  0  0
  4  3  1  0  0  0  0
  5  4  1  0  0  0  0
  6  5  2  0  0  0  0
  7  6  1  0  0  0  0
  7 28  1  0  0  0  0
  8  7  2  0  0  0  0
  8 29  1  0  0  0  0
  9  8  1  0  0  0  0
  9 30  1  0  0  0  0
 10  9  2  0  0  0  0
 10  5  1  0  0  0  0
 10 31  1  0  0  0  0
 11  6  1  0  0  0  0
 11  2  1  0  0  0  0
 11 12  1  6  0  0  0
 13 11  1  0  0  0  0
 14 13  1  0  0  0  0
 15 14  2  0  0  0  0
 15  2  1  0  0  0  0
 16 15  1  0  0  0  0
 17 16  2  0  0  0  0
 18 16  1  0  0  0  0
 19 18  2  0  0  0  0
 19 32  1  0  0  0  0
 20 19  1  0  0  0  0
 20 33  1  0  0  0  0
 21 20  2  0  0  0  0
 21 34  1  0  0  0  0
 22 21  1  0  0  0  0
 22 35  1  0  0  0  0
 23 22  2  0  0  0  0
 23 18  1  0  0  0  0
 24 23  1  0  0  0  0
 24 14  1  0  0  0  0
 25 24  2  0  0  0  0
M  END
>  <MOL Chiral Flag>
0

>  <energy>
75.605982587759186

$$$$
> 250_AKC_journal.pone.0206920
>241.sdf
 OpenBabel10052220513D

 58 63  0  0  0  0  0  0  0  0999 V2000
    5.3796    0.1966   -0.3700 C   0  0  0  0  0  0  0  0  0  0  0  0
    4.9210    1.1946   -1.4365 C   0  0  0  0  0  0  0  0  0  0  0  0
    4.0041    1.8647   -0.3934 C   0  0  0  0  0  0  0  0  0  0  0  0
    4.7486    1.0811    0.7061 C   0  0  0  0  0  0  0  0  0  0  0  0
    2.4993    1.5057   -0.5292 C   0  0  0  0  0  0  0  0  0  0  0  0
    1.5053    2.5070   -0.5166 C   0  0  0  0  0  0  0  0  0  0  0  0
    0.1473    2.1867   -0.6363 C   0  0  0  0  0  0  0  0  0  0  0  0
   -0.2861    0.8526   -0.7586 C   0  0  0  0  0  0  0  0  0  0  0  0
    0.7199   -0.1420   -0.7886 C   0  0  0  0  0  0  0  0  0  0  0  0
    2.0721    0.1767   -0.6767 C   0  0  0  0  0  0  0  0  0  0  0  0
   -1.7116    0.4916   -0.8725 N   0  0  0  0  0  0  0  0  0  0  0  0
   -2.2298   -0.7582   -0.7269 C   0  0  0  0  0  0  0  0  0  0  0  0
   -3.5583   -0.7412   -0.9687 C   0  0  0  0  0  0  0  0  0  0  0  0
   -4.3263   -1.8928   -0.9014 C   0  0  0  0  0  0  0  0  0  0  0  0
   -3.6752   -3.0927   -0.5708 C   0  0  0  0  0  0  0  0  0  0  0  0
   -2.2708   -3.0898   -0.3103 C   0  0  0  0  0  0  0  0  0  0  0  0
   -1.5874   -1.9027   -0.3921 N   0  0  0  0  0  0  0  0  0  0  0  0
   -1.5102   -4.3341    0.0373 C   0  0  0  0  0  0  0  0  0  0  0  0
   -2.1108   -5.6144    0.0345 C   0  0  0  0  0  0  0  0  0  0  0  0
   -1.3611   -6.7510    0.3543 C   0  0  0  0  0  0  0  0  0  0  0  0
   -0.0111   -6.6347    0.6834 C   0  0  0  0  0  0  0  0  0  0  0  0
    0.5976   -5.3807    0.6931 C   0  0  0  0  0  0  0  0  0  0  0  0
   -0.1409   -4.2387    0.3716 C   0  0  0  0  0  0  0  0  0  0  0  0
   -3.9537    0.4958   -1.2712 N   0  0  0  0  0  0  0  0  0  0  0  0
   -2.8250    1.2490   -1.1899 C   0  0  0  0  0  0  0  0  0  0  0  0
   -2.9049    2.6859   -1.5262 C   0  0  0  0  0  0  0  0  0  0  0  0
   -2.8415    3.7119   -0.5526 C   0  0  0  0  0  0  0  0  0  0  0  0
   -2.9966    5.0111   -0.9347 N   0  0  0  0  0  0  0  0  0  0  0  0
   -3.2336    5.3593   -2.2275 C   0  0  0  0  0  0  0  0  0  0  0  0
   -3.3365    4.3756   -3.2087 C   0  0  0  0  0  0  0  0  0  0  0  0
   -3.1797    3.0378   -2.8544 C   0  0  0  0  0  0  0  0  0  0  0  0
   -2.6400    3.4163    0.8191 N   0  0  0  0  0  0  0  0  0  0  0  0
    4.2553    3.3160   -0.2922 N   0  3  0  0  0  0  0  0  0  0  0  0
    6.4739    0.0180   -0.2902 H   0  0  0  0  0  0  0  0  0  0  0  0
    4.8256   -0.7548   -0.4576 H   0  0  0  0  0  0  0  0  0  0  0  0
    4.4541    0.7624   -2.3478 H   0  0  0  0  0  0  0  0  0  0  0  0
    5.7910    1.8489   -1.6690 H   0  0  0  0  0  0  0  0  0  0  0  0
    4.1451    0.5620    1.4819 H   0  0  0  0  0  0  0  0  0  0  0  0
    5.5647    1.7010    1.1412 H   0  0  0  0  0  0  0  0  0  0  0  0
    1.7607    3.5505   -0.4115 H   0  0  0  0  0  0  0  0  0  0  0  0
   -0.5331    2.9989   -0.6154 H   0  0  0  0  0  0  0  0  0  0  0  0
    0.4965   -1.1794   -0.9220 H   0  0  0  0  0  0  0  0  0  0  0  0
    2.7696   -0.6354   -0.7138 H   0  0  0  0  0  0  0  0  0  0  0  0
   -5.3897   -1.8689   -1.1011 H   0  0  0  0  0  0  0  0  0  0  0  0
   -4.2676   -3.9908   -0.5197 H   0  0  0  0  0  0  0  0  0  0  0  0
   -3.1479   -5.7560   -0.2189 H   0  0  0  0  0  0  0  0  0  0  0  0
   -1.8303   -7.7264    0.3444 H   0  0  0  0  0  0  0  0  0  0  0  0
    0.5642   -7.5176    0.9302 H   0  0  0  0  0  0  0  0  0  0  0  0
    1.6456   -5.2917    0.9491 H   0  0  0  0  0  0  0  0  0  0  0  0
    0.3612   -3.2805    0.3885 H   0  0  0  0  0  0  0  0  0  0  0  0
   -3.3570    6.4011   -2.4919 H   0  0  0  0  0  0  0  0  0  0  0  0
   -3.5424    4.6467   -4.2363 H   0  0  0  0  0  0  0  0  0  0  0  0
   -3.2720    2.2712   -3.6148 H   0  0  0  0  0  0  0  0  0  0  0  0
   -2.5258    2.4470    1.1470 H   0  0  0  0  0  0  0  0  0  0  0  0
   -2.6030    4.1815    1.5082 H   0  0  0  0  0  0  0  0  0  0  0  0
    5.2780    3.5237   -0.2124 H   0  0  0  0  0  0  0  0  0  0  0  0
    3.7941    3.7023    0.5631 H   0  0  0  0  0  0  0  0  0  0  0  0
    3.9054    3.8014   -1.1498 H   0  0  0  0  0  0  0  0  0  0  0  0
  1 34  1  0  0  0  0
  1 35  1  0  0  0  0
  2  1  1  0  0  0  0
  2 36  1  0  0  0  0
  2 37  1  0  0  0  0
  3  2  1  0  0  0  0
  4  3  1  0  0  0  0
  4  1  1  0  0  0  0
  4 38  1  0  0  0  0
  4 39  1  0  0  0  0
  5  3  1  0  0  0  0
  6  5  2  0  0  0  0
  6 40  1  0  0  0  0
  7  6  1  0  0  0  0
  7 41  1  0  0  0  0
  8  7  2  0  0  0  0
  9  8  1  0  0  0  0
  9 42  1  0  0  0  0
 10  9  2  0  0  0  0
 10  5  1  0  0  0  0
 10 43  1  0  0  0  0
 11  8  1  0  0  0  0
 12 11  1  0  0  0  0
 13 12  2  0  0  0  0
 14 13  1  0  0  0  0
 14 44  1  0  0  0  0
 15 14  2  0  0  0  0
 15 45  1  0  0  0  0
 16 15  1  0  0  0  0
 17 16  2  0  0  0  0
 17 12  1  0  0  0  0
 18 16  1  0  0  0  0
 19 18  2  0  0  0  0
 19 46  1  0  0  0  0
 20 19  1  0  0  0  0
 20 47  1  0  0  0  0
 21 20  2  0  0  0  0
 21 48  1  0  0  0  0
 22 21  1  0  0  0  0
 22 49  1  0  0  0  0
 23 22  2  0  0  0  0
 23 18  1  0  0  0  0
 23 50  1  0  0  0  0
 24 13  1  0  0  0  0
 25 24  2  0  0  0  0
 25 11  1  0  0  0  0
 26 25  1  0  0  0  0
 27 26  2  0  0  0  0
 28 27  1  0  0  0  0
 29 28  2  0  0  0  0
 29 51  1  0  0  0  0
 30 29  1  0  0  0  0
 30 52  1  0  0  0  0
 31 30  2  0  0  0  0
 31 26  1  0  0  0  0
 31 53  1  0  0  0  0
 32 27  1  0  0  0  0
 32 54  1  0  0  0  0
 32 55  1  0  0  0  0
 33  3  1  0  0  0  0
 33 56  1  0  0  0  0
 33 57  1  0  0  0  0
 33 58  1  0  0  0  0
M  CHG  1  33   1
M  END
>  <MOL Chiral Flag>
0

>  <energy>
121.17599213969204

$$$$
> 251_AKC_j.ijbiomac.2018.08.019
>242.sdf
 OpenBabel10052220513D

 45 49  0  0  0  0  0  0  0  0999 V2000
   -4.7185   -2.4485    0.0034 O   0  0  0  0  0  0  0  0  0  0  0  0
   -4.1960   -2.3191    1.1006 C   0  0  0  0  0  0  0  0  0  0  0  0
   -4.4368   -3.2145    2.0969 N   0  0  0  0  0  0  0  0  0  0  0  0
   -5.2848   -4.2920    1.9879 N   0  0  0  0  0  0  0  0  0  0  0  0
   -4.8423   -5.4402    2.3659 C   0  0  0  0  0  0  0  0  0  0  0  0
   -5.7118   -6.5621    2.7311 C   0  0  0  0  0  0  0  0  0  0  0  0
   -5.2218   -7.7947    3.1675 C   0  0  0  0  0  0  0  0  0  0  0  0
   -6.2237   -8.6503    3.6863 C   0  0  0  0  0  0  0  0  0  0  0  0
   -7.5008   -8.0818    3.6678 C   0  0  0  0  0  0  0  0  0  0  0  0
   -7.3556   -6.5678    2.9824 S   0  0  0  0  0  0  0  0  0  0  0  0
   -8.6988   -8.6802    4.2737 C   0  0  0  0  0  0  0  0  0  0  0  0
   -9.9775   -8.1237    4.3573 C   0  0  0  0  0  0  0  0  0  0  0  0
  -10.8927   -8.9359    5.0870 C   0  0  0  0  0  0  0  0  0  0  0  0
  -10.3293  -10.1205    5.5727 C   0  0  0  0  0  0  0  0  0  0  0  0
   -8.7460  -10.1257    5.0887 S   0  0  0  0  0  0  0  0  0  0  0  0
   -3.2262   -1.2196    1.3801 C   0  0  0  0  0  0  0  0  0  0  0  0
   -2.8628   -1.0115    2.6816 N   0  0  0  0  0  0  0  0  0  0  0  0
   -2.0019   -0.0602    3.0520 N   0  0  0  0  0  0  0  0  0  0  0  0
   -1.3978    0.7501    2.1263 C   0  0  0  0  0  0  0  0  0  0  0  0
   -0.6549    1.6368    2.4992 O   0  0  0  0  0  0  0  0  0  0  0  0
   -1.7024    0.5458    0.7723 C   0  0  0  0  0  0  0  0  0  0  0  0
   -2.6303   -0.3966    0.4122 C   0  0  0  0  0  0  0  0  0  0  0  0
   -2.7463   -0.2970   -0.9605 C   0  0  0  0  0  0  0  0  0  0  0  0
   -1.9046    0.6747   -1.3926 N   0  0  0  0  0  0  0  0  0  0  0  0
   -1.2496    1.1698   -0.3452 N   0  0  0  0  0  0  0  0  0  0  0  0
   -0.2074    2.1651   -0.4833 C   0  0  0  0  0  0  0  0  0  0  0  0
    0.9448    2.1406    0.3318 C   0  0  0  0  0  0  0  0  0  0  0  0
    1.9407    3.1083    0.1877 C   0  0  0  0  0  0  0  0  0  0  0  0
    1.8111    4.1058   -0.7772 C   0  0  0  0  0  0  0  0  0  0  0  0
    0.6930    4.1247   -1.6146 C   0  0  0  0  0  0  0  0  0  0  0  0
   -0.3070    3.1534   -1.4782 C   0  0  0  0  0  0  0  0  0  0  0  0
   -3.9112   -3.1226    2.9791 H   0  0  0  0  0  0  0  0  0  0  0  0
   -3.7853   -5.5510    2.5979 H   0  0  0  0  0  0  0  0  0  0  0  0
   -4.1710   -8.0535    3.1625 H   0  0  0  0  0  0  0  0  0  0  0  0
   -6.0028   -9.6232    4.1043 H   0  0  0  0  0  0  0  0  0  0  0  0
  -10.2458   -7.1672    3.9297 H   0  0  0  0  0  0  0  0  0  0  0  0
  -11.9235   -8.6596    5.2610 H   0  0  0  0  0  0  0  0  0  0  0  0
  -10.8276  -10.8798    6.1603 H   0  0  0  0  0  0  0  0  0  0  0  0
   -1.7950    0.0665    4.0679 H   0  0  0  0  0  0  0  0  0  0  0  0
   -3.3852   -0.8796   -1.6099 H   0  0  0  0  0  0  0  0  0  0  0  0
    1.0979    1.3589    1.0591 H   0  0  0  0  0  0  0  0  0  0  0  0
    2.8176    3.0784    0.8227 H   0  0  0  0  0  0  0  0  0  0  0  0
    2.5839    4.8563   -0.8833 H   0  0  0  0  0  0  0  0  0  0  0  0
    0.6008    4.8943   -2.3693 H   0  0  0  0  0  0  0  0  0  0  0  0
   -1.1691    3.1842   -2.1312 H   0  0  0  0  0  0  0  0  0  0  0  0
  2  1  2  0  0  0  0
  3  2  1  0  0  0  0
  3 32  1  0  0  0  0
  4  3  1  0  0  0  0
  5  4  2  0  0  0  0
  5 33  1  0  0  0  0
  6  5  1  0  0  0  0
  7  6  2  0  0  0  0
  7 34  1  0  0  0  0
  8  7  1  0  0  0  0
  8 35  1  0  0  0  0
  9  8  2  0  0  0  0
 10  9  1  0  0  0  0
 10  6  1  0  0  0  0
 11  9  1  0  0  0  0
 12 11  2  0  0  0  0
 12 36  1  0  0  0  0
 13 12  1  0  0  0  0
 13 37  1  0  0  0  0
 14 13  2  0  0  0  0
 14 38  1  0  0  0  0
 15 14  1  0  0  0  0
 15 11  1  0  0  0  0
 16  2  1  0  0  0  0
 17 16  2  0  0  0  0
 18 17  1  0  0  0  0
 18 39  1  0  0  0  0
 19 18  1  0  0  0  0
 20 19  2  0  0  0  0
 21 19  1  0  0  0  0
 22 21  2  0  0  0  0
 22 16  1  0  0  0  0
 23 22  1  0  0  0  0
 23 40  1  0  0  0  0
 24 23  2  0  0  0  0
 25 24  1  0  0  0  0
 25 21  1  0  0  0  0
 26 25  1  0  0  0  0
 27 26  2  0  0  0  0
 27 41  1  0  0  0  0
 28 27  1  0  0  0  0
 28 42  1  0  0  0  0
 29 28  2  0  0  0  0
 29 43  1  0  0  0  0
 30 29  1  0  0  0  0
 30 44  1  0  0  0  0
 31 30  2  0  0  0  0
 31 26  1  0  0  0  0
 31 45  1  0  0  0  0
M  END
>  <MOL Chiral Flag>
0

>  <energy>
189.4764200057474

$$$$
> 252_AKC
>243.sdf
 OpenBabel10052220513D

 39 41  0  0  0  0  0  0  0  0999 V2000
   -2.0609   -0.8362   -2.2776 C   0  0  0  0  0  0  0  0  0  0  0  0
   -1.2723   -0.0145   -1.2294 C   0  0  1  0  0  0  0  0  0  0  0  0
   -1.8861   -0.2369    0.1599 C   0  0  0  0  0  0  0  0  0  0  0  0
   -2.2551    0.8469    0.8975 N   0  0  0  0  0  0  0  0  0  0  0  0
   -2.8443    0.7206    2.1146 C   0  0  0  0  0  0  0  0  0  0  0  0
   -3.1122   -0.5099    2.6176 N   0  0  0  0  0  0  0  0  0  0  0  0
   -2.8001   -1.6266    1.9152 C   0  0  0  0  0  0  0  0  0  0  0  0
   -2.1844   -1.5206    0.6682 C   0  0  0  0  0  0  0  0  0  0  0  0
   -1.9098   -2.6537   -0.0225 F   0  0  0  0  0  0  0  0  0  0  0  0
    0.3150   -0.1394   -1.3876 C   0  0  2  0  0  0  0  0  0  0  0  0
    0.5740   -0.1430   -2.7783 O   0  0  0  0  0  0  0  0  0  0  0  0
    0.9022   -1.4674   -0.7591 C   0  0  0  0  0  0  0  0  0  0  0  0
    0.9540   -1.5251    0.7118 N   0  0  0  0  0  0  0  0  0  0  0  0
    1.6298   -0.7230    1.5582 C   0  0  0  0  0  0  0  0  0  0  0  0
    1.4765   -1.1362    2.8304 N   0  0  0  0  0  0  0  0  0  0  0  0
    0.6925   -2.2274    2.7168 C   0  0  0  0  0  0  0  0  0  0  0  0
    0.3838   -2.4754    1.4308 N   0  0  0  0  0  0  0  0  0  0  0  0
    1.1207    1.0867   -0.8792 C   0  0  0  0  0  0  0  0  0  0  0  0
    0.5256    2.1700   -0.1878 C   0  0  0  0  0  0  0  0  0  0  0  0
    1.2864    3.2655    0.2283 C   0  0  0  0  0  0  0  0  0  0  0  0
    2.6510    3.3168   -0.0376 C   0  0  0  0  0  0  0  0  0  0  0  0
    3.3813    4.3861    0.3647 F   0  0  0  0  0  0  0  0  0  0  0  0
    3.2624    2.2749   -0.7285 C   0  0  0  0  0  0  0  0  0  0  0  0
    2.5153    1.1717   -1.1528 C   0  0  0  0  0  0  0  0  0  0  0  0
    3.1551    0.1978   -1.8465 F   0  0  0  0  0  0  0  0  0  0  0  0
   -1.8048   -0.5133   -3.3085 H   0  0  0  0  0  0  0  0  0  0  0  0
   -3.1530   -0.6682   -2.1565 H   0  0  0  0  0  0  0  0  0  0  0  0
   -1.8508   -1.9204   -2.2143 H   0  0  0  0  0  0  0  0  0  0  0  0
   -1.5198    1.0268   -1.5299 H   0  0  0  0  0  0  0  0  0  0  0  0
   -3.1066    1.6033    2.6810 H   0  0  0  0  0  0  0  0  0  0  0  0
   -3.0381   -2.6008    2.3215 H   0  0  0  0  0  0  0  0  0  0  0  0
    0.4959   -1.0675   -3.1328 H   0  0  0  0  0  0  0  0  0  0  0  0
    1.9379   -1.6230   -1.1155 H   0  0  0  0  0  0  0  0  0  0  0  0
    0.3268   -2.3349   -1.1450 H   0  0  0  0  0  0  0  0  0  0  0  0
    2.2366    0.1222    1.2783 H   0  0  0  0  0  0  0  0  0  0  0  0
    0.3619   -2.8308    3.5511 H   0  0  0  0  0  0  0  0  0  0  0  0
   -0.5181    2.1990    0.0326 H   0  0  0  0  0  0  0  0  0  0  0  0
    0.8096    4.0824    0.7552 H   0  0  0  0  0  0  0  0  0  0  0  0
    4.3221    2.3232   -0.9446 H   0  0  0  0  0  0  0  0  0  0  0  0
  1 26  1  0  0  0  0
  1 27  1  0  0  0  0
  1 28  1  0  0  0  0
  2  1  1  0  0  0  0
  2 29  1  6  0  0  0
  3  2  1  0  0  0  0
  4  3  2  0  0  0  0
  5  4  1  0  0  0  0
  5 30  1  0  0  0  0
  6  5  2  0  0  0  0
  7  6  1  0  0  0  0
  7 31  1  0  0  0  0
  8  7  2  0  0  0  0
  8  3  1  0  0  0  0
  9  8  1  0  0  0  0
 10  2  1  0  0  0  0
 10 11  1  6  0  0  0
 11 32  1  0  0  0  0
 12 10  1  0  0  0  0
 12 33  1  0  0  0  0
 12 34  1  0  0  0  0
 13 12  1  0  0  0  0
 14 13  1  0  0  0  0
 14 35  1  0  0  0  0
 15 14  2  0  0  0  0
 16 15  1  0  0  0  0
 16 36  1  0  0  0  0
 17 16  2  0  0  0  0
 17 13  1  0  0  0  0
 18 10  1  0  0  0  0
 19 18  2  0  0  0  0
 19 37  1  0  0  0  0
 20 19  1  0  0  0  0
 20 38  1  0  0  0  0
 21 20  2  0  0  0  0
 22 21  1  0  0  0  0
 23 21  1  0  0  0  0
 23 39  1  0  0  0  0
 24 23  2  0  0  0  0
 24 18  1  0  0  0  0
 25 24  1  0  0  0  0
M  END
>  <MOL Chiral Flag>
0

>  <energy>
64.9881367803372

$$$$
> 253_AKC_j.biopha.2018.07.056
>245.sdf
  Mrv1816 10102213543D             143.31000

 80 84  0  0  1  0            999 V2000
    0.4033   11.0477   -1.0950 C   0  0  0  0  0  0  0  0  0  0  0  0
    1.8475   10.4924   -0.8769 C   0  0  2  0  0  0  0  0  0  0  0  0
    1.7297    8.9271   -0.6749 C   0  0  1  0  0  0  0  0  0  0  0  0
    2.9575    8.0359   -1.0428 C   0  0  2  0  0  0  0  0  0  0  0  0
    2.6218    6.5930   -1.1155 C   0  0  0  0  0  0  0  0  0  0  0  0
    1.7874    6.2195   -1.9731 O   0  0  0  0  0  0  0  0  0  0  0  0
    3.2742    5.6798   -0.3213 O   0  0  0  0  0  0  0  0  0  0  0  0
    3.0478    4.3305   -0.1804 C   0  0  0  0  0  0  0  0  0  0  0  0
    4.1485    3.5071    0.1298 C   0  0  0  0  0  0  0  0  0  0  0  0
    3.9996    2.1103    0.2228 C   0  0  0  0  0  0  0  0  0  0  0  0
    2.7383    1.5005    0.0201 C   0  0  0  0  0  0  0  0  0  0  0  0
    2.5741    0.0927    0.0498 C   0  0  0  0  0  0  0  0  0  0  0  0
    3.5393   -0.6986    0.1725 O   0  0  0  0  0  0  0  0  0  0  0  0
    1.6246    2.3356   -0.2263 C   0  0  0  0  0  0  0  0  0  0  0  0
    1.7767    3.7303   -0.3272 C   0  0  0  0  0  0  0  0  0  0  0  0
    2.6011   11.2529    0.2963 C   0  0  1  0  0  0  0  0  0  0  0  0
    4.0770   10.7767    0.4945 C   0  0  2  0  0  0  0  0  0  0  0  0
    4.8888   11.9452    1.0948 C   0  0  2  0  0  0  0  0  0  0  0  0
    3.8252   13.0083    1.4278 C   0  0  1  0  0  0  0  0  0  0  0  0
    4.3224   14.4725    1.6783 C   0  0  2  0  0  0  0  0  0  0  0  0
    5.3826   14.5020    2.8723 C   0  0  2  0  0  0  0  0  0  0  0  0
    5.8836   16.0077    3.1771 C   0  0  1  0  0  0  0  0  0  0  0  0
    4.6638   16.9456    3.4627 C   0  0  2  0  0  0  0  0  0  0  0  0
    4.1086   16.6838    4.9071 C   0  0  2  0  0  0  0  0  0  0  0  0
    2.9213   17.6076    5.2746 C   0  0  2  0  0  0  0  0  0  0  0  0
    2.3967   17.2508    6.5527 O   0  0  0  0  0  0  0  0  0  0  0  0
    1.8015   17.5193    4.2102 C   0  0  2  0  0  0  0  0  0  0  0  0
    2.3606   17.8374    2.8002 C   0  0  1  0  0  0  0  0  0  0  0  0
    3.5490   16.9060    2.3277 C   0  0  1  0  0  0  0  0  0  0  0  0
    4.1038   17.5818    1.0159 C   0  0  0  0  0  0  0  0  0  0  0  0
    3.1010   15.3931    2.0673 C   0  0  1  0  0  0  0  0  0  0  0  0
    1.8739   15.1865    1.1062 C   0  0  1  0  0  0  0  0  0  0  0  0
    1.5069   13.6967    0.7843 C   0  0  2  0  0  0  0  0  0  0  0  0
    0.8650   13.1077    1.9180 O   0  0  0  0  0  0  0  0  0  0  0  0
    2.7418   12.8387    0.3014 C   0  0  2  0  0  0  0  0  0  0  0  0
    3.1923   13.3431   -1.1246 C   0  0  0  0  0  0  0  0  0  0  0  0
   -0.1278   10.4883   -1.8690 H   0  0  0  0  0  0  0  0  0  0  0  0
   -0.1739   10.9844   -0.1706 H   0  0  0  0  0  0  0  0  0  0  0  0
    0.4140   12.0774   -1.4357 H   0  0  0  0  0  0  0  0  0  0  0  0
    2.3899   10.6687   -1.8100 H   0  0  0  0  0  0  0  0  0  0  0  0
    1.4365    8.7167    0.3565 H   0  0  0  0  0  0  0  0  0  0  0  0
    0.9137    8.5596   -1.3045 H   0  0  0  0  0  0  0  0  0  0  0  0
    3.7534    8.1586   -0.3127 H   0  0  0  0  0  0  0  0  0  0  0  0
    3.3499    8.3380   -2.0157 H   0  0  0  0  0  0  0  0  0  0  0  0
    5.0730    3.9223    0.2672 H   0  0  0  0  0  0  0  0  0  0  0  0
    4.8241    1.5411    0.4283 H   0  0  0  0  0  0  0  0  0  0  0  0
    1.6435   -0.3217   -0.0456 H   0  0  0  0  0  0  0  0  0  0  0  0
    0.6912    1.9350   -0.3465 H   0  0  0  0  0  0  0  0  0  0  0  0
    0.9527    4.3046   -0.5076 H   0  0  0  0  0  0  0  0  0  0  0  0
    2.0674   10.9699    1.2109 H   0  0  0  0  0  0  0  0  0  0  0  0
    4.5342   10.4748   -0.4524 H   0  0  0  0  0  0  0  0  0  0  0  0
    4.1104    9.9269    1.1811 H   0  0  0  0  0  0  0  0  0  0  0  0
    5.6116   12.3306    0.3696 H   0  0  0  0  0  0  0  0  0  0  0  0
    5.4285   11.6273    1.9916 H   0  0  0  0  0  0  0  0  0  0  0  0
    3.3825   12.6877    2.3813 H   0  0  0  0  0  0  0  0  0  0  0  0
    4.7141   14.8265    0.6879 H   0  0  0  0  0  0  0  0  0  0  0  0
    6.2682   13.9287    2.5934 H   0  0  0  0  0  0  0  0  0  0  0  0
    4.9768   14.0533    3.7819 H   0  0  0  0  0  0  0  0  0  0  0  0
    6.5847   16.1017    4.0521 H   0  0  0  0  0  0  0  0  0  0  0  0
    6.4689   16.4860    2.3463 H   0  0  0  0  0  0  0  0  0  0  0  0
    5.0670   17.9656    3.4938 H   0  0  0  0  0  0  0  0  0  0  0  0
    4.9024   16.8413    5.6442 H   0  0  0  0  0  0  0  0  0  0  0  0
    3.7819   15.6485    5.0089 H   0  0  0  0  0  0  0  0  0  0  0  0
    3.2766   18.6407    5.3431 H   0  0  0  0  0  0  0  0  0  0  0  0
    3.1407   17.3760    7.1803 H   0  0  0  0  0  0  0  0  0  0  0  0
    1.0172   18.2402    4.4592 H   0  0  0  0  0  0  0  0  0  0  0  0
    1.3513   16.5246    4.2185 H   0  0  0  0  0  0  0  0  0  0  0  0
    1.5392   17.8189    2.0815 H   0  0  0  0  0  0  0  0  0  0  0  0
    2.7004   18.8789    2.8354 H   0  0  0  0  0  0  0  0  0  0  0  0
    4.9590   17.0535    0.5989 H   0  0  0  0  0  0  0  0  0  0  0  0
    3.3357   17.6360    0.2427 H   0  0  0  0  0  0  0  0  0  0  0  0
    4.4340   18.6046    1.2162 H   0  0  0  0  0  0  0  0  0  0  0  0
    2.7324   15.0095    3.0205 H   0  0  0  0  0  0  0  0  0  0  0  0
    0.9857   15.6403    1.5501 H   0  0  0  0  0  0  0  0  0  0  0  0
    2.0459   15.7134    0.1699 H   0  0  0  0  0  0  0  0  0  0  0  0
    0.7414   13.7325    0.0103 H   0  0  0  0  0  0  0  0  0  0  0  0
    0.0845   13.6746    2.0958 H   0  0  0  0  0  0  0  0  0  0  0  0
    2.3956   13.1980   -1.8533 H   0  0  0  0  0  0  0  0  0  0  0  0
    4.0685   12.8082   -1.4901 H   0  0  0  0  0  0  0  0  0  0  0  0
    3.4340   14.4040   -1.1372 H   0  0  0  0  0  0  0  0  0  0  0  0
  2  1  1  0  0  0  0
  2  3  1  0  0  0  0
  3  4  1  0  0  0  0
  4  5  1  0  0  0  0
  5  6  2  0  0  0  0
  5  7  1  0  0  0  0
  7  8  1  0  0  0  0
  8  9  2  0  0  0  0
  9 10  1  0  0  0  0
 10 11  2  0  0  0  0
 11 12  1  0  0  0  0
 12 13  2  0  0  0  0
 11 14  1  0  0  0  0
 14 15  2  0  0  0  0
  8 15  1  0  0  0  0
 16  2  1  0  0  0  0
 16 17  1  0  0  0  0
 17 18  1  0  0  0  0
 19 18  1  0  0  0  0
 19 20  1  0  0  0  0
 20 21  1  0  0  0  0
 21 22  1  0  0  0  0
 23 22  1  0  0  0  0
 23 24  1  0  0  0  0
 25 24  1  0  0  0  0
 25 26  1  0  0  0  0
 25 27  1  0  0  0  0
 27 28  1  0  0  0  0
 29 28  1  0  0  0  0
 29 23  1  0  0  0  0
 29 30  1  0  0  0  0
 31 29  1  0  0  0  0
 20 31  1  0  0  0  0
 31 32  1  0  0  0  0
 33 32  1  0  0  0  0
 33 34  1  0  0  0  0
 35 33  1  0  0  0  0
 35 16  1  0  0  0  0
 35 19  1  0  0  0  0
 35 36  1  0  0  0  0
  1 37  1  0  0  0  0
  1 38  1  0  0  0  0
  1 39  1  0  0  0  0
  2 40  1  0  0  0  0
  3 41  1  0  0  0  0
  3 42  1  0  0  0  0
  4 43  1  0  0  0  0
  4 44  1  0  0  0  0
  9 45  1  0  0  0  0
 10 46  1  0  0  0  0
 12 47  1  0  0  0  0
 14 48  1  0  0  0  0
 15 49  1  0  0  0  0
 16 50  1  0  0  0  0
 17 51  1  0  0  0  0
 17 52  1  0  0  0  0
 18 53  1  0  0  0  0
 18 54  1  0  0  0  0
 19 55  1  0  0  0  0
 20 56  1  0  0  0  0
 21 57  1  0  0  0  0
 21 58  1  0  0  0  0
 22 59  1  0  0  0  0
 22 60  1  0  0  0  0
 23 61  1  0  0  0  0
 24 62  1  0  0  0  0
 24 63  1  0  0  0  0
 25 64  1  0  0  0  0
 26 65  1  0  0  0  0
 27 66  1  0  0  0  0
 27 67  1  0  0  0  0
 28 68  1  0  0  0  0
 28 69  1  0  0  0  0
 30 70  1  0  0  0  0
 30 71  1  0  0  0  0
 30 72  1  0  0  0  0
 31 73  1  0  0  0  0
 32 74  1  0  0  0  0
 32 75  1  0  0  0  0
 33 76  1  0  0  0  0
 34 77  1  0  0  0  0
 36 78  1  0  0  0  0
 36 79  1  0  0  0  0
 36 80  1  0  0  0  0
M  END
$$$$
> 254_AKC_s40409-018-0164-9
>246.sdf
 OpenBabel10052220553D

 52 53  0  0  0  0  0  0  0  0999 V2000
   -4.5489    1.9969   -1.8509 C   0  0  0  0  0  0  0  0  0  0  0  0
   -3.8785    0.8994   -2.3466 O   0  0  0  0  0  0  0  0  0  0  0  0
   -3.0418    0.2074   -1.5497 C   0  0  0  0  0  0  0  0  0  0  0  0
   -3.5503   -0.7566   -0.6682 C   0  0  0  0  0  0  0  0  0  0  0  0
   -2.6936   -1.4576    0.1942 C   0  0  0  0  0  0  0  0  0  0  0  0
   -3.2675   -2.5187    1.1110 C   0  0  0  0  0  0  0  0  0  0  0  0
   -2.6455   -2.5415    2.4836 C   0  0  0  0  0  0  0  0  0  0  0  0
   -3.2340   -1.9854    3.5442 C   0  0  0  0  0  0  0  0  0  0  0  0
   -1.3205   -1.1568    0.1830 C   0  0  0  0  0  0  0  0  0  0  0  0
   -0.8098   -0.1774   -0.6885 C   0  0  0  0  0  0  0  0  0  0  0  0
   -1.6722    0.4905   -1.5723 C   0  0  0  0  0  0  0  0  0  0  0  0
   -1.1969    1.4191   -2.4365 O   0  0  0  0  0  0  0  0  0  0  0  0
   -0.8298    2.6884   -2.0480 C   0  0  0  0  0  0  0  0  0  0  0  0
    0.6153    0.1801   -0.5980 C   0  0  0  0  0  0  0  0  0  0  0  0
    1.5691   -0.4111   -1.4378 C   0  0  0  0  0  0  0  0  0  0  0  0
    2.9343   -0.1178   -1.2688 C   0  0  0  0  0  0  0  0  0  0  0  0
    3.9661   -0.7774   -2.1424 C   0  0  0  0  0  0  0  0  0  0  0  0
    4.5272   -1.9865   -1.4426 C   0  0  0  0  0  0  0  0  0  0  0  0
    4.4355   -3.2076   -1.9804 C   0  0  0  0  0  0  0  0  0  0  0  0
    3.3365    0.7655   -0.2527 C   0  0  0  0  0  0  0  0  0  0  0  0
    2.3771    1.3662    0.5819 C   0  0  0  0  0  0  0  0  0  0  0  0
    2.7270    2.2029    1.5845 O   0  0  0  0  0  0  0  0  0  0  0  0
    3.6774    1.8766    2.5250 C   0  0  0  0  0  0  0  0  0  0  0  0
    1.0238    1.0759    0.3986 C   0  0  0  0  0  0  0  0  0  0  0  0
    0.1055    1.6431    1.2168 O   0  0  0  0  0  0  0  0  0  0  0  0
   -0.0602    1.2241    2.5181 C   0  0  0  0  0  0  0  0  0  0  0  0
   -5.1752    2.4430   -2.6480 H   0  0  0  0  0  0  0  0  0  0  0  0
   -3.8171    2.7589   -1.5025 H   0  0  0  0  0  0  0  0  0  0  0  0
   -5.1954    1.7015   -0.9964 H   0  0  0  0  0  0  0  0  0  0  0  0
   -4.6137   -0.9634   -0.6661 H   0  0  0  0  0  0  0  0  0  0  0  0
   -4.3750   -2.4235    1.1745 H   0  0  0  0  0  0  0  0  0  0  0  0
   -3.0808   -3.5156    0.6606 H   0  0  0  0  0  0  0  0  0  0  0  0
   -1.6906   -3.0437    2.6135 H   0  0  0  0  0  0  0  0  0  0  0  0
   -2.7518   -2.0414    4.5158 H   0  0  0  0  0  0  0  0  0  0  0  0
   -4.1812   -1.4659    3.4507 H   0  0  0  0  0  0  0  0  0  0  0  0
   -0.6476   -1.6654    0.8625 H   0  0  0  0  0  0  0  0  0  0  0  0
    0.2662    2.8073   -2.1693 H   0  0  0  0  0  0  0  0  0  0  0  0
   -1.3462    3.4232   -2.6998 H   0  0  0  0  0  0  0  0  0  0  0  0
   -1.1124    2.8939   -0.9924 H   0  0  0  0  0  0  0  0  0  0  0  0
    1.2536   -1.1178   -2.1951 H   0  0  0  0  0  0  0  0  0  0  0  0
    4.7867   -0.0612   -2.3637 H   0  0  0  0  0  0  0  0  0  0  0  0
    3.5125   -1.0579   -3.1183 H   0  0  0  0  0  0  0  0  0  0  0  0
    5.0135   -1.8670   -0.4786 H   0  0  0  0  0  0  0  0  0  0  0  0
    4.8439   -4.0649   -1.4553 H   0  0  0  0  0  0  0  0  0  0  0  0
    3.9559   -3.3608   -2.9428 H   0  0  0  0  0  0  0  0  0  0  0  0
    4.3876    0.9888   -0.1193 H   0  0  0  0  0  0  0  0  0  0  0  0
    4.6700    1.7051    2.0643 H   0  0  0  0  0  0  0  0  0  0  0  0
    3.3455    0.9588    3.0588 H   0  0  0  0  0  0  0  0  0  0  0  0
    3.7511    2.6977    3.2663 H   0  0  0  0  0  0  0  0  0  0  0  0
   -1.1444    1.1936    2.7475 H   0  0  0  0  0  0  0  0  0  0  0  0
    0.3567    0.2027    2.6674 H   0  0  0  0  0  0  0  0  0  0  0  0
    0.4427    1.9322    3.2082 H   0  0  0  0  0  0  0  0  0  0  0  0
  1 27  1  0  0  0  0
  1 28  1  0  0  0  0
  1 29  1  0  0  0  0
  2  1  1  0  0  0  0
  3  2  1  0  0  0  0
  4  3  2  0  0  0  0
  4 30  1  0  0  0  0
  5  4  1  0  0  0  0
  6  5  1  0  0  0  0
  6 31  1  0  0  0  0
  6 32  1  0  0  0  0
  7  6  1  0  0  0  0
  7 33  1  0  0  0  0
  8  7  2  0  0  0  0
  8 34  1  0  0  0  0
  8 35  1  0  0  0  0
  9  5  2  0  0  0  0
  9 36  1  0  0  0  0
 10  9  1  0  0  0  0
 11 10  2  0  0  0  0
 11  3  1  0  0  0  0
 12 11  1  0  0  0  0
 13 12  1  0  0  0  0
 13 37  1  0  0  0  0
 13 38  1  0  0  0  0
 13 39  1  0  0  0  0
 14 10  1  0  0  0  0
 15 14  2  0  0  0  0
 15 40  1  0  0  0  0
 16 15  1  0  0  0  0
 17 16  1  0  0  0  0
 17 41  1  0  0  0  0
 17 42  1  0  0  0  0
 18 17  1  0  0  0  0
 18 43  1  0  0  0  0
 19 18  2  0  0  0  0
 19 44  1  0  0  0  0
 19 45  1  0  0  0  0
 20 16  2  0  0  0  0
 20 46  1  0  0  0  0
 21 20  1  0  0  0  0
 22 21  1  0  0  0  0
 23 22  1  0  0  0  0
 23 47  1  0  0  0  0
 23 48  1  0  0  0  0
 23 49  1  0  0  0  0
 24 21  2  0  0  0  0
 24 14  1  0  0  0  0
 25 24  1  0  0  0  0
 26 25  1  0  0  0  0
 26 50  1  0  0  0  0
 26 51  1  0  0  0  0
 26 52  1  0  0  0  0
M  END
>  <MOL Chiral Flag>
0

>  <energy>
133.77921088094516

$$$$
> 255_AKC_j.cbi.2018.08.003
>247.sdf
 OpenBabel10052220553D

 38 39  0  0  0  0  0  0  0  0999 V2000
    5.5990   -1.8486    1.0463 Cl  0  0  0  0  0  0  0  0  0  0  0  0
    4.2056   -0.9860    0.5250 C   0  0  0  0  0  0  0  0  0  0  0  0
    4.1367    0.3906    0.6973 C   0  0  0  0  0  0  0  0  0  0  0  0
    3.0226    1.1118    0.2969 C   0  0  0  0  0  0  0  0  0  0  0  0
    1.9169    0.4483   -0.2989 C   0  0  0  0  0  0  0  0  0  0  0  0
    2.0157   -0.9582   -0.4695 C   0  0  0  0  0  0  0  0  0  0  0  0
    3.1502   -1.6667   -0.0621 C   0  0  0  0  0  0  0  0  0  0  0  0
    0.7839    1.2456   -0.6646 C   0  0  0  0  0  0  0  0  0  0  0  0
   -0.3756    0.6752   -1.2183 N   0  0  0  0  0  0  0  0  0  0  0  0
   -1.7031    1.2225   -0.9308 C   0  0  0  0  0  0  0  0  0  0  0  0
   -2.8136    0.4866   -1.7205 C   0  0  0  0  0  0  0  0  0  0  0  0
   -4.2280    0.4984   -1.1393 N   0  3  0  0  0  0  0  0  0  0  0  0
   -4.5330    1.4110    0.0242 C   0  0  0  0  0  0  0  0  0  0  0  0
   -4.0965    0.7260    1.2450 C   0  0  0  0  0  0  0  0  0  0  0  0
   -3.7343    0.1163    2.2157 C   0  0  0  0  0  0  0  0  0  0  0  0
   -5.3057    0.4415   -2.2066 C   0  0  0  0  0  0  0  0  0  0  0  0
   -5.9978    1.7115   -2.4252 C   0  0  0  0  0  0  0  0  0  0  0  0
   -6.6840    2.6803   -2.6130 C   0  0  0  0  0  0  0  0  0  0  0  0
    0.8523    2.6220   -0.4296 C   0  0  0  0  0  0  0  0  0  0  0  0
    1.9894    3.1592    0.1411 C   0  0  0  0  0  0  0  0  0  0  0  0
    3.0539    2.4308    0.5110 N   0  0  0  0  0  0  0  0  0  0  0  0
    4.9678    0.9211    1.1578 H   0  0  0  0  0  0  0  0  0  0  0  0
    1.2124   -1.5294   -0.9216 H   0  0  0  0  0  0  0  0  0  0  0  0
    3.2040   -2.7435   -0.2027 H   0  0  0  0  0  0  0  0  0  0  0  0
   -0.2922   -0.2919   -1.5092 H   0  0  0  0  0  0  0  0  0  0  0  0
   -1.7599    2.2793   -1.2126 H   0  0  0  0  0  0  0  0  0  0  0  0
   -1.8520    1.1490    0.1464 H   0  0  0  0  0  0  0  0  0  0  0  0
   -2.5652   -0.5777   -1.8170 H   0  0  0  0  0  0  0  0  0  0  0  0
   -2.8630    0.9051   -2.7321 H   0  0  0  0  0  0  0  0  0  0  0  0
   -4.3103   -0.4316   -0.7118 H   0  0  0  0  0  0  0  0  0  0  0  0
   -5.6158    1.5593    0.0840 H   0  0  0  0  0  0  0  0  0  0  0  0
   -4.0426    2.3737   -0.1461 H   0  0  0  0  0  0  0  0  0  0  0  0
   -3.4091   -0.4300    3.0740 H   0  0  0  0  0  0  0  0  0  0  0  0
   -6.0225   -0.3147   -1.8680 H   0  0  0  0  0  0  0  0  0  0  0  0
   -4.8527    0.0714   -3.1321 H   0  0  0  0  0  0  0  0  0  0  0  0
   -7.3527    3.4949   -2.7959 H   0  0  0  0  0  0  0  0  0  0  0  0
    0.0574    3.3010   -0.7074 H   0  0  0  0  0  0  0  0  0  0  0  0
    2.0781    4.2274    0.3200 H   0  0  0  0  0  0  0  0  0  0  0  0
  2  1  1  0  0  0  0
  3  2  2  0  0  0  0
  3 22  1  0  0  0  0
  4  3  1  0  0  0  0
  5  4  2  0  0  0  0
  6  5  1  0  0  0  0
  6 23  1  0  0  0  0
  7  6  2  0  0  0  0
  7  2  1  0  0  0  0
  7 24  1  0  0  0  0
  8  5  1  0  0  0  0
  9  8  1  0  0  0  0
  9 25  1  0  0  0  0
 10  9  1  0  0  0  0
 10 26  1  0  0  0  0
 10 27  1  0  0  0  0
 11 10  1  0  0  0  0
 11 28  1  0  0  0  0
 11 29  1  0  0  0  0
 12 11  1  0  0  0  0
 12 30  1  0  0  0  0
 13 12  1  0  0  0  0
 13 31  1  0  0  0  0
 13 32  1  0  0  0  0
 14 13  1  0  0  0  0
 15 14  3  0  0  0  0
 15 33  1  0  0  0  0
 16 12  1  0  0  0  0
 16 34  1  0  0  0  0
 16 35  1  0  0  0  0
 17 16  1  0  0  0  0
 18 17  3  0  0  0  0
 18 36  1  0  0  0  0
 19  8  2  0  0  0  0
 19 37  1  0  0  0  0
 20 19  1  0  0  0  0
 20 38  1  0  0  0  0
 21 20  2  0  0  0  0
 21  4  1  0  0  0  0
M  CHG  1  12   1
M  END
>  <MOL Chiral Flag>
0

>  <energy>
57.045740932394935

$$$$
> 256_AKC_j.ejps.2018.06.023
>248.sdf
 OpenBabel10062211553D

 46 46  0  0  0  0  0  0  0  0999 V2000
  -10.6402   -1.6286   -3.8079 C   0  0  0  0  0  0  0  0  0  0  0  0
   -9.5120   -0.7084   -3.3390 C   0  0  0  0  0  0  0  0  0  0  0  0
   -8.2509   -1.5139   -3.0018 C   0  0  0  0  0  0  0  0  0  0  0  0
   -7.0853   -0.6157   -2.5453 C   0  0  0  0  0  0  0  0  0  0  0  0
   -5.8710   -1.4818   -2.1740 C   0  0  0  0  0  0  0  0  0  0  0  0
   -4.6332   -0.6709   -1.7378 C   0  0  0  0  0  0  0  0  0  0  0  0
   -3.4970   -1.6459   -1.3674 C   0  0  0  0  0  0  0  0  0  0  0  0
   -2.1502   -0.9996   -0.9651 C   0  0  0  0  0  0  0  0  0  0  0  0
   -1.5588   -0.1978   -2.0581 N   0  3  0  0  0  0  0  0  0  0  0  0
   -0.1003   -0.3808   -2.2043 C   0  0  0  0  0  0  0  0  0  0  0  0
    0.7448    0.1571   -1.0663 C   0  0  0  0  0  0  0  0  0  0  0  0
    0.7297    1.5232   -0.7457 C   0  0  0  0  0  0  0  0  0  0  0  0
    1.5822    2.0265    0.2453 C   0  0  0  0  0  0  0  0  0  0  0  0
    2.4646    1.1787    0.9269 C   0  0  0  0  0  0  0  0  0  0  0  0
    3.3007    1.7196    1.8557 O   0  0  0  0  0  0  0  0  0  0  0  0
    4.2723    1.0300    2.5544 C   0  0  0  0  0  0  0  0  0  0  0  0
    2.4699   -0.1963    0.6179 C   0  0  0  0  0  0  0  0  0  0  0  0
    1.6157   -0.6999   -0.3702 C   0  0  0  0  0  0  0  0  0  0  0  0
  -11.5473   -1.0287   -4.0332 H   0  0  0  0  0  0  0  0  0  0  0  0
  -10.8938   -2.3687   -3.0188 H   0  0  0  0  0  0  0  0  0  0  0  0
  -10.3393   -2.1721   -4.7293 H   0  0  0  0  0  0  0  0  0  0  0  0
   -9.8521   -0.1561   -2.4362 H   0  0  0  0  0  0  0  0  0  0  0  0
   -9.2903    0.0237   -4.1452 H   0  0  0  0  0  0  0  0  0  0  0  0
   -7.9346   -2.0868   -3.9020 H   0  0  0  0  0  0  0  0  0  0  0  0
   -8.4978   -2.2352   -2.1916 H   0  0  0  0  0  0  0  0  0  0  0  0
   -7.3963   -0.0207   -1.6591 H   0  0  0  0  0  0  0  0  0  0  0  0
   -6.8152    0.0807   -3.3693 H   0  0  0  0  0  0  0  0  0  0  0  0
   -5.5944   -2.0999   -3.0571 H   0  0  0  0  0  0  0  0  0  0  0  0
   -6.1674   -2.1623   -1.3454 H   0  0  0  0  0  0  0  0  0  0  0  0
   -4.8808   -0.0363   -0.8595 H   0  0  0  0  0  0  0  0  0  0  0  0
   -4.3183   -0.0144   -2.5774 H   0  0  0  0  0  0  0  0  0  0  0  0
   -3.3040   -2.3157   -2.2348 H   0  0  0  0  0  0  0  0  0  0  0  0
   -3.8411   -2.2796   -0.5209 H   0  0  0  0  0  0  0  0  0  0  0  0
   -1.4839   -1.8528   -0.7036 H   0  0  0  0  0  0  0  0  0  0  0  0
   -2.2617   -0.3775   -0.0495 H   0  0  0  0  0  0  0  0  0  0  0  0
   -1.8087    0.8118   -1.9432 H   0  0  0  0  0  0  0  0  0  0  0  0
   -1.9595   -0.5127   -2.9727 H   0  0  0  0  0  0  0  0  0  0  0  0
    0.2308    0.1479   -3.1252 H   0  0  0  0  0  0  0  0  0  0  0  0
    0.1155   -1.4608   -2.3714 H   0  0  0  0  0  0  0  0  0  0  0  0
    0.0779    2.2028   -1.2785 H   0  0  0  0  0  0  0  0  0  0  0  0
    1.5724    3.0854    0.4708 H   0  0  0  0  0  0  0  0  0  0  0  0
    4.8101    1.7362    3.2205 H   0  0  0  0  0  0  0  0  0  0  0  0
    5.0105    0.5846    1.8526 H   0  0  0  0  0  0  0  0  0  0  0  0
    3.8114    0.2369    3.1800 H   0  0  0  0  0  0  0  0  0  0  0  0
    3.1409   -0.8782    1.1231 H   0  0  0  0  0  0  0  0  0  0  0  0
    1.6527   -1.7555   -0.6086 H   0  0  0  0  0  0  0  0  0  0  0  0
  1 19  1  0  0  0  0
  1 20  1  0  0  0  0
  1 21  1  0  0  0  0
  2  1  1  0  0  0  0
  2 22  1  0  0  0  0
  2 23  1  0  0  0  0
  3  2  1  0  0  0  0
  3 24  1  0  0  0  0
  3 25  1  0  0  0  0
  4  3  1  0  0  0  0
  4 26  1  0  0  0  0
  4 27  1  0  0  0  0
  5  4  1  0  0  0  0
  5 28  1  0  0  0  0
  5 29  1  0  0  0  0
  6  5  1  0  0  0  0
  6 30  1  0  0  0  0
  6 31  1  0  0  0  0
  7  6  1  0  0  0  0
  7 32  1  0  0  0  0
  7 33  1  0  0  0  0
  8  7  1  0  0  0  0
  8 34  1  0  0  0  0
  8 35  1  0  0  0  0
  9  8  1  0  0  0  0
  9 36  1  0  0  0  0
  9 37  1  0  0  0  0
 10  9  1  0  0  0  0
 10 38  1  0  0  0  0
 10 39  1  0  0  0  0
 11 10  1  0  0  0  0
 12 11  2  0  0  0  0
 12 40  1  0  0  0  0
 13 12  1  0  0  0  0
 13 41  1  0  0  0  0
 14 13  2  0  0  0  0
 15 14  1  0  0  0  0
 16 15  1  0  0  0  0
 16 42  1  0  0  0  0
 16 43  1  0  0  0  0
 16 44  1  0  0  0  0
 17 14  1  0  0  0  0
 17 45  1  0  0  0  0
 18 17  2  0  0  0  0
 18 11  1  0  0  0  0
 18 46  1  0  0  0  0
M  CHG  1   9   1
M  END
>  <MOL Chiral Flag>
0

>  <energy>
29.284579918883047

$$$$
> 257_AKC_jac/dky229
>249.sdf
 OpenBabel10062211553D

 48 51  0  0  0  0  0  0  0  0999 V2000
   -0.8386   -3.6800    0.4639 C   0  0  0  0  0  0  0  0  0  0  0  0
   -0.2917   -2.6327   -0.5121 C   0  0  1  0  0  0  0  0  0  0  0  0
   -1.3361   -1.5932   -0.7400 C   0  0  0  0  0  0  0  0  0  0  0  0
   -1.5093   -0.5008    0.0458 N   0  0  0  0  0  0  0  0  0  0  0  0
   -2.4605    0.3403   -0.4599 C   0  0  0  0  0  0  0  0  0  0  0  0
   -3.1036   -0.1345   -1.6227 C   0  0  0  0  0  0  0  0  0  0  0  0
   -2.4135   -1.5941   -2.0182 S   0  0  0  0  0  0  0  0  0  0  0  0
   -2.7241    1.6442    0.1684 C   0  0  0  0  0  0  0  0  0  0  0  0
   -2.3892    1.8337    1.5156 C   0  0  0  0  0  0  0  0  0  0  0  0
   -2.5901    3.0722    2.1311 C   0  0  0  0  0  0  0  0  0  0  0  0
   -3.1205    4.1401    1.4003 C   0  0  0  0  0  0  0  0  0  0  0  0
   -3.4547    3.9611    0.0538 C   0  0  0  0  0  0  0  0  0  0  0  0
   -3.2597    2.7198   -0.5620 C   0  0  0  0  0  0  0  0  0  0  0  0
   -3.3062    5.4232    2.0226 C   0  0  0  0  0  0  0  0  0  0  0  0
   -3.4608    6.4596    2.5133 N   0  0  0  0  0  0  0  0  0  0  0  0
    1.1226   -2.0733   -0.1083 C   0  0  2  0  0  0  0  0  0  0  0  0
    2.0168   -3.1697   -0.0862 O   0  0  0  0  0  0  0  0  0  0  0  0
    1.1242   -1.5661    1.3732 C   0  0  0  0  0  0  0  0  0  0  0  0
    2.3516   -0.9495    1.8182 N   0  0  0  0  0  0  0  0  0  0  0  0
    3.5811   -1.4995    1.9042 C   0  0  0  0  0  0  0  0  0  0  0  0
    4.4351   -0.6241    2.4432 N   0  0  0  0  0  0  0  0  0  0  0  0
    3.6569    0.4647    2.6850 C   0  0  0  0  0  0  0  0  0  0  0  0
    2.3873    0.2705    2.3130 N   0  0  0  0  0  0  0  0  0  0  0  0
    1.5847   -1.0215   -1.1547 C   0  0  0  0  0  0  0  0  0  0  0  0
    2.1213   -1.4418   -2.3971 C   0  0  0  0  0  0  0  0  0  0  0  0
    2.2283   -2.7272   -2.7375 F   0  0  0  0  0  0  0  0  0  0  0  0
    2.5467   -0.5371   -3.3533 C   0  0  0  0  0  0  0  0  0  0  0  0
    2.4279    0.8186   -3.1140 C   0  0  0  0  0  0  0  0  0  0  0  0
    2.8332    1.6987   -4.0457 F   0  0  0  0  0  0  0  0  0  0  0  0
    1.8827    1.2766   -1.9195 C   0  0  0  0  0  0  0  0  0  0  0  0
    1.4573    0.3678   -0.9437 C   0  0  0  0  0  0  0  0  0  0  0  0
   -1.7404   -4.1631    0.0539 H   0  0  0  0  0  0  0  0  0  0  0  0
   -1.1223   -3.2340    1.4292 H   0  0  0  0  0  0  0  0  0  0  0  0
   -0.0988   -4.4735    0.6497 H   0  0  0  0  0  0  0  0  0  0  0  0
   -0.1598   -3.1622   -1.4750 H   0  0  0  0  0  0  0  0  0  0  0  0
   -3.8886    0.3323   -2.1736 H   0  0  0  0  0  0  0  0  0  0  0  0
   -1.9707    1.0174    2.0938 H   0  0  0  0  0  0  0  0  0  0  0  0
   -2.3195    3.1959    3.1744 H   0  0  0  0  0  0  0  0  0  0  0  0
   -3.8572    4.7853   -0.5262 H   0  0  0  0  0  0  0  0  0  0  0  0
   -3.4992    2.6216   -1.6134 H   0  0  0  0  0  0  0  0  0  0  0  0
    2.2319   -3.4710   -0.9660 H   0  0  0  0  0  0  0  0  0  0  0  0
    0.3238   -0.8461    1.5767 H   0  0  0  0  0  0  0  0  0  0  0  0
    0.9760   -2.4195    2.0552 H   0  0  0  0  0  0  0  0  0  0  0  0
    3.8402   -2.5099    1.6004 H   0  0  0  0  0  0  0  0  0  0  0  0
    4.0067    1.3698    3.1236 H   0  0  0  0  0  0  0  0  0  0  0  0
    2.9683   -0.8956   -4.2903 H   0  0  0  0  0  0  0  0  0  0  0  0
    1.7903    2.3432   -1.7488 H   0  0  0  0  0  0  0  0  0  0  0  0
    1.0199    0.7637   -0.0403 H   0  0  0  0  0  0  0  0  0  0  0  0
  1 32  1  0  0  0  0
  1 33  1  0  0  0  0
  1 34  1  0  0  0  0
  2  1  1  0  0  0  0
  2 35  1  6  0  0  0
  3  2  1  0  0  0  0
  4  3  2  0  0  0  0
  5  4  1  0  0  0  0
  6  5  2  0  0  0  0
  6 36  1  0  0  0  0
  7  6  1  0  0  0  0
  7  3  1  0  0  0  0
  8  5  1  0  0  0  0
  9  8  2  0  0  0  0
  9 37  1  0  0  0  0
 10  9  1  0  0  0  0
 10 38  1  0  0  0  0
 11 10  2  0  0  0  0
 12 11  1  0  0  0  0
 12 39  1  0  0  0  0
 13 12  2  0  0  0  0
 13  8  1  0  0  0  0
 13 40  1  0  0  0  0
 14 11  1  0  0  0  0
 15 14  3  0  0  0  0
 16  2  1  0  0  0  0
 16 17  1  6  0  0  0
 17 41  1  0  0  0  0
 18 16  1  0  0  0  0
 18 42  1  0  0  0  0
 18 43  1  0  0  0  0
 19 18  1  0  0  0  0
 20 19  1  0  0  0  0
 20 44  1  0  0  0  0
 21 20  2  0  0  0  0
 22 21  1  0  0  0  0
 22 45  1  0  0  0  0
 23 22  2  0  0  0  0
 23 19  1  0  0  0  0
 24 16  1  0  0  0  0
 25 24  2  0  0  0  0
 26 25  1  0  0  0  0
 27 25  1  0  0  0  0
 27 46  1  0  0  0  0
 28 27  2  0  0  0  0
 29 28  1  0  0  0  0
 30 28  1  0  0  0  0
 30 47  1  0  0  0  0
 31 30  2  0  0  0  0
 31 24  1  0  0  0  0
 31 48  1  0  0  0  0
M  END
>  <MOL Chiral Flag>
0

>  <energy>
73.617767610605839

$$$$
> 258_AKC_AAC.00079-18
>250.sdf
 OpenBabel10062211553D

 17 18  0  0  0  0  0  0  0  0999 V2000
   -2.8795   -1.3719   -0.4756 O   0  0  0  0  0  0  0  0  0  0  0  0
   -1.9179   -0.2887   -0.2949 B   0  0  0  0  0  0  0  0  0  0  0  0
   -2.3095    1.0785    0.0950 O   0  0  0  0  0  0  0  0  0  0  0  0
   -1.0637    1.7324    0.3691 C   0  0  0  0  0  0  0  0  0  0  0  0
    0.0483    0.7441    0.1428 C   0  0  0  0  0  0  0  0  0  0  0  0
   -0.4244   -0.4584   -0.2544 C   0  0  0  0  0  0  0  0  0  0  0  0
    0.4208   -1.5372   -0.5212 C   0  0  0  0  0  0  0  0  0  0  0  0
    1.8050   -1.3506   -0.3667 C   0  0  0  0  0  0  0  0  0  0  0  0
    2.3051   -0.1007    0.0536 C   0  0  0  0  0  0  0  0  0  0  0  0
    3.6391    0.0788    0.2122 F   0  0  0  0  0  0  0  0  0  0  0  0
    1.4178    0.9599    0.3110 C   0  0  0  0  0  0  0  0  0  0  0  0
   -3.3592   -1.4190    0.3910 H   0  0  0  0  0  0  0  0  0  0  0  0
   -1.0467    2.0722    1.4262 H   0  0  0  0  0  0  0  0  0  0  0  0
   -0.9346    2.5965   -0.3169 H   0  0  0  0  0  0  0  0  0  0  0  0
    0.0232   -2.4919   -0.8411 H   0  0  0  0  0  0  0  0  0  0  0  0
    2.4877   -2.1668   -0.5672 H   0  0  0  0  0  0  0  0  0  0  0  0
    1.7885    1.9230    0.6371 H   0  0  0  0  0  0  0  0  0  0  0  0
  1 12  1  0  0  0  0
  2  1  1  0  0  0  0
  3  2  1  0  0  0  0
  4  3  1  0  0  0  0
  4 13  1  0  0  0  0
  4 14  1  0  0  0  0
  5  4  1  0  0  0  0
  6  5  2  0  0  0  0
  6  2  1  0  0  0  0
  7  6  1  0  0  0  0
  7 15  1  0  0  0  0
  8  7  2  0  0  0  0
  8 16  1  0  0  0  0
  9  8  1  0  0  0  0
 10  9  1  0  0  0  0
 11  9  2  0  0  0  0
 11  5  1  0  0  0  0
 11 17  1  0  0  0  0
M  END
>  <MOL Chiral Flag>
0

>  <energy>
-15.324217554747158

$$$$
> 259_AKC_j.jgar.2018.05.007
>251.sdf
  Mrv1816 10102214023D              69.57000

 30 32  0  0  1  0            999 V2000
   -1.2221    9.1810    2.8623 Cl  0  0  0  0  0  0  0  0  0  0  0  0
   -1.7693    7.6918    2.2718 C   0  0  0  0  0  0  0  0  0  0  0  0
   -2.9627    7.6146    1.5320 C   0  0  0  0  0  0  0  0  0  0  0  0
   -3.4256    6.3747    1.0382 C   0  0  0  0  0  0  0  0  0  0  0  0
   -4.8698    6.4276    0.1430 Cl  0  0  0  0  0  0  0  0  0  0  0  0
   -2.6933    5.1754    1.2909 C   0  0  0  0  0  0  0  0  0  0  0  0
   -1.4885    5.2872    2.0348 C   0  0  0  0  0  0  0  0  0  0  0  0
   -1.0263    6.5253    2.5137 C   0  0  0  0  0  0  0  0  0  0  0  0
   -3.1102    3.8157    0.8009 C   0  0  2  0  0  0  0  0  0  0  0  0
   -3.0088    3.6436   -0.7365 C   0  0  1  0  0  0  0  0  0  0  0  0
   -4.1039    2.2599   -1.2005 S   0  0  0  0  0  0  0  0  0  0  0  0
   -5.3691    2.4128   -0.0310 C   0  0  0  0  0  0  0  0  0  0  0  0
   -4.7944    3.3212    1.3330 S   0  0  0  0  0  0  0  0  0  0  0  0
   -6.6049    1.8864   -0.1691 C   0  0  0  0  0  0  0  0  0  0  0  0
   -7.4578    1.9994    0.7824 C   0  0  0  0  0  0  0  0  0  0  0  0
   -8.2175    2.0987    1.6380 N   0  0  0  0  0  0  0  0  0  0  0  0
   -7.0124    1.2367   -1.2809 N   0  0  0  0  0  0  0  0  0  0  0  0
   -7.0048    1.7054   -2.5454 C   0  0  0  0  0  0  0  0  0  0  0  0
   -7.5317    0.7227   -3.3721 C   0  0  0  0  0  0  0  0  0  0  0  0
   -7.8582   -0.3331   -2.6166 N   0  0  0  0  0  0  0  0  0  0  0  0
   -7.5390   -0.0077   -1.3519 C   0  0  0  0  0  0  0  0  0  0  0  0
   -3.4919    8.4725    1.3485 H   0  0  0  0  0  0  0  0  0  0  0  0
   -0.9230    4.4595    2.2382 H   0  0  0  0  0  0  0  0  0  0  0  0
   -0.1491    6.5696    3.0394 H   0  0  0  0  0  0  0  0  0  0  0  0
   -2.4615    3.0482    1.2346 H   0  0  0  0  0  0  0  0  0  0  0  0
   -3.3473    4.5283   -1.2727 H   0  0  0  0  0  0  0  0  0  0  0  0
   -1.9859    3.4235   -1.0457 H   0  0  0  0  0  0  0  0  0  0  0  0
   -6.6762    2.6234   -2.8544 H   0  0  0  0  0  0  0  0  0  0  0  0
   -7.6554    0.7877   -4.3835 H   0  0  0  0  0  0  0  0  0  0  0  0
   -7.6854   -0.6347   -0.5562 H   0  0  0  0  0  0  0  0  0  0  0  0
  1  2  1  0  0  0  0
  2  3  2  0  0  0  0
  3  4  1  0  0  0  0
  4  5  1  0  0  0  0
  4  6  2  0  0  0  0
  6  7  1  0  0  0  0
  7  8  2  0  0  0  0
  2  8  1  0  0  0  0
  9  6  1  0  0  0  0
  9 10  1  0  0  0  0
 10 11  1  0  0  0  0
 11 12  1  0  0  0  0
 12 13  1  0  0  0  0
  9 13  1  0  0  0  0
 12 14  2  0  0  0  0
 14 15  1  0  0  0  0
 15 16  3  0  0  0  0
 14 17  1  0  0  0  0
 17 18  1  0  0  0  0
 18 19  2  0  0  0  0
 19 20  1  0  0  0  0
 20 21  2  0  0  0  0
 17 21  1  0  0  0  0
  3 22  1  0  0  0  0
  7 23  1  0  0  0  0
  8 24  1  0  0  0  0
  9 25  1  0  0  0  0
 10 26  1  0  0  0  0
 10 27  1  0  0  0  0
 18 28  1  0  0  0  0
 19 29  1  0  0  0  0
 21 30  1  0  0  0  0
M  END
$$$$
> 260_AKC_cbdd.13326
>252.sdf
 OpenBabel10062211563D

 58 61  0  0  0  0  0  0  0  0999 V2000
    8.2328    1.6144    1.6613 C   0  0  0  0  0  0  0  0  0  0  0  0
    7.6049    1.3297    0.4633 O   0  0  0  0  0  0  0  0  0  0  0  0
    7.2602    0.0771    0.0619 C   0  0  0  0  0  0  0  0  0  0  0  0
    7.8248   -0.9033    0.5285 O   0  0  0  0  0  0  0  0  0  0  0  0
    5.9785   -0.0720   -0.6529 C   0  0  0  0  0  0  0  0  0  0  0  0
    5.4106    1.0346   -1.2902 C   0  0  0  0  0  0  0  0  0  0  0  0
    4.0948    0.9971   -1.7403 C   0  0  0  0  0  0  0  0  0  0  0  0
    3.4373    2.4729   -2.4503 Cl  0  0  0  0  0  0  0  0  0  0  0  0
    3.3015   -0.1563   -1.5248 C   0  0  0  0  0  0  0  0  0  0  0  0
    1.8741   -0.0297   -1.6625 N   0  0  0  0  0  0  0  0  0  0  0  0
    0.9451   -0.9449   -1.2619 C   0  0  0  0  0  0  0  0  0  0  0  0
    1.2223   -2.1198   -1.0914 O   0  0  0  0  0  0  0  0  0  0  0  0
   -0.4112   -0.4617   -0.8495 C   0  0  0  0  0  0  0  0  0  0  0  0
   -1.2813    0.5413   -2.1058 S   0  0  0  0  0  0  0  0  0  0  0  0
   -2.0062    1.6328   -0.8614 C   0  0  0  0  0  0  0  0  0  0  0  0
   -1.3407    2.7038   -0.3496 N   0  0  0  0  0  0  0  0  0  0  0  0
   -2.1994    3.2322    0.5365 C   0  0  0  0  0  0  0  0  0  0  0  0
   -2.0171    4.3613    1.3338 C   0  0  0  0  0  0  0  0  0  0  0  0
   -3.0686    4.7417    2.1873 C   0  0  0  0  0  0  0  0  0  0  0  0
   -4.2671    3.9879    2.2244 C   0  0  0  0  0  0  0  0  0  0  0  0
   -5.5719    4.4765    3.2896 Cl  0  0  0  0  0  0  0  0  0  0  0  0
   -4.4164    2.8490    1.4049 C   0  0  0  0  0  0  0  0  0  0  0  0
   -3.3544    2.5015    0.5685 C   0  0  0  0  0  0  0  0  0  0  0  0
   -3.2417    1.4859   -0.3116 N   0  0  0  0  0  0  0  0  0  0  0  0
   -4.2463    0.4625   -0.6463 C   0  0  0  0  0  0  0  0  0  0  0  0
   -3.7332   -0.9335   -0.3917 C   0  0  0  0  0  0  0  0  0  0  0  0
   -3.4505   -1.3717    0.9139 C   0  0  0  0  0  0  0  0  0  0  0  0
   -2.9628   -2.6738    1.1329 C   0  0  0  0  0  0  0  0  0  0  0  0
   -2.6642   -3.1626    2.5202 C   0  0  0  0  0  0  0  0  0  0  0  0
   -2.7446   -3.5277    0.0412 C   0  0  0  0  0  0  0  0  0  0  0  0
   -3.0198   -3.0939   -1.2636 C   0  0  0  0  0  0  0  0  0  0  0  0
   -2.7595   -3.9857   -2.4409 C   0  0  0  0  0  0  0  0  0  0  0  0
   -3.5264   -1.8060   -1.4732 C   0  0  0  0  0  0  0  0  0  0  0  0
    3.9282   -1.3127   -0.9883 C   0  0  0  0  0  0  0  0  0  0  0  0
    5.2563   -1.2657   -0.5677 C   0  0  0  0  0  0  0  0  0  0  0  0
    8.5040    0.7012    2.2336 H   0  0  0  0  0  0  0  0  0  0  0  0
    9.1354    2.2269    1.4780 H   0  0  0  0  0  0  0  0  0  0  0  0
    7.5283    2.1998    2.2936 H   0  0  0  0  0  0  0  0  0  0  0  0
    5.9686    1.9584   -1.3807 H   0  0  0  0  0  0  0  0  0  0  0  0
    1.5151    0.9168   -1.8410 H   0  0  0  0  0  0  0  0  0  0  0  0
   -1.0276   -1.3067   -0.5062 H   0  0  0  0  0  0  0  0  0  0  0  0
   -0.2007    0.1787    0.0357 H   0  0  0  0  0  0  0  0  0  0  0  0
   -1.0974    4.9315    1.2944 H   0  0  0  0  0  0  0  0  0  0  0  0
   -2.9595    5.6171    2.8158 H   0  0  0  0  0  0  0  0  0  0  0  0
   -5.3315    2.2743    1.4310 H   0  0  0  0  0  0  0  0  0  0  0  0
   -5.1820    0.6055   -0.0703 H   0  0  0  0  0  0  0  0  0  0  0  0
   -4.5003    0.5895   -1.7199 H   0  0  0  0  0  0  0  0  0  0  0  0
   -3.6107   -0.7037    1.7520 H   0  0  0  0  0  0  0  0  0  0  0  0
   -3.2857   -4.0570    2.7394 H   0  0  0  0  0  0  0  0  0  0  0  0
   -2.8816   -2.3885    3.2858 H   0  0  0  0  0  0  0  0  0  0  0  0
   -1.5922   -3.4432    2.5964 H   0  0  0  0  0  0  0  0  0  0  0  0
   -2.3547   -4.5250    0.2092 H   0  0  0  0  0  0  0  0  0  0  0  0
   -2.3502   -4.9697   -2.1290 H   0  0  0  0  0  0  0  0  0  0  0  0
   -2.0192   -3.4991   -3.1123 H   0  0  0  0  0  0  0  0  0  0  0  0
   -3.7022   -4.1525   -3.0017 H   0  0  0  0  0  0  0  0  0  0  0  0
   -3.7327   -1.4731   -2.4834 H   0  0  0  0  0  0  0  0  0  0  0  0
    3.4096   -2.2300   -0.7911 H   0  0  0  0  0  0  0  0  0  0  0  0
    5.6795   -2.1324   -0.0741 H   0  0  0  0  0  0  0  0  0  0  0  0
  1 36  1  0  0  0  0
  1 37  1  0  0  0  0
  1 38  1  0  0  0  0
  2  1  1  0  0  0  0
  3  2  1  0  0  0  0
  4  3  2  0  0  0  0
  5  3  1  0  0  0  0
  6  5  2  0  0  0  0
  6 39  1  0  0  0  0
  7  6  1  0  0  0  0
  8  7  1  0  0  0  0
  9  7  2  0  0  0  0
 10  9  1  0  0  0  0
 10 40  1  0  0  0  0
 11 10  1  0  0  0  0
 12 11  2  0  0  0  0
 13 11  1  0  0  0  0
 13 41  1  0  0  0  0
 13 42  1  0  0  0  0
 14 13  1  0  0  0  0
 15 14  1  0  0  0  0
 16 15  2  0  0  0  0
 17 16  1  0  0  0  0
 18 17  2  0  0  0  0
 18 43  1  0  0  0  0
 19 18  1  0  0  0  0
 19 44  1  0  0  0  0
 20 19  2  0  0  0  0
 21 20  1  0  0  0  0
 22 20  1  0  0  0  0
 22 45  1  0  0  0  0
 23 22  2  0  0  0  0
 23 17  1  0  0  0  0
 24 23  1  0  0  0  0
 24 15  1  0  0  0  0
 25 24  1  0  0  0  0
 25 46  1  0  0  0  0
 25 47  1  0  0  0  0
 26 25  1  0  0  0  0
 27 26  2  0  0  0  0
 27 48  1  0  0  0  0
 28 27  1  0  0  0  0
 29 28  1  0  0  0  0
 29 49  1  0  0  0  0
 29 50  1  0  0  0  0
 29 51  1  0  0  0  0
 30 28  2  0  0  0  0
 30 52  1  0  0  0  0
 31 30  1  0  0  0  0
 32 31  1  0  0  0  0
 32 53  1  0  0  0  0
 32 54  1  0  0  0  0
 32 55  1  0  0  0  0
 33 31  2  0  0  0  0
 33 26  1  0  0  0  0
 33 56  1  0  0  0  0
 34  9  1  0  0  0  0
 34 57  1  0  0  0  0
 35 34  2  0  0  0  0
 35  5  1  0  0  0  0
 35 58  1  0  0  0  0
M  END
>  <MOL Chiral Flag>
0

>  <energy>
90.191714810241393

$$$$
> 261_AKC_s40409-018-0156-9
>253.sdf
 OpenBabel10062211573D

 62 61  0  0  0  0  0  0  0  0999 V2000
  -10.4659  -13.8959   -0.9884 C   0  0  0  0  0  0  0  0  0  0  0  0
   -9.2070  -13.1665   -1.4483 C   0  0  0  0  0  0  0  0  0  0  0  0
   -9.0493  -11.7179   -0.9272 C   0  0  0  0  0  0  0  0  0  0  0  0
   -8.0093  -10.9435   -1.7788 C   0  0  0  0  0  0  0  0  0  0  0  0
   -7.1879   -9.7893   -1.1140 C   0  0  0  0  0  0  0  0  0  0  0  0
   -6.4748   -8.9561   -2.1861 C   0  0  0  0  0  0  0  0  0  0  0  0
   -5.6207   -7.9026   -2.1622 C   0  0  0  0  0  0  0  0  0  0  0  0
   -5.0440   -7.1027   -1.0177 C   0  0  0  0  0  0  0  0  0  0  0  0
   -3.7179   -6.3398   -1.2171 C   0  0  0  0  0  0  0  0  0  0  0  0
   -2.8114   -6.2859   -2.2205 C   0  0  0  0  0  0  0  0  0  0  0  0
   -1.5696   -5.3696   -2.3143 C   0  0  0  0  0  0  0  0  0  0  0  0
   -0.6807   -5.2950   -1.0884 C   0  0  0  0  0  0  0  0  0  0  0  0
    0.6030   -4.8790   -0.9707 C   0  0  0  0  0  0  0  0  0  0  0  0
    1.5866   -4.3666   -2.0033 C   0  0  0  0  0  0  0  0  0  0  0  0
    2.0803   -2.9632   -1.7015 C   0  0  0  0  0  0  0  0  0  0  0  0
    3.3102   -2.4862   -1.9889 C   0  0  0  0  0  0  0  0  0  0  0  0
    3.7674   -1.0581   -1.7558 C   0  0  0  0  0  0  0  0  0  0  0  0
    2.9037   -0.0294   -2.4955 C   0  0  0  0  0  0  0  0  0  0  0  0
    3.2208    1.4217   -2.1214 C   0  0  0  0  0  0  0  0  0  0  0  0
    2.2154    2.3678   -2.7775 C   0  0  0  0  0  0  0  0  0  0  0  0
    2.2988    3.6509   -2.1789 O   0  0  0  0  0  0  0  0  0  0  0  0
    0.8882    4.3561   -1.8328 P   0  0  1  0  0  0  0  0  0  0  0  0
    1.2801    5.7344   -1.1953 F   0  0  0  0  0  0  0  0  0  0  0  0
   -0.0611    4.4998   -2.9742 O   0  0  0  0  0  0  0  0  0  0  0  0
    0.3433    3.4902   -0.5850 O   0  0  0  0  0  0  0  0  0  0  0  0
   -0.9627    3.7875   -0.1397 C   0  0  0  0  0  0  0  0  0  0  0  0
  -10.4313  -14.9412   -1.3230 H   0  0  0  0  0  0  0  0  0  0  0  0
  -11.3660  -13.4497   -1.4239 H   0  0  0  0  0  0  0  0  0  0  0  0
  -10.5673  -13.9001    0.1003 H   0  0  0  0  0  0  0  0  0  0  0  0
   -8.3360  -13.7491   -1.1246 H   0  0  0  0  0  0  0  0  0  0  0  0
   -9.2032  -13.1731   -2.5449 H   0  0  0  0  0  0  0  0  0  0  0  0
   -8.7694  -11.7403    0.1312 H   0  0  0  0  0  0  0  0  0  0  0  0
  -10.0185  -11.2059   -0.9953 H   0  0  0  0  0  0  0  0  0  0  0  0
   -8.5635  -10.5371   -2.6359 H   0  0  0  0  0  0  0  0  0  0  0  0
   -7.2890  -11.6607   -2.1923 H   0  0  0  0  0  0  0  0  0  0  0  0
   -7.8565   -9.1543   -0.5234 H   0  0  0  0  0  0  0  0  0  0  0  0
   -6.4470  -10.2363   -0.4408 H   0  0  0  0  0  0  0  0  0  0  0  0
   -6.7537   -9.2672   -3.1960 H   0  0  0  0  0  0  0  0  0  0  0  0
   -5.3691   -7.4968   -3.1430 H   0  0  0  0  0  0  0  0  0  0  0  0
   -4.9466   -7.7329   -0.1281 H   0  0  0  0  0  0  0  0  0  0  0  0
   -5.7864   -6.3265   -0.7838 H   0  0  0  0  0  0  0  0  0  0  0  0
   -3.5195   -5.6861   -0.3662 H   0  0  0  0  0  0  0  0  0  0  0  0
   -2.9855   -6.8814   -3.1152 H   0  0  0  0  0  0  0  0  0  0  0  0
   -1.9212   -4.3584   -2.5565 H   0  0  0  0  0  0  0  0  0  0  0  0
   -0.9666   -5.7074   -3.1668 H   0  0  0  0  0  0  0  0  0  0  0  0
   -1.1557   -5.6072   -0.1599 H   0  0  0  0  0  0  0  0  0  0  0  0
    1.0326   -4.9254    0.0324 H   0  0  0  0  0  0  0  0  0  0  0  0
    1.1387   -4.3727   -3.0012 H   0  0  0  0  0  0  0  0  0  0  0  0
    2.4443   -5.0526   -2.0216 H   0  0  0  0  0  0  0  0  0  0  0  0
    1.3543   -2.2907   -1.2497 H   0  0  0  0  0  0  0  0  0  0  0  0
    4.0484   -3.1423   -2.4486 H   0  0  0  0  0  0  0  0  0  0  0  0
    3.7838   -0.8537   -0.6786 H   0  0  0  0  0  0  0  0  0  0  0  0
    4.8056   -0.9584   -2.1011 H   0  0  0  0  0  0  0  0  0  0  0  0
    3.0270   -0.1587   -3.5783 H   0  0  0  0  0  0  0  0  0  0  0  0
    1.8473   -0.2152   -2.2717 H   0  0  0  0  0  0  0  0  0  0  0  0
    4.2373    1.6935   -2.4324 H   0  0  0  0  0  0  0  0  0  0  0  0
    3.1895    1.5517   -1.0329 H   0  0  0  0  0  0  0  0  0  0  0  0
    1.2000    1.9697   -2.6703 H   0  0  0  0  0  0  0  0  0  0  0  0
    2.4220    2.4709   -3.8477 H   0  0  0  0  0  0  0  0  0  0  0  0
   -1.0584    4.8537    0.0816 H   0  0  0  0  0  0  0  0  0  0  0  0
   -1.6912    3.4968   -0.9015 H   0  0  0  0  0  0  0  0  0  0  0  0
   -1.1603    3.2159    0.7709 H   0  0  0  0  0  0  0  0  0  0  0  0
  1 27  1  0  0  0  0
  1 28  1  0  0  0  0
  1 29  1  0  0  0  0
  2  1  1  0  0  0  0
  2 30  1  0  0  0  0
  2 31  1  0  0  0  0
  3  2  1  0  0  0  0
  3 32  1  0  0  0  0
  3 33  1  0  0  0  0
  4  3  1  0  0  0  0
  4 34  1  0  0  0  0
  4 35  1  0  0  0  0
  5  4  1  0  0  0  0
  5 36  1  0  0  0  0
  5 37  1  0  0  0  0
  6  5  1  0  0  0  0
  6 38  1  0  0  0  0
  7  6  2  0  0  0  0
  7 39  1  0  0  0  0
  8  7  1  0  0  0  0
  8 40  1  0  0  0  0
  8 41  1  0  0  0  0
  9  8  1  0  0  0  0
  9 42  1  0  0  0  0
 10  9  2  0  0  0  0
 10 43  1  0  0  0  0
 11 10  1  0  0  0  0
 11 44  1  0  0  0  0
 11 45  1  0  0  0  0
 12 11  1  0  0  0  0
 12 46  1  0  0  0  0
 13 12  2  0  0  0  0
 13 47  1  0  0  0  0
 14 13  1  0  0  0  0
 14 48  1  0  0  0  0
 14 49  1  0  0  0  0
 15 14  1  0  0  0  0
 15 50  1  0  0  0  0
 16 15  2  0  0  0  0
 16 51  1  0  0  0  0
 17 16  1  0  0  0  0
 17 52  1  0  0  0  0
 17 53  1  0  0  0  0
 18 17  1  0  0  0  0
 18 54  1  0  0  0  0
 18 55  1  0  0  0  0
 19 18  1  0  0  0  0
 19 56  1  0  0  0  0
 19 57  1  0  0  0  0
 20 19  1  0  0  0  0
 20 58  1  0  0  0  0
 20 59  1  0  0  0  0
 21 20  1  0  0  0  0
 22 21  1  6  0  0  0
 23 22  1  0  0  0  0
 24 22  2  0  0  0  0
 25 22  1  0  0  0  0
 26 25  1  0  0  0  0
 26 60  1  0  0  0  0
 26 61  1  0  0  0  0
 26 62  1  0  0  0  0
M  END
>  <MOL Chiral Flag>
0

>  <energy>
-21.885200784237604

$$$$
> 262_AKC_s40409-0
>254.sdf
 OpenBabel10062211573D

 32 34  0  0  0  0  0  0  0  0999 V2000
   -5.8403    1.8994   -0.3297 Br  0  0  0  0  0  0  0  0  0  0  0  0
   -4.5532    1.2622    0.9474 C   0  0  0  0  0  0  0  0  0  0  0  0
   -3.4287    0.6113    0.6042 C   0  0  0  0  0  0  0  0  0  0  0  0
   -3.0959    0.3170   -0.8470 C   0  0  0  0  0  0  0  0  0  0  0  0
   -1.5810    0.2080   -1.0225 C   0  0  0  0  0  0  0  0  0  0  0  0
   -1.0202   -0.8363   -0.0476 C   0  0  2  0  0  0  0  0  0  0  0  0
   -1.4424   -0.5029    1.3673 C   0  0  0  0  0  0  0  0  0  0  0  0
   -0.7847   -0.9005    2.3155 O   0  0  0  0  0  0  0  0  0  0  0  0
   -2.5931    0.1877    1.5945 O   0  0  0  0  0  0  0  0  0  0  0  0
    0.4837   -1.0503   -0.2375 C   0  0  0  0  0  0  0  0  0  0  0  0
    0.8873   -2.2810   -0.7923 C   0  0  0  0  0  0  0  0  0  0  0  0
    2.2282   -2.5571   -1.0400 C   0  0  0  0  0  0  0  0  0  0  0  0
    3.2066   -1.6189   -0.7379 C   0  0  0  0  0  0  0  0  0  0  0  0
    2.8549   -0.3870   -0.1743 C   0  0  0  0  0  0  0  0  0  0  0  0
    1.4877   -0.0807    0.0872 C   0  0  0  0  0  0  0  0  0  0  0  0
    1.1842    1.1731    0.6689 C   0  0  0  0  0  0  0  0  0  0  0  0
    2.2020    2.0840    0.9705 C   0  0  0  0  0  0  0  0  0  0  0  0
    3.5327    1.7715    0.7008 C   0  0  0  0  0  0  0  0  0  0  0  0
    3.8602    0.5434    0.1317 C   0  0  0  0  0  0  0  0  0  0  0  0
   -4.7605    1.4452    1.9970 H   0  0  0  0  0  0  0  0  0  0  0  0
   -3.5825   -0.6425   -1.1298 H   0  0  0  0  0  0  0  0  0  0  0  0
   -3.4596    1.1109   -1.5319 H   0  0  0  0  0  0  0  0  0  0  0  0
   -1.1328    1.2061   -0.8452 H   0  0  0  0  0  0  0  0  0  0  0  0
   -1.3523   -0.0846   -2.0705 H   0  0  0  0  0  0  0  0  0  0  0  0
   -1.5523   -1.7805   -0.3012 H   0  0  0  0  0  0  0  0  0  0  0  0
    0.1521   -3.0329   -1.0505 H   0  0  0  0  0  0  0  0  0  0  0  0
    2.5093   -3.5070   -1.4758 H   0  0  0  0  0  0  0  0  0  0  0  0
    4.2443   -1.8552   -0.9421 H   0  0  0  0  0  0  0  0  0  0  0  0
    0.1741    1.4616    0.9047 H   0  0  0  0  0  0  0  0  0  0  0  0
    1.9569    3.0387    1.4182 H   0  0  0  0  0  0  0  0  0  0  0  0
    4.3147    2.4822    0.9366 H   0  0  0  0  0  0  0  0  0  0  0  0
    4.9008    0.3151   -0.0687 H   0  0  0  0  0  0  0  0  0  0  0  0
  2  1  1  0  0  0  0
  2 20  1  0  0  0  0
  3  2  2  0  0  0  0
  4  3  1  0  0  0  0
  4 21  1  0  0  0  0
  4 22  1  0  0  0  0
  5  4  1  0  0  0  0
  5 23  1  0  0  0  0
  5 24  1  0  0  0  0
  6  5  1  0  0  0  0
  6 25  1  6  0  0  0
  7  6  1  0  0  0  0
  8  7  2  0  0  0  0
  9  7  1  0  0  0  0
  9  3  1  0  0  0  0
 10  6  1  0  0  0  0
 11 10  2  0  0  0  0
 11 26  1  0  0  0  0
 12 11  1  0  0  0  0
 12 27  1  0  0  0  0
 13 12  2  0  0  0  0
 13 28  1  0  0  0  0
 14 13  1  0  0  0  0
 15 14  2  0  0  0  0
 15 10  1  0  0  0  0
 16 15  1  0  0  0  0
 16 29  1  0  0  0  0
 17 16  2  0  0  0  0
 17 30  1  0  0  0  0
 18 17  1  0  0  0  0
 18 31  1  0  0  0  0
 19 18  2  0  0  0  0
 19 14  1  0  0  0  0
 19 32  1  0  0  0  0
M  END
>  <MOL Chiral Flag>
0

>  <energy>
74.009070400561697

$$$$
> 263_AKC_s40409-0
>255.sdf
 OpenBabel10062211573D

 35 38  0  0  0  0  0  0  0  0999 V2000
   -4.9872   -0.5485   -0.7330 C   0  0  0  0  0  0  0  0  0  0  0  0
   -3.8270    0.1818   -0.8641 O   0  0  0  0  0  0  0  0  0  0  0  0
   -2.6314   -0.3403   -1.2471 C   0  0  0  0  0  0  0  0  0  0  0  0
   -1.4515    0.0709   -0.5828 C   0  0  0  0  0  0  0  0  0  0  0  0
   -1.5434    1.0331    0.4182 C   0  0  0  0  0  0  0  0  0  0  0  0
   -0.4321    1.4775    1.1407 C   0  0  0  0  0  0  0  0  0  0  0  0
    0.8526    0.8701    0.9100 C   0  0  0  0  0  0  0  0  0  0  0  0
    2.0398    1.1404    1.7257 C   0  0  0  0  0  0  0  0  0  0  0  0
    3.2805    0.5982    1.3353 C   0  0  0  0  0  0  0  0  0  0  0  0
    3.3429   -0.2266    0.2435 C   0  0  0  0  0  0  0  0  0  0  0  0
    4.4257   -0.8408   -0.2322 O   0  0  0  0  0  0  0  0  0  0  0  0
    4.0463   -1.6244   -1.3165 C   0  0  0  0  0  0  0  0  0  0  0  0
    2.6725   -1.4163   -1.4265 O   0  0  0  0  0  0  0  0  0  0  0  0
    2.2720   -0.5698   -0.4733 C   0  0  0  0  0  0  0  0  0  0  0  0
    0.9742   -0.0719   -0.1916 C   0  0  0  0  0  0  0  0  0  0  0  0
   -0.1925   -0.4755   -0.9325 C   0  0  0  0  0  0  0  0  0  0  0  0
   -0.1606   -1.4241   -1.9920 C   0  0  0  0  0  0  0  0  0  0  0  0
   -1.3268   -1.8109   -2.6500 C   0  0  0  0  0  0  0  0  0  0  0  0
   -2.5542   -1.2848   -2.2790 C   0  0  0  0  0  0  0  0  0  0  0  0
    2.0488    1.8423    3.0531 C   0  0  0  0  0  0  0  0  0  0  0  0
    0.9603    1.8274    3.8470 O   0  0  0  0  0  0  0  0  0  0  0  0
    3.1009    2.2500    3.5223 O   0  0  0  0  0  0  0  0  0  0  0  0
   -0.6426    2.6049    1.9991 N   0  3  0  0  0  0  0  0  0  0  0  0
   -1.8546    2.9045    2.4052 O   0  5  0  0  0  0  0  0  0  0  0  0
    0.1966    3.4626    2.0471 O   0  0  0  0  0  0  0  0  0  0  0  0
   -5.2733   -1.0572   -1.6743 H   0  0  0  0  0  0  0  0  0  0  0  0
   -4.8525   -1.2987    0.0774 H   0  0  0  0  0  0  0  0  0  0  0  0
   -5.8099    0.1339   -0.4368 H   0  0  0  0  0  0  0  0  0  0  0  0
   -2.5051    1.4863    0.6177 H   0  0  0  0  0  0  0  0  0  0  0  0
    4.1835    0.7709    1.9081 H   0  0  0  0  0  0  0  0  0  0  0  0
    4.2602   -2.6954   -1.1143 H   0  0  0  0  0  0  0  0  0  0  0  0
    4.5651   -1.2874   -2.2386 H   0  0  0  0  0  0  0  0  0  0  0  0
    0.7342   -1.8950   -2.3353 H   0  0  0  0  0  0  0  0  0  0  0  0
   -1.2754   -2.5351   -3.4537 H   0  0  0  0  0  0  0  0  0  0  0  0
   -3.4398   -1.6059   -2.8093 H   0  0  0  0  0  0  0  0  0  0  0  0
  1 26  1  0  0  0  0
  1 27  1  0  0  0  0
  1 28  1  0  0  0  0
  2  1  1  0  0  0  0
  3  2  1  0  0  0  0
  4  3  2  0  0  0  0
  5  4  1  0  0  0  0
  5 29  1  0  0  0  0
  6  5  2  0  0  0  0
  7  6  1  0  0  0  0
  8  7  2  0  0  0  0
  9  8  1  0  0  0  0
  9 30  1  0  0  0  0
 10  9  2  0  0  0  0
 11 10  1  0  0  0  0
 12 11  1  0  0  0  0
 12 31  1  0  0  0  0
 12 32  1  0  0  0  0
 13 12  1  0  0  0  0
 14 13  1  0  0  0  0
 14 10  1  0  0  0  0
 15 14  2  0  0  0  0
 15  7  1  0  0  0  0
 16 15  1  0  0  0  0
 16  4  1  0  0  0  0
 17 16  2  0  0  0  0
 17 33  1  0  0  0  0
 18 17  1  0  0  0  0
 18 34  1  0  0  0  0
 19 18  2  0  0  0  0
 19  3  1  0  0  0  0
 19 35  1  0  0  0  0
 20  8  1  0  0  0  0
 21 20  1  0  0  0  0
 22 20  2  0  0  0  0
 23  6  1  0  0  0  0
 24 23  1  0  0  0  0
 25 23  2  0  0  0  0
M  CHG  2  23   1  24  -1
M  END
>  <MOL Chiral Flag>
0

>  <energy>
93.209703471036534

$$$$
> 264_AKC_ardp.201800094
>256.sdf
 OpenBabel10062211573D

 39 42  0  0  0  0  0  0  0  0999 V2000
   -4.9706   -0.9748    1.0118 C   0  0  0  0  0  0  0  0  0  0  0  0
   -4.0577   -0.0177    0.2856 C   0  0  0  0  0  0  0  0  0  0  0  0
   -4.6128    1.1214   -0.3225 C   0  0  0  0  0  0  0  0  0  0  0  0
   -3.7999    2.0374   -0.9913 C   0  0  0  0  0  0  0  0  0  0  0  0
   -2.4180    1.8507   -1.0370 C   0  0  0  0  0  0  0  0  0  0  0  0
   -1.8378    0.7317   -0.4304 C   0  0  0  0  0  0  0  0  0  0  0  0
   -2.6542   -0.2299    0.2103 C   0  0  0  0  0  0  0  0  0  0  0  0
   -2.0393   -1.3757    0.7460 C   0  0  0  0  0  0  0  0  0  0  0  0
   -0.6474   -1.5472    0.6404 C   0  0  0  0  0  0  0  0  0  0  0  0
   -0.0127   -2.7005    1.1246 C   0  0  0  0  0  0  0  0  0  0  0  0
   -0.6547   -3.5932    1.6526 O   0  0  0  0  0  0  0  0  0  0  0  0
    1.3640   -2.8393    0.9827 C   0  0  0  0  0  0  0  0  0  0  0  0
    2.1284   -1.8028    0.4229 C   0  0  0  0  0  0  0  0  0  0  0  0
    1.5034   -0.6424    0.0056 N   0  0  0  0  0  0  0  0  0  0  0  0
    2.2893    0.5113   -0.3530 C   0  0  0  0  0  0  0  0  0  0  0  0
    2.8202    1.2920    0.6871 C   0  0  0  0  0  0  0  0  0  0  0  0
    3.5729    2.4300    0.4120 C   0  0  0  0  0  0  0  0  0  0  0  0
    3.8090    2.8037   -0.9115 C   0  0  0  0  0  0  0  0  0  0  0  0
    4.7601    4.2384   -1.2505 Cl  0  0  0  0  0  0  0  0  0  0  0  0
    3.2830    2.0349   -1.9606 C   0  0  0  0  0  0  0  0  0  0  0  0
    2.5157    0.8902   -1.6853 C   0  0  0  0  0  0  0  0  0  0  0  0
    0.1326   -0.5297    0.0520 C   0  0  0  0  0  0  0  0  0  0  0  0
   -0.4861    0.5740   -0.4618 N   0  0  0  0  0  0  0  0  0  0  0  0
    3.6313   -1.9911    0.2580 C   0  0  0  0  0  0  0  0  0  0  0  0
    4.0302   -3.2740    0.5949 F   0  0  0  0  0  0  0  0  0  0  0  0
    3.9680   -1.7883   -1.0696 F   0  0  0  0  0  0  0  0  0  0  0  0
    4.3324   -1.1012    1.0459 F   0  0  0  0  0  0  0  0  0  0  0  0
   -4.6575   -1.0496    2.0756 H   0  0  0  0  0  0  0  0  0  0  0  0
   -6.0259   -0.6264    1.0008 H   0  0  0  0  0  0  0  0  0  0  0  0
   -4.9338   -1.9786    0.5419 H   0  0  0  0  0  0  0  0  0  0  0  0
   -5.6811    1.2976   -0.2837 H   0  0  0  0  0  0  0  0  0  0  0  0
   -4.2439    2.9022   -1.4676 H   0  0  0  0  0  0  0  0  0  0  0  0
   -1.7982    2.5742   -1.5515 H   0  0  0  0  0  0  0  0  0  0  0  0
   -2.6346   -2.1404    1.2271 H   0  0  0  0  0  0  0  0  0  0  0  0
    1.8379   -3.7473    1.3353 H   0  0  0  0  0  0  0  0  0  0  0  0
    2.6373    1.0101    1.7174 H   0  0  0  0  0  0  0  0  0  0  0  0
    3.9698    3.0199    1.2296 H   0  0  0  0  0  0  0  0  0  0  0  0
    3.4689    2.3280   -2.9853 H   0  0  0  0  0  0  0  0  0  0  0  0
    2.1118    0.3027   -2.4986 H   0  0  0  0  0  0  0  0  0  0  0  0
  1 28  1  0  0  0  0
  1 29  1  0  0  0  0
  1 30  1  0  0  0  0
  2  1  1  0  0  0  0
  3  2  2  0  0  0  0
  3 31  1  0  0  0  0
  4  3  1  0  0  0  0
  4 32  1  0  0  0  0
  5  4  2  0  0  0  0
  5 33  1  0  0  0  0
  6  5  1  0  0  0  0
  7  6  2  0  0  0  0
  7  2  1  0  0  0  0
  8  7  1  0  0  0  0
  8 34  1  0  0  0  0
  9  8  2  0  0  0  0
 10  9  1  0  0  0  0
 11 10  2  0  0  0  0
 12 10  1  0  0  0  0
 12 35  1  0  0  0  0
 13 12  2  0  0  0  0
 14 13  1  0  0  0  0
 15 14  1  0  0  0  0
 16 15  2  0  0  0  0
 16 36  1  0  0  0  0
 17 16  1  0  0  0  0
 17 37  1  0  0  0  0
 18 17  2  0  0  0  0
 19 18  1  0  0  0  0
 20 18  1  0  0  0  0
 20 38  1  0  0  0  0
 21 20  2  0  0  0  0
 21 15  1  0  0  0  0
 21 39  1  0  0  0  0
 22 14  1  0  0  0  0
 22  9  1  0  0  0  0
 23 22  2  0  0  0  0
 23  6  1  0  0  0  0
 24 13  1  0  0  0  0
 25 24  1  0  0  0  0
 26 24  1  0  0  0  0
 27 24  1  0  0  0  0
M  END
>  <MOL Chiral Flag>
0

>  <energy>
87.58614861940751

$$$$
> 265_AKC_cmdc.201800328
>257.sdf
 OpenBabel10062211573D

 24 25  0  0  0  0  0  0  0  0999 V2000
    1.8010   -2.6962   -0.0331 N   0  0  0  0  0  0  0  0  0  0  0  0
    0.4484   -2.5882   -0.2680 N   0  0  0  0  0  0  0  0  0  0  0  0
   -0.3075   -1.9433    0.5506 C   0  0  0  0  0  0  0  0  0  0  0  0
   -1.6698   -1.5606    0.1615 C   0  0  0  0  0  0  0  0  0  0  0  0
   -2.1269   -1.8418   -1.0911 N   0  0  0  0  0  0  0  0  0  0  0  0
   -3.3444   -1.4118   -1.5180 C   0  0  0  0  0  0  0  0  0  0  0  0
   -4.1606   -0.6634   -0.6665 C   0  0  0  0  0  0  0  0  0  0  0  0
   -3.7176   -0.3706    0.6240 C   0  0  0  0  0  0  0  0  0  0  0  0
   -2.4644   -0.8165    1.0430 C   0  0  0  0  0  0  0  0  0  0  0  0
    2.6315   -1.5344   -0.0468 C   0  0  0  0  0  0  0  0  0  0  0  0
    2.1054   -0.2577   -0.3388 C   0  0  0  0  0  0  0  0  0  0  0  0
    2.9273    0.8201   -0.3669 N   0  0  0  0  0  0  0  0  0  0  0  0
    4.2540    0.6931   -0.1207 C   0  0  0  0  0  0  0  0  0  0  0  0
    4.7851   -0.5668    0.1616 C   0  0  0  0  0  0  0  0  0  0  0  0
    3.9667   -1.6536    0.1901 N   0  0  0  0  0  0  0  0  0  0  0  0
    2.2386   -3.6290   -0.0093 H   0  0  0  0  0  0  0  0  0  0  0  0
    0.1034   -1.5601    1.4828 H   0  0  0  0  0  0  0  0  0  0  0  0
   -3.6725   -1.6389   -2.5232 H   0  0  0  0  0  0  0  0  0  0  0  0
   -5.1248   -0.3093   -1.0059 H   0  0  0  0  0  0  0  0  0  0  0  0
   -4.3365    0.2127    1.2929 H   0  0  0  0  0  0  0  0  0  0  0  0
   -2.1080   -0.5704    2.0362 H   0  0  0  0  0  0  0  0  0  0  0  0
    1.0588   -0.1134   -0.5606 H   0  0  0  0  0  0  0  0  0  0  0  0
    4.8911    1.5661   -0.1495 H   0  0  0  0  0  0  0  0  0  0  0  0
    5.8428   -0.6782    0.3545 H   0  0  0  0  0  0  0  0  0  0  0  0
  1 16  1  0  0  0  0
  2  1  1  0  0  0  0
  3  2  2  0  0  0  0
  3 17  1  0  0  0  0
  4  3  1  0  0  0  0
  5  4  2  0  0  0  0
  6  5  1  0  0  0  0
  6 18  1  0  0  0  0
  7  6  2  0  0  0  0
  7 19  1  0  0  0  0
  8  7  1  0  0  0  0
  8 20  1  0  0  0  0
  9  8  2  0  0  0  0
  9  4  1  0  0  0  0
  9 21  1  0  0  0  0
 10  1  1  0  0  0  0
 11 10  2  0  0  0  0
 11 22  1  0  0  0  0
 12 11  1  0  0  0  0
 13 12  2  0  0  0  0
 13 23  1  0  0  0  0
 14 13  1  0  0  0  0
 14 24  1  0  0  0  0
 15 14  2  0  0  0  0
 15 10  1  0  0  0  0
M  END
>  <MOL Chiral Flag>
0

>  <energy>
122.17671641364689

$$$$
> 266_AKC_acsmedchemlett.8b00053
>258.sdf
 OpenBabel10062211583D

 87 92  0  0  0  0  0  0  0  0999 V2000
    7.9581   -3.1145    9.6752 Cl  0  0  0  0  0  0  0  0  0  0  0  0
    7.0995   -2.2723    8.3975 C   0  0  0  0  0  0  0  0  0  0  0  0
    7.2016   -2.7132    7.0833 C   0  0  0  0  0  0  0  0  0  0  0  0
    6.5230   -2.0528    6.0575 C   0  0  0  0  0  0  0  0  0  0  0  0
    5.7076   -0.9219    6.3254 C   0  0  0  0  0  0  0  0  0  0  0  0
    4.9737   -0.1942    5.3205 C   0  0  0  0  0  0  0  0  0  0  0  0
    4.8870   -0.5535    3.9238 N   0  0  0  0  0  0  0  0  0  0  0  0
    4.8750   -1.9338    3.4746 C   0  0  0  0  0  0  0  0  0  0  0  0
    3.9699   -2.1775    2.2459 C   0  0  0  0  0  0  0  0  0  0  0  0
    3.9073   -3.7003    2.0250 C   0  0  0  0  0  0  0  0  0  0  0  0
    3.1602   -4.2105    0.8487 N   0  3  1  0  0  0  0  0  0  0  0  0
    1.7496   -3.7591    0.7140 C   0  0  0  0  0  0  0  0  0  0  0  0
    1.5720   -2.5561   -0.2428 C   0  0  0  0  0  0  0  0  0  0  0  0
    2.1925   -2.8721   -1.5498 N   0  3  1  0  0  0  0  0  0  0  0  0
    1.8930   -1.8947   -2.6399 C   0  0  0  0  0  0  0  0  0  0  0  0
    0.7420   -2.3655   -3.5796 C   0  0  0  0  0  0  0  0  0  0  0  0
   -0.6841   -2.1802   -3.0414 C   0  0  0  0  0  0  0  0  0  0  0  0
   -1.1255   -0.7793   -3.1807 N   0  3  0  0  0  0  0  0  0  0  0  0
   -2.3550   -0.5086   -2.4125 C   0  0  0  0  0  0  0  0  0  0  0  0
   -2.0051    0.0716   -1.0274 C   0  0  0  0  0  0  0  0  0  0  0  0
   -3.1979    0.3070   -0.0618 C   0  0  2  0  0  0  0  0  0  0  0  0
   -4.3409    1.1331   -0.7223 C   0  0  0  0  0  0  0  0  0  0  0  0
   -5.4785    1.3701    0.2970 C   0  0  1  0  0  0  0  0  0  0  0  0
   -6.0370    0.0117    0.7786 C   0  0  0  0  0  0  0  0  0  0  0  0
   -4.9104   -0.8004    1.4524 C   0  0  2  0  0  0  0  0  0  0  0  0
   -4.3587   -0.0119    2.6609 C   0  0  0  0  0  0  0  0  0  0  0  0
   -3.8038    1.3449    2.1806 C   0  0  2  0  0  0  0  0  0  0  0  0
   -4.9299    2.1573    1.5051 C   0  0  0  0  0  0  0  0  0  0  0  0
   -2.6668    1.0978    1.1692 C   0  0  0  0  0  0  0  0  0  0  0  0
   -3.7777   -1.0494    0.4324 C   0  0  0  0  0  0  0  0  0  0  0  0
    3.6481   -2.9876   -1.3110 C   0  0  0  0  0  0  0  0  0  0  0  0
    3.9243   -4.2101   -0.4249 C   0  0  0  0  0  0  0  0  0  0  0  0
    4.2673    0.9522    5.7245 C   0  0  0  0  0  0  0  0  0  0  0  0
    4.2450    1.3461    7.0575 C   0  0  0  0  0  0  0  0  0  0  0  0
    4.9099    0.6382    7.9981 N   0  3  0  0  0  0  0  0  0  0  0  0
    5.6394   -0.4699    7.6780 C   0  0  0  0  0  0  0  0  0  0  0  0
    6.3265   -1.1529    8.6946 C   0  0  0  0  0  0  0  0  0  0  0  0
    7.8162   -3.5745    6.8501 H   0  0  0  0  0  0  0  0  0  0  0  0
    6.6742   -2.4399    5.0783 H   0  0  0  0  0  0  0  0  0  0  0  0
    4.4025    0.1197    3.3103 H   0  0  0  0  0  0  0  0  0  0  0  0
    4.4991   -2.5703    4.3069 H   0  0  0  0  0  0  0  0  0  0  0  0
    5.8986   -2.2316    3.1658 H   0  0  0  0  0  0  0  0  0  0  0  0
    2.9461   -1.7954    2.4456 H   0  0  0  0  0  0  0  0  0  0  0  0
    4.3987   -1.6500    1.3702 H   0  0  0  0  0  0  0  0  0  0  0  0
    3.4404   -4.1290    2.9436 H   0  0  0  0  0  0  0  0  0  0  0  0
    4.9440   -4.1076    1.9947 H   0  0  0  0  0  0  0  0  0  0  0  0
    3.0910   -5.2301    1.0899 H   0  0  0  0  0  0  0  0  0  0  0  0
    1.1575   -4.5913    0.2675 H   0  0  0  0  0  0  0  0  0  0  0  0
    1.2961   -3.5508    1.7081 H   0  0  0  0  0  0  0  0  0  0  0  0
    2.0203   -1.6353    0.1911 H   0  0  0  0  0  0  0  0  0  0  0  0
    0.4903   -2.3625   -0.3353 H   0  0  0  0  0  0  0  0  0  0  0  0
    1.8594   -3.8120   -1.8726 H   0  0  0  0  0  0  0  0  0  0  0  0
    1.7668   -0.8568   -2.2635 H   0  0  0  0  0  0  0  0  0  0  0  0
    2.7629   -1.8591   -3.3334 H   0  0  0  0  0  0  0  0  0  0  0  0
    0.9113   -3.4376   -3.8212 H   0  0  0  0  0  0  0  0  0  0  0  0
    0.7966   -1.8222   -4.5487 H   0  0  0  0  0  0  0  0  0  0  0  0
   -0.7746   -2.5623   -2.0103 H   0  0  0  0  0  0  0  0  0  0  0  0
   -1.3693   -2.8071   -3.6574 H   0  0  0  0  0  0  0  0  0  0  0  0
   -1.3269   -0.6231   -4.1973 H   0  0  0  0  0  0  0  0  0  0  0  0
   -0.3715   -0.1047   -2.9136 H   0  0  0  0  0  0  0  0  0  0  0  0
   -2.9532    0.2578   -2.9527 H   0  0  0  0  0  0  0  0  0  0  0  0
   -2.9829   -1.4236   -2.3441 H   0  0  0  0  0  0  0  0  0  0  0  0
   -1.4966    1.0441   -1.2149 H   0  0  0  0  0  0  0  0  0  0  0  0
   -1.2738   -0.5949   -0.5210 H   0  0  0  0  0  0  0  0  0  0  0  0
   -3.9519    2.1104   -1.0841 H   0  0  0  0  0  0  0  0  0  0  0  0
   -4.7634    0.5896   -1.5951 H   0  0  0  0  0  0  0  0  0  0  0  0
   -6.2926    1.9533   -0.1860 H   0  0  0  0  0  0  0  0  0  0  0  0
   -6.4500   -0.5576   -0.0830 H   0  0  0  0  0  0  0  0  0  0  0  0
   -6.8659    0.1774    1.5014 H   0  0  0  0  0  0  0  0  0  0  0  0
   -5.3122   -1.7761    1.8021 H   0  0  0  0  0  0  0  0  0  0  0  0
   -5.1660    0.1537    3.4072 H   0  0  0  0  0  0  0  0  0  0  0  0
   -3.5526   -0.5944    3.1594 H   0  0  0  0  0  0  0  0  0  0  0  0
   -3.4079    1.9141    3.0496 H   0  0  0  0  0  0  0  0  0  0  0  0
   -5.7472    2.3500    2.2343 H   0  0  0  0  0  0  0  0  0  0  0  0
   -4.5397    3.1429    1.1680 H   0  0  0  0  0  0  0  0  0  0  0  0
   -2.2499    2.0776    0.8436 H   0  0  0  0  0  0  0  0  0  0  0  0
   -1.8462    0.5337    1.6660 H   0  0  0  0  0  0  0  0  0  0  0  0
   -4.1798   -1.6412   -0.4170 H   0  0  0  0  0  0  0  0  0  0  0  0
   -2.9771   -1.6535    0.9148 H   0  0  0  0  0  0  0  0  0  0  0  0
    4.1963   -3.1574   -2.2649 H   0  0  0  0  0  0  0  0  0  0  0  0
    4.0527   -2.0559   -0.8591 H   0  0  0  0  0  0  0  0  0  0  0  0
    3.6115   -5.0981   -1.0223 H   0  0  0  0  0  0  0  0  0  0  0  0
    5.0170   -4.3260   -0.2524 H   0  0  0  0  0  0  0  0  0  0  0  0
    3.7094    1.5323    5.0013 H   0  0  0  0  0  0  0  0  0  0  0  0
    3.6812    2.2254    7.3458 H   0  0  0  0  0  0  0  0  0  0  0  0
    4.8654    0.9633    8.9911 H   0  0  0  0  0  0  0  0  0  0  0  0
    6.2653   -0.8100    9.7204 H   0  0  0  0  0  0  0  0  0  0  0  0
  2  1  1  0  0  0  0
  3  2  2  0  0  0  0
  3 38  1  0  0  0  0
  4  3  1  0  0  0  0
  4 39  1  0  0  0  0
  5  4  2  0  0  0  0
  6  5  1  0  0  0  0
  7  6  1  0  0  0  0
  7 40  1  0  0  0  0
  8  7  1  0  0  0  0
  8 41  1  0  0  0  0
  8 42  1  0  0  0  0
  9  8  1  0  0  0  0
  9 43  1  0  0  0  0
  9 44  1  0  0  0  0
 10  9  1  0  0  0  0
 10 45  1  0  0  0  0
 10 46  1  0  0  0  0
 11 10  1  0  0  0  0
 11 47  1  1  0  0  0
 12 11  1  0  0  0  0
 12 48  1  0  0  0  0
 12 49  1  0  0  0  0
 13 12  1  0  0  0  0
 13 50  1  0  0  0  0
 13 51  1  0  0  0  0
 14 13  1  0  0  0  0
 14 52  1  6  0  0  0
 15 14  1  0  0  0  0
 15 53  1  0  0  0  0
 15 54  1  0  0  0  0
 16 15  1  0  0  0  0
 16 55  1  0  0  0  0
 16 56  1  0  0  0  0
 17 16  1  0  0  0  0
 17 57  1  0  0  0  0
 17 58  1  0  0  0  0
 18 17  1  0  0  0  0
 18 59  1  0  0  0  0
 18 60  1  0  0  0  0
 19 18  1  0  0  0  0
 19 61  1  0  0  0  0
 19 62  1  0  0  0  0
 20 19  1  0  0  0  0
 20 63  1  0  0  0  0
 20 64  1  0  0  0  0
 21 20  1  6  0  0  0
 22 21  1  0  0  0  0
 22 65  1  0  0  0  0
 22 66  1  0  0  0  0
 23 22  1  0  0  0  0
 23 67  1  6  0  0  0
 24 23  1  0  0  0  0
 24 68  1  0  0  0  0
 24 69  1  0  0  0  0
 25 24  1  0  0  0  0
 25 70  1  1  0  0  0
 26 25  1  0  0  0  0
 26 71  1  0  0  0  0
 26 72  1  0  0  0  0
 27 26  1  0  0  0  0
 27 73  1  1  0  0  0
 28 27  1  0  0  0  0
 28 23  1  0  0  0  0
 28 74  1  0  0  0  0
 28 75  1  0  0  0  0
 29 27  1  0  0  0  0
 29 21  1  0  0  0  0
 29 76  1  0  0  0  0
 29 77  1  0  0  0  0
 30 25  1  0  0  0  0
 30 21  1  0  0  0  0
 30 78  1  0  0  0  0
 30 79  1  0  0  0  0
 31 14  1  0  0  0  0
 31 80  1  0  0  0  0
 31 81  1  0  0  0  0
 32 31  1  0  0  0  0
 32 11  1  0  0  0  0
 32 82  1  0  0  0  0
 32 83  1  0  0  0  0
 33  6  2  0  0  0  0
 33 84  1  0  0  0  0
 34 33  1  0  0  0  0
 34 85  1  0  0  0  0
 35 34  2  0  0  0  0
 35 86  1  0  0  0  0
 36 35  1  0  0  0  0
 36  5  1  0  0  0  0
 37 36  2  0  0  0  0
 37  2  1  0  0  0  0
 37 87  1  0  0  0  0
M  CHG  4  11   1  14   1  18   1  35   1
M  END
>  <MOL Chiral Flag>
0

>  <energy>
507.93002413765726

$$$$
> 267_AKC_acsmedchemlett.8b00053
>259.sdf
 OpenBabel10062211583D

 57 61  0  0  0  0  0  0  0  0999 V2000
    2.8368   -2.2588   -3.0996 F   0  0  0  0  0  0  0  0  0  0  0  0
    3.3823   -1.7777   -1.9552 C   0  0  0  0  0  0  0  0  0  0  0  0
    4.5773   -2.3368   -1.4657 C   0  0  0  0  0  0  0  0  0  0  0  0
    5.1383   -1.8647   -0.2739 C   0  0  0  0  0  0  0  0  0  0  0  0
    4.4901   -0.8324    0.3943 C   0  0  0  0  0  0  0  0  0  0  0  0
    4.8986   -0.1179    1.8200 S   0  0  0  0  0  0  0  0  0  0  0  0
    3.6413    0.9589    1.9495 C   0  0  0  0  0  0  0  0  0  0  0  0
    2.8233    0.8056    0.8068 C   0  0  0  0  0  0  0  0  0  0  0  0
    3.3127   -0.2389   -0.0719 C   0  0  0  0  0  0  0  0  0  0  0  0
    2.7417   -0.7329   -1.2616 C   0  0  0  0  0  0  0  0  0  0  0  0
    1.6030    1.6576    0.6116 C   0  0  0  0  0  0  0  0  0  0  0  0
    0.9026    2.1486    1.7351 C   0  0  0  0  0  0  0  0  0  0  0  0
   -0.2525    2.9248    1.5807 C   0  0  0  0  0  0  0  0  0  0  0  0
   -0.7273    3.2416    0.3016 C   0  0  0  0  0  0  0  0  0  0  0  0
   -1.9943    4.0593    0.1207 C   0  0  0  0  0  0  0  0  0  0  0  0
   -3.0178    3.2667   -0.5873 N   0  3  0  0  0  0  0  0  0  0  0  0
   -4.1619    4.0618   -1.0649 C   0  0  0  0  0  0  0  0  0  0  0  0
   -5.2244    4.3954    0.0114 C   0  0  0  0  0  0  0  0  0  0  0  0
   -6.3745    5.1523   -0.6916 C   0  0  0  0  0  0  0  0  0  0  0  0
   -7.6649    5.3945   -0.0425 N   0  0  0  0  0  0  0  0  0  0  0  0
   -8.1484    5.0667    1.2780 C   0  0  0  0  0  0  0  0  0  0  0  0
   -7.2778    4.8749    2.3675 C   0  0  0  0  0  0  0  0  0  0  0  0
   -7.7823    4.6095    3.6408 C   0  0  0  0  0  0  0  0  0  0  0  0
   -9.1181    4.5316    3.8507 N   0  0  0  0  0  0  0  0  0  0  0  0
  -10.0104    4.7018    2.8462 C   0  0  0  0  0  0  0  0  0  0  0  0
  -11.3811    4.6036    3.1255 C   0  0  0  0  0  0  0  0  0  0  0  0
  -12.3222    4.7621    2.1092 C   0  0  0  0  0  0  0  0  0  0  0  0
  -14.0356    4.6321    2.4660 Cl  0  0  0  0  0  0  0  0  0  0  0  0
  -11.9019    5.0167    0.8058 C   0  0  0  0  0  0  0  0  0  0  0  0
  -10.5407    5.1227    0.5082 C   0  0  0  0  0  0  0  0  0  0  0  0
   -9.5616    4.9743    1.5253 C   0  0  0  0  0  0  0  0  0  0  0  0
   -0.0098    2.7932   -0.8205 C   0  0  0  0  0  0  0  0  0  0  0  0
    1.1383    2.0110   -0.6689 C   0  0  0  0  0  0  0  0  0  0  0  0
    5.0575   -3.1439   -2.0043 H   0  0  0  0  0  0  0  0  0  0  0  0
    6.0475   -2.3000    0.1206 H   0  0  0  0  0  0  0  0  0  0  0  0
    3.5079    1.6657    2.7564 H   0  0  0  0  0  0  0  0  0  0  0  0
    1.8138   -0.3594   -1.6542 H   0  0  0  0  0  0  0  0  0  0  0  0
    1.2303    1.9088    2.7372 H   0  0  0  0  0  0  0  0  0  0  0  0
   -0.7812    3.2687    2.4605 H   0  0  0  0  0  0  0  0  0  0  0  0
   -1.7268    4.9682   -0.4636 H   0  0  0  0  0  0  0  0  0  0  0  0
   -2.3986    4.3899    1.1026 H   0  0  0  0  0  0  0  0  0  0  0  0
   -3.3426    2.4674    0.0054 H   0  0  0  0  0  0  0  0  0  0  0  0
   -2.5813    2.8659   -1.4493 H   0  0  0  0  0  0  0  0  0  0  0  0
   -4.6764    3.4563   -1.8460 H   0  0  0  0  0  0  0  0  0  0  0  0
   -3.8027    4.9909   -1.5631 H   0  0  0  0  0  0  0  0  0  0  0  0
   -4.7508    5.0271    0.7889 H   0  0  0  0  0  0  0  0  0  0  0  0
   -5.6028    3.4433    0.4426 H   0  0  0  0  0  0  0  0  0  0  0  0
   -6.6346    4.5500   -1.5903 H   0  0  0  0  0  0  0  0  0  0  0  0
   -5.9758    6.1247   -1.0531 H   0  0  0  0  0  0  0  0  0  0  0  0
   -8.3354    5.8329   -0.6807 H   0  0  0  0  0  0  0  0  0  0  0  0
   -6.2185    4.9577    2.2744 H   0  0  0  0  0  0  0  0  0  0  0  0
   -7.1048    4.4784    4.4735 H   0  0  0  0  0  0  0  0  0  0  0  0
  -11.7144    4.4000    4.1362 H   0  0  0  0  0  0  0  0  0  0  0  0
  -12.6329    5.1309    0.0147 H   0  0  0  0  0  0  0  0  0  0  0  0
  -10.2911    5.3068   -0.5217 H   0  0  0  0  0  0  0  0  0  0  0  0
   -0.3387    3.0506   -1.8196 H   0  0  0  0  0  0  0  0  0  0  0  0
    1.6688    1.7174   -1.5586 H   0  0  0  0  0  0  0  0  0  0  0  0
  2  1  1  0  0  0  0
  3  2  2  0  0  0  0
  3 34  1  0  0  0  0
  4  3  1  0  0  0  0
  4 35  1  0  0  0  0
  5  4  2  0  0  0  0
  6  5  1  0  0  0  0
  7  6  1  0  0  0  0
  7 36  1  0  0  0  0
  8  7  2  0  0  0  0
  9  8  1  0  0  0  0
  9  5  1  0  0  0  0
 10  9  2  0  0  0  0
 10  2  1  0  0  0  0
 10 37  1  0  0  0  0
 11  8  1  0  0  0  0
 12 11  2  0  0  0  0
 12 38  1  0  0  0  0
 13 12  1  0  0  0  0
 13 39  1  0  0  0  0
 14 13  2  0  0  0  0
 15 14  1  0  0  0  0
 15 40  1  0  0  0  0
 15 41  1  0  0  0  0
 16 15  1  0  0  0  0
 16 42  1  0  0  0  0
 16 43  1  0  0  0  0
 17 16  1  0  0  0  0
 17 44  1  0  0  0  0
 17 45  1  0  0  0  0
 18 17  1  0  0  0  0
 18 46  1  0  0  0  0
 18 47  1  0  0  0  0
 19 18  1  0  0  0  0
 19 48  1  0  0  0  0
 19 49  1  0  0  0  0
 20 19  1  0  0  0  0
 20 50  1  0  0  0  0
 21 20  1  0  0  0  0
 22 21  2  0  0  0  0
 22 51  1  0  0  0  0
 23 22  1  0  0  0  0
 23 52  1  0  0  0  0
 24 23  2  0  0  0  0
 25 24  1  0  0  0  0
 26 25  2  0  0  0  0
 26 53  1  0  0  0  0
 27 26  1  0  0  0  0
 28 27  1  0  0  0  0
 29 27  2  0  0  0  0
 29 54  1  0  0  0  0
 30 29  1  0  0  0  0
 30 55  1  0  0  0  0
 31 30  2  0  0  0  0
 31 21  1  0  0  0  0
 31 25  1  0  0  0  0
 32 14  1  0  0  0  0
 32 56  1  0  0  0  0
 33 32  2  0  0  0  0
 33 11  1  0  0  0  0
 33 57  1  0  0  0  0
M  CHG  1  16   1
M  END
>  <MOL Chiral Flag>
0

>  <energy>
71.536276781493655

$$$$
> 268_AKC_j.fitote.2018.05.027
>260.sdf
 OpenBabel10062211593D

 49 51  0  0  0  0  0  0  0  0999 V2000
    5.4781    0.2723   -0.9992 C   0  0  0  0  0  0  0  0  0  0  0  0
    4.8073    0.7781    0.2895 C   0  0  0  0  0  0  0  0  0  0  0  0
    5.0260    2.2959    0.4015 C   0  0  0  0  0  0  0  0  0  0  0  0
    3.3164    0.4556    0.4013 C   0  0  0  0  0  0  0  0  0  0  0  0
    2.6538    0.7337    1.6052 C   0  0  0  0  0  0  0  0  0  0  0  0
    1.2914    0.4772    1.7504 C   0  0  0  0  0  0  0  0  0  0  0  0
    0.5335   -0.0552    0.6855 C   0  0  0  0  0  0  0  0  0  0  0  0
    1.2081   -0.3804   -0.5239 C   0  0  0  0  0  0  0  0  0  0  0  0
    0.4977   -0.9844   -1.7149 C   0  0  0  0  0  0  0  0  0  0  0  0
   -0.9559   -1.3895   -1.4613 C   0  0  0  0  0  0  0  0  0  0  0  0
   -1.6421   -0.3223   -0.6018 C   0  0  1  0  0  0  0  0  0  0  0  0
   -3.2179   -0.3516   -0.6825 C   0  0  1  0  0  0  0  0  0  0  0  0
   -3.8577   -1.7034   -0.2624 C   0  0  0  0  0  0  0  0  0  0  0  0
   -3.7679    0.8025    0.1982 C   0  0  0  0  0  0  0  0  0  0  0  0
   -3.2082    0.7797    1.6262 C   0  0  0  0  0  0  0  0  0  0  0  0
   -1.6711    0.8950    1.6006 C   0  0  0  0  0  0  0  0  0  0  0  0
   -0.9859   -0.2867    0.8432 C   0  0  2  0  0  0  0  0  0  0  0  0
   -1.1004   -1.5762    1.7059 C   0  0  0  0  0  0  0  0  0  0  0  0
   -3.6348   -0.0529   -2.1310 C   0  0  0  0  0  0  0  0  0  0  0  0
   -3.2401    1.0946   -2.7206 O   0  0  0  0  0  0  0  0  0  0  0  0
   -4.3181   -0.8397   -2.7696 O   0  0  0  0  0  0  0  0  0  0  0  0
    2.5805   -0.1151   -0.6545 C   0  0  0  0  0  0  0  0  0  0  0  0
    5.0411    0.7571   -1.8984 H   0  0  0  0  0  0  0  0  0  0  0  0
    5.3691   -0.8304   -1.0798 H   0  0  0  0  0  0  0  0  0  0  0  0
    6.5649    0.5026   -0.9787 H   0  0  0  0  0  0  0  0  0  0  0  0
    5.3263    0.2743    1.1346 H   0  0  0  0  0  0  0  0  0  0  0  0
    4.5188    2.8207   -0.4376 H   0  0  0  0  0  0  0  0  0  0  0  0
    4.6261    2.6925    1.3574 H   0  0  0  0  0  0  0  0  0  0  0  0
    6.1102    2.5351    0.3661 H   0  0  0  0  0  0  0  0  0  0  0  0
    3.1973    1.1568    2.4407 H   0  0  0  0  0  0  0  0  0  0  0  0
    0.8323    0.7158    2.6974 H   0  0  0  0  0  0  0  0  0  0  0  0
    1.0361   -1.8815   -2.0916 H   0  0  0  0  0  0  0  0  0  0  0  0
    0.5248   -0.2082   -2.5108 H   0  0  0  0  0  0  0  0  0  0  0  0
   -1.0173   -2.3698   -0.9492 H   0  0  0  0  0  0  0  0  0  0  0  0
   -1.4341   -1.5166   -2.4557 H   0  0  0  0  0  0  0  0  0  0  0  0
   -1.3814    0.6620   -1.0616 H   0  0  0  0  0  0  0  0  0  0  0  0
   -4.9589   -1.6580   -0.4097 H   0  0  0  0  0  0  0  0  0  0  0  0
   -3.7355   -1.9670    0.7904 H   0  0  0  0  0  0  0  0  0  0  0  0
   -3.4677   -2.5369   -0.8837 H   0  0  0  0  0  0  0  0  0  0  0  0
   -3.4658    1.7814   -0.2389 H   0  0  0  0  0  0  0  0  0  0  0  0
   -4.8797    0.7823    0.2182 H   0  0  0  0  0  0  0  0  0  0  0  0
   -3.6213    1.6496    2.1813 H   0  0  0  0  0  0  0  0  0  0  0  0
   -3.5351   -0.1309    2.1651 H   0  0  0  0  0  0  0  0  0  0  0  0
   -1.3232    0.9561    2.6522 H   0  0  0  0  0  0  0  0  0  0  0  0
   -1.4060    1.8545    1.1029 H   0  0  0  0  0  0  0  0  0  0  0  0
   -0.6271   -2.4482    1.2115 H   0  0  0  0  0  0  0  0  0  0  0  0
   -0.5655   -1.4336    2.6696 H   0  0  0  0  0  0  0  0  0  0  0  0
   -2.1146   -1.8541    2.0049 H   0  0  0  0  0  0  0  0  0  0  0  0
    3.0586   -0.3552   -1.5932 H   0  0  0  0  0  0  0  0  0  0  0  0
  1 23  1  0  0  0  0
  1 24  1  0  0  0  0
  1 25  1  0  0  0  0
  2  1  1  0  0  0  0
  2 26  1  0  0  0  0
  3  2  1  0  0  0  0
  3 27  1  0  0  0  0
  3 28  1  0  0  0  0
  3 29  1  0  0  0  0
  4  2  1  0  0  0  0
  5  4  2  0  0  0  0
  5 30  1  0  0  0  0
  6  5  1  0  0  0  0
  6 31  1  0  0  0  0
  7  6  2  0  0  0  0
  8  7  1  0  0  0  0
  9  8  1  0  0  0  0
  9 32  1  0  0  0  0
  9 33  1  0  0  0  0
 10  9  1  0  0  0  0
 10 34  1  0  0  0  0
 10 35  1  0  0  0  0
 11 10  1  0  0  0  0
 11 36  1  6  0  0  0
 12 11  1  0  0  0  0
 12 13  1  1  0  0  0
 13 37  1  0  0  0  0
 13 38  1  0  0  0  0
 13 39  1  0  0  0  0
 14 12  1  0  0  0  0
 14 40  1  0  0  0  0
 14 41  1  0  0  0  0
 15 14  1  0  0  0  0
 15 42  1  0  0  0  0
 15 43  1  0  0  0  0
 16 15  1  0  0  0  0
 16 44  1  0  0  0  0
 16 45  1  0  0  0  0
 17 16  1  0  0  0  0
 17  7  1  0  0  0  0
 17 11  1  0  0  0  0
 17 18  1  1  0  0  0
 18 46  1  0  0  0  0
 18 47  1  0  0  0  0
 18 48  1  0  0  0  0
 19 12  1  0  0  0  0
 20 19  1  0  0  0  0
 21 19  2  0  0  0  0
 22  8  2  0  0  0  0
 22  4  1  0  0  0  0
 22 49  1  0  0  0  0
M  END
>  <MOL Chiral Flag>
0

>  <energy>
48.181313217118515

$$$$
> 269_AKC_j.actatropica.2018.03.023
>261.sdf
 OpenBabel10062211593D

 34 36  0  0  0  0  0  0  0  0999 V2000
    3.2942    1.2516    2.2966 C   0  0  0  0  0  0  0  0  0  0  0  0
    2.2846    1.4815    1.3909 O   0  0  0  0  0  0  0  0  0  0  0  0
    2.1976    0.7945    0.2313 C   0  0  0  0  0  0  0  0  0  0  0  0
    1.0721    0.0031    0.0007 C   0  0  0  0  0  0  0  0  0  0  0  0
    0.0881   -0.0564    0.9243 O   0  0  0  0  0  0  0  0  0  0  0  0
   -1.1526    0.3895    0.6265 C   0  0  0  0  0  0  0  0  0  0  0  0
   -1.3369    1.7183    0.2209 C   0  0  0  0  0  0  0  0  0  0  0  0
   -2.6129    2.1710   -0.1095 C   0  0  0  0  0  0  0  0  0  0  0  0
   -3.6734    1.3212   -0.0547 N   0  0  0  0  0  0  0  0  0  0  0  0
   -3.5302    0.0254    0.3295 C   0  0  0  0  0  0  0  0  0  0  0  0
   -4.6409   -0.8249    0.3485 C   0  0  0  0  0  0  0  0  0  0  0  0
   -4.4954   -2.1618    0.7318 C   0  0  0  0  0  0  0  0  0  0  0  0
   -5.8889   -3.2262    0.7378 Cl  0  0  0  0  0  0  0  0  0  0  0  0
   -3.2391   -2.6538    1.1047 C   0  0  0  0  0  0  0  0  0  0  0  0
   -2.1217   -1.8143    1.0869 C   0  0  0  0  0  0  0  0  0  0  0  0
   -2.2578   -0.4728    0.6955 C   0  0  0  0  0  0  0  0  0  0  0  0
    0.9638   -0.7367   -1.1835 C   0  0  0  0  0  0  0  0  0  0  0  0
    1.9695   -0.6735   -2.1471 C   0  0  0  0  0  0  0  0  0  0  0  0
    3.0926    0.1458   -1.9429 C   0  0  0  0  0  0  0  0  0  0  0  0
    4.1487    0.2477   -2.9724 C   0  0  0  0  0  0  0  0  0  0  0  0
    4.0783   -0.3965   -4.0078 O   0  0  0  0  0  0  0  0  0  0  0  0
    3.2060    0.8766   -0.7466 C   0  0  0  0  0  0  0  0  0  0  0  0
    4.2915    1.4129    1.8394 H   0  0  0  0  0  0  0  0  0  0  0  0
    3.1685    1.9332    3.1619 H   0  0  0  0  0  0  0  0  0  0  0  0
    3.2158    0.2041    2.6624 H   0  0  0  0  0  0  0  0  0  0  0  0
   -0.4936    2.3971    0.1676 H   0  0  0  0  0  0  0  0  0  0  0  0
   -2.7586    3.1971   -0.4176 H   0  0  0  0  0  0  0  0  0  0  0  0
   -5.6134   -0.4477    0.0568 H   0  0  0  0  0  0  0  0  0  0  0  0
   -3.1270   -3.6886    1.4011 H   0  0  0  0  0  0  0  0  0  0  0  0
   -1.1557   -2.2159    1.3699 H   0  0  0  0  0  0  0  0  0  0  0  0
    0.0994   -1.3674   -1.3499 H   0  0  0  0  0  0  0  0  0  0  0  0
    1.8661   -1.2565   -3.0536 H   0  0  0  0  0  0  0  0  0  0  0  0
    4.9949    0.9087   -2.8177 H   0  0  0  0  0  0  0  0  0  0  0  0
    4.0663    1.5138   -0.5819 H   0  0  0  0  0  0  0  0  0  0  0  0
  1 23  1  0  0  0  0
  1 24  1  0  0  0  0
  1 25  1  0  0  0  0
  2  1  1  0  0  0  0
  3  2  1  0  0  0  0
  4  3  2  0  0  0  0
  5  4  1  0  0  0  0
  6  5  1  0  0  0  0
  7  6  2  0  0  0  0
  7 26  1  0  0  0  0
  8  7  1  0  0  0  0
  8 27  1  0  0  0  0
  9  8  2  0  0  0  0
 10  9  1  0  0  0  0
 11 10  2  0  0  0  0
 11 28  1  0  0  0  0
 12 11  1  0  0  0  0
 13 12  1  0  0  0  0
 14 12  2  0  0  0  0
 14 29  1  0  0  0  0
 15 14  1  0  0  0  0
 15 30  1  0  0  0  0
 16 15  2  0  0  0  0
 16  6  1  0  0  0  0
 16 10  1  0  0  0  0
 17  4  1  0  0  0  0
 17 31  1  0  0  0  0
 18 17  2  0  0  0  0
 18 32  1  0  0  0  0
 19 18  1  0  0  0  0
 20 19  1  0  0  0  0
 20 33  1  0  0  0  0
 21 20  2  0  0  0  0
 22 19  2  0  0  0  0
 22  3  1  0  0  0  0
 22 34  1  0  0  0  0
M  END
>  <MOL Chiral Flag>
0

>  <energy>
71.451003887620729

$$$$
> 270_AKC_j.actatropica.2018.03.023
>262.sdf
 OpenBabel10062211593D

 41 43  0  0  0  0  0  0  0  0999 V2000
    2.4031   -0.5061    2.9496 C   0  0  0  0  0  0  0  0  0  0  0  0
    1.2200   -0.5597    2.2542 O   0  0  0  0  0  0  0  0  0  0  0  0
    0.9931   -0.3127    0.9340 C   0  0  0  0  0  0  0  0  0  0  0  0
   -0.2882   -0.6496    0.4602 C   0  0  0  0  0  0  0  0  0  0  0  0
   -1.2138   -1.1600    1.3289 O   0  0  0  0  0  0  0  0  0  0  0  0
   -2.5559   -1.3144    1.1093 C   0  0  0  0  0  0  0  0  0  0  0  0
   -3.1300   -2.5510    1.4293 C   0  0  0  0  0  0  0  0  0  0  0  0
   -4.4858   -2.7815    1.1944 C   0  0  0  0  0  0  0  0  0  0  0  0
   -5.2619   -1.8106    0.6519 N   0  0  0  0  0  0  0  0  0  0  0  0
   -4.7640   -0.5851    0.3426 C   0  0  0  0  0  0  0  0  0  0  0  0
   -5.6134    0.3827   -0.2077 C   0  0  0  0  0  0  0  0  0  0  0  0
   -5.1244    1.6528   -0.5187 C   0  0  0  0  0  0  0  0  0  0  0  0
   -6.1910    2.8581   -1.2167 Cl  0  0  0  0  0  0  0  0  0  0  0  0
   -3.7888    1.9677   -0.2646 C   0  0  0  0  0  0  0  0  0  0  0  0
   -2.9300    1.0132    0.2862 C   0  0  0  0  0  0  0  0  0  0  0  0
   -3.3955   -0.2881    0.5784 C   0  0  0  0  0  0  0  0  0  0  0  0
   -0.5873   -0.4836   -0.8876 C   0  0  0  0  0  0  0  0  0  0  0  0
    0.3338    0.0605   -1.7509 C   0  0  0  0  0  0  0  0  0  0  0  0
    1.6220    0.4571   -1.3409 C   0  0  0  0  0  0  0  0  0  0  0  0
    2.4315    1.0323   -2.4889 C   0  0  0  0  0  0  0  0  0  0  0  0
    3.6164    1.5251   -2.6388 N   0  0  0  0  0  0  0  0  0  0  0  0
    4.6499    1.7675   -1.7594 N   0  0  0  0  0  0  0  0  0  0  0  0
    5.8837    2.2674   -2.3181 C   0  0  0  0  0  0  0  0  0  0  0  0
    6.9482    2.6918   -1.4794 N   0  0  0  0  0  0  0  0  0  0  0  0
    6.0514    2.3692   -3.7517 S   0  0  0  0  0  0  0  0  0  0  0  0
    1.9702    0.2524    0.0327 C   0  0  0  0  0  0  0  0  0  0  0  0
    2.1890   -0.8062    4.0010 H   0  0  0  0  0  0  0  0  0  0  0  0
    2.8109    0.5224    2.9559 H   0  0  0  0  0  0  0  0  0  0  0  0
    3.1261   -1.2366    2.5329 H   0  0  0  0  0  0  0  0  0  0  0  0
   -2.5199   -3.3417    1.8469 H   0  0  0  0  0  0  0  0  0  0  0  0
   -4.9218   -3.7421    1.4355 H   0  0  0  0  0  0  0  0  0  0  0  0
   -6.6544    0.1471   -0.3945 H   0  0  0  0  0  0  0  0  0  0  0  0
   -3.4123    2.9562   -0.4950 H   0  0  0  0  0  0  0  0  0  0  0  0
   -1.9106    1.3061    0.4784 H   0  0  0  0  0  0  0  0  0  0  0  0
   -1.5518   -0.7673   -1.2834 H   0  0  0  0  0  0  0  0  0  0  0  0
    0.0217    0.1779   -2.7810 H   0  0  0  0  0  0  0  0  0  0  0  0
    1.8839    1.0242   -3.4247 H   0  0  0  0  0  0  0  0  0  0  0  0
    4.5293    1.6701   -0.7452 H   0  0  0  0  0  0  0  0  0  0  0  0
    7.8212    3.0627   -1.8947 H   0  0  0  0  0  0  0  0  0  0  0  0
    6.8569    2.6660   -0.4583 H   0  0  0  0  0  0  0  0  0  0  0  0
    2.9501    0.5187    0.4004 H   0  0  0  0  0  0  0  0  0  0  0  0
  1 27  1  0  0  0  0
  1 28  1  0  0  0  0
  1 29  1  0  0  0  0
  2  1  1  0  0  0  0
  3  2  1  0  0  0  0
  4  3  2  0  0  0  0
  5  4  1  0  0  0  0
  6  5  1  0  0  0  0
  7  6  2  0  0  0  0
  7 30  1  0  0  0  0
  8  7  1  0  0  0  0
  8 31  1  0  0  0  0
  9  8  2  0  0  0  0
 10  9  1  0  0  0  0
 11 10  2  0  0  0  0
 11 32  1  0  0  0  0
 12 11  1  0  0  0  0
 13 12  1  0  0  0  0
 14 12  2  0  0  0  0
 14 33  1  0  0  0  0
 15 14  1  0  0  0  0
 15 34  1  0  0  0  0
 16 15  2  0  0  0  0
 16  6  1  0  0  0  0
 16 10  1  0  0  0  0
 17  4  1  0  0  0  0
 17 35  1  0  0  0  0
 18 17  2  0  0  0  0
 18 36  1  0  0  0  0
 19 18  1  0  0  0  0
 20 19  1  0  0  0  0
 20 37  1  0  0  0  0
 21 20  2  0  0  0  0
 22 21  1  0  0  0  0
 22 38  1  0  0  0  0
 23 22  1  0  0  0  0
 24 23  1  0  0  0  0
 24 39  1  0  0  0  0
 24 40  1  0  0  0  0
 25 23  2  0  0  0  0
 26 19  2  0  0  0  0
 26  3  1  0  0  0  0
 26 41  1  0  0  0  0
M  END
>  <MOL Chiral Flag>
0

>  <energy>
60.712669496908951

$$$$
> 271_AKC_j.ejmech.2018.05.014
>263.sdf
 OpenBabel10062212003D

 55 59  0  0  0  0  0  0  0  0999 V2000
   -2.3211    1.7382    3.9266 C   0  0  0  0  0  0  0  0  0  0  0  0
   -2.3623    0.6051    2.9382 C   0  0  0  0  0  0  0  0  0  0  0  0
   -2.9242   -0.5552    3.3607 N   0  0  0  0  0  0  0  0  0  0  0  0
   -3.0464   -1.6456    2.5728 C   0  0  0  0  0  0  0  0  0  0  0  0
   -3.6308   -2.8057    3.0935 C   0  0  0  0  0  0  0  0  0  0  0  0
   -3.7590   -3.9455    2.3003 C   0  0  0  0  0  0  0  0  0  0  0  0
   -3.3045   -3.9331    0.9805 C   0  0  0  0  0  0  0  0  0  0  0  0
   -3.4604   -5.3717   -0.0112 Cl  0  0  0  0  0  0  0  0  0  0  0  0
   -2.7247   -2.7764    0.4480 C   0  0  0  0  0  0  0  0  0  0  0  0
   -2.5892   -1.6119    1.2413 C   0  0  0  0  0  0  0  0  0  0  0  0
   -2.0084   -0.4175    0.7403 C   0  0  0  0  0  0  0  0  0  0  0  0
   -1.5346   -0.3932   -0.6630 C   0  0  0  0  0  0  0  0  0  0  0  0
   -0.2297   -0.8039   -0.9799 C   0  0  0  0  0  0  0  0  0  0  0  0
    0.1908   -0.8268   -2.3140 C   0  0  0  0  0  0  0  0  0  0  0  0
   -0.6854   -0.4400   -3.3325 C   0  0  0  0  0  0  0  0  0  0  0  0
   -1.9854   -0.0323   -3.0202 C   0  0  0  0  0  0  0  0  0  0  0  0
   -2.4121   -0.0120   -1.6895 C   0  0  0  0  0  0  0  0  0  0  0  0
   -1.8784    0.7204    1.5968 C   0  0  0  0  0  0  0  0  0  0  0  0
   -1.2600    2.0092    1.1073 C   0  0  0  0  0  0  0  0  0  0  0  0
   -0.9144    2.8641    1.9103 O   0  0  0  0  0  0  0  0  0  0  0  0
   -1.1244    2.2645   -0.2237 O   0  0  0  0  0  0  0  0  0  0  0  0
   -0.5120    3.4074   -0.7122 C   0  0  0  0  0  0  0  0  0  0  0  0
    0.9716    3.2789   -0.5992 C   0  0  0  0  0  0  0  0  0  0  0  0
    1.7611    2.3782   -1.2675 C   0  0  0  0  0  0  0  0  0  0  0  0
    3.0205    2.6016   -0.8640 N   0  0  0  0  0  0  0  0  0  0  0  0
    4.2152    1.8920   -1.3092 C   0  0  0  0  0  0  0  0  0  0  0  0
    4.0678    0.4127   -1.0613 C   0  0  0  0  0  0  0  0  0  0  0  0
    4.0984   -0.4921   -2.1367 C   0  0  0  0  0  0  0  0  0  0  0  0
    3.9479   -1.8627   -1.9073 C   0  0  0  0  0  0  0  0  0  0  0  0
    3.7651   -2.3390   -0.6068 C   0  0  0  0  0  0  0  0  0  0  0  0
    3.7345   -1.4455    0.4678 C   0  0  0  0  0  0  0  0  0  0  0  0
    3.8860   -0.0731    0.2439 C   0  0  0  0  0  0  0  0  0  0  0  0
    3.0086    3.5960    0.0119 N   0  0  0  0  0  0  0  0  0  0  0  0
    1.7677    4.0327    0.1867 N   0  0  0  0  0  0  0  0  0  0  0  0
   -2.8859    2.6086    3.5292 H   0  0  0  0  0  0  0  0  0  0  0  0
   -2.7977    1.4373    4.8839 H   0  0  0  0  0  0  0  0  0  0  0  0
   -1.2737    2.0231    4.1549 H   0  0  0  0  0  0  0  0  0  0  0  0
   -3.9846   -2.8240    4.1172 H   0  0  0  0  0  0  0  0  0  0  0  0
   -4.2100   -4.8391    2.7126 H   0  0  0  0  0  0  0  0  0  0  0  0
   -2.3829   -2.7985   -0.5782 H   0  0  0  0  0  0  0  0  0  0  0  0
    0.4529   -1.1134   -0.1978 H   0  0  0  0  0  0  0  0  0  0  0  0
    1.1937   -1.1474   -2.5602 H   0  0  0  0  0  0  0  0  0  0  0  0
   -0.3588   -0.4609   -4.3642 H   0  0  0  0  0  0  0  0  0  0  0  0
   -2.6649    0.2608   -3.8098 H   0  0  0  0  0  0  0  0  0  0  0  0
   -3.4244    0.2933   -1.4554 H   0  0  0  0  0  0  0  0  0  0  0  0
   -0.7701    3.5412   -1.7830 H   0  0  0  0  0  0  0  0  0  0  0  0
   -0.8799    4.3025   -0.1623 H   0  0  0  0  0  0  0  0  0  0  0  0
    1.4534    1.6293   -1.9831 H   0  0  0  0  0  0  0  0  0  0  0  0
    4.3564    2.0892   -2.3941 H   0  0  0  0  0  0  0  0  0  0  0  0
    5.1096    2.2763   -0.7730 H   0  0  0  0  0  0  0  0  0  0  0  0
    4.2339   -0.1363   -3.1505 H   0  0  0  0  0  0  0  0  0  0  0  0
    3.9695   -2.5549   -2.7392 H   0  0  0  0  0  0  0  0  0  0  0  0
    3.6464   -3.4004   -0.4321 H   0  0  0  0  0  0  0  0  0  0  0  0
    3.5919   -1.8165    1.4743 H   0  0  0  0  0  0  0  0  0  0  0  0
    3.8576    0.6116    1.0824 H   0  0  0  0  0  0  0  0  0  0  0  0
  1 35  1  0  0  0  0
  1 36  1  0  0  0  0
  1 37  1  0  0  0  0
  2  1  1  0  0  0  0
  3  2  2  0  0  0  0
  4  3  1  0  0  0  0
  5  4  2  0  0  0  0
  5 38  1  0  0  0  0
  6  5  1  0  0  0  0
  6 39  1  0  0  0  0
  7  6  2  0  0  0  0
  8  7  1  0  0  0  0
  9  7  1  0  0  0  0
  9 40  1  0  0  0  0
 10  9  2  0  0  0  0
 10  4  1  0  0  0  0
 11 10  1  0  0  0  0
 12 11  1  0  0  0  0
 13 12  2  0  0  0  0
 13 41  1  0  0  0  0
 14 13  1  0  0  0  0
 14 42  1  0  0  0  0
 15 14  2  0  0  0  0
 15 43  1  0  0  0  0
 16 15  1  0  0  0  0
 16 44  1  0  0  0  0
 17 16  2  0  0  0  0
 17 12  1  0  0  0  0
 17 45  1  0  0  0  0
 18 11  2  0  0  0  0
 18  2  1  0  0  0  0
 19 18  1  0  0  0  0
 20 19  2  0  0  0  0
 21 19  1  0  0  0  0
 22 21  1  0  0  0  0
 22 46  1  0  0  0  0
 22 47  1  0  0  0  0
 23 22  1  0  0  0  0
 24 23  2  0  0  0  0
 24 48  1  0  0  0  0
 25 24  1  0  0  0  0
 26 25  1  0  0  0  0
 26 49  1  0  0  0  0
 26 50  1  0  0  0  0
 27 26  1  0  0  0  0
 28 27  2  0  0  0  0
 28 51  1  0  0  0  0
 29 28  1  0  0  0  0
 29 52  1  0  0  0  0
 30 29  2  0  0  0  0
 30 53  1  0  0  0  0
 31 30  1  0  0  0  0
 31 54  1  0  0  0  0
 32 31  2  0  0  0  0
 32 27  1  0  0  0  0
 32 55  1  0  0  0  0
 33 25  1  0  0  0  0
 34 33  2  0  0  0  0
 34 23  1  0  0  0  0
M  END
>  <MOL Chiral Flag>
0

>  <energy>
101.95470518659752

$$$$
> 272_AKC_j.exppara.2018.04.017
>264.sdf
 OpenBabel10062212003D

 55 58  0  0  0  0  0  0  0  0999 V2000
    7.5584    0.8448   -1.0529 C   0  0  0  0  0  0  0  0  0  0  0  0
    6.7390   -0.3586   -0.6925 C   0  0  0  0  0  0  0  0  0  0  0  0
    5.3265   -0.3340   -0.7582 C   0  0  0  0  0  0  0  0  0  0  0  0
    4.5883   -1.5012   -0.4523 C   0  0  0  0  0  0  0  0  0  0  0  0
    3.1627   -1.6029   -0.5536 N   0  0  0  0  0  0  0  0  0  0  0  0
    2.2222   -0.6207   -0.6564 C   0  0  0  0  0  0  0  0  0  0  0  0
    2.5086    0.5653   -0.5948 O   0  0  0  0  0  0  0  0  0  0  0  0
    0.9413   -1.0299   -0.8188 O   0  0  0  0  0  0  0  0  0  0  0  0
   -0.3138   -0.4778   -0.6344 C   0  0  1  0  0  0  0  0  0  0  0  0
   -0.5831    0.8322   -1.4127 C   0  0  0  0  0  0  0  0  0  0  0  0
   -1.9189    1.3578   -1.0853 N   0  0  0  0  0  0  0  0  0  0  0  0
   -3.0960    0.8088   -1.7534 C   0  0  0  0  0  0  0  0  0  0  0  0
   -3.9633    1.9575   -2.2437 C   0  0  0  0  0  0  0  0  0  0  0  0
   -4.4652    2.7737   -1.0429 C   0  0  0  0  0  0  0  0  0  0  0  0
   -3.3739    3.0628   -0.0366 C   0  0  0  0  0  0  0  0  0  0  0  0
   -3.6155    4.0086    0.9716 C   0  0  0  0  0  0  0  0  0  0  0  0
   -2.6284    4.3073    1.9093 C   0  0  0  0  0  0  0  0  0  0  0  0
   -1.3941    3.6615    1.8549 C   0  0  0  0  0  0  0  0  0  0  0  0
   -1.1388    2.7053    0.8676 C   0  0  0  0  0  0  0  0  0  0  0  0
   -2.1261    2.3832   -0.0904 C   0  0  0  0  0  0  0  0  0  0  0  0
   -1.2411   -1.5907   -1.0657 C   0  0  0  0  0  0  0  0  0  0  0  0
   -1.0574   -2.1918   -2.3283 C   0  0  0  0  0  0  0  0  0  0  0  0
   -1.8360   -3.2829   -2.7125 C   0  0  0  0  0  0  0  0  0  0  0  0
   -2.8196   -3.7757   -1.8524 C   0  0  0  0  0  0  0  0  0  0  0  0
   -3.7856   -5.1582   -2.3332 Cl  0  0  0  0  0  0  0  0  0  0  0  0
   -3.0233   -3.1743   -0.6045 C   0  0  0  0  0  0  0  0  0  0  0  0
   -2.2311   -2.0909   -0.2059 C   0  0  0  0  0  0  0  0  0  0  0  0
    5.2883   -2.6634   -0.0772 C   0  0  0  0  0  0  0  0  0  0  0  0
    6.6762   -2.6757    0.0051 C   0  0  0  0  0  0  0  0  0  0  0  0
    7.4014   -1.5313   -0.3041 C   0  0  0  0  0  0  0  0  0  0  0  0
    6.9239    1.7027   -1.3551 H   0  0  0  0  0  0  0  0  0  0  0  0
    8.1830    1.1456   -0.1855 H   0  0  0  0  0  0  0  0  0  0  0  0
    8.2297    0.5879   -1.9017 H   0  0  0  0  0  0  0  0  0  0  0  0
    4.8335    0.5711   -1.0767 H   0  0  0  0  0  0  0  0  0  0  0  0
    2.7844   -2.5635   -0.5355 H   0  0  0  0  0  0  0  0  0  0  0  0
   -0.4501   -0.2487    0.4453 H   0  0  0  0  0  0  0  0  0  0  0  0
    0.1915    1.5751   -1.1438 H   0  0  0  0  0  0  0  0  0  0  0  0
   -0.4791    0.7046   -2.5120 H   0  0  0  0  0  0  0  0  0  0  0  0
   -3.6956    0.2105   -1.0317 H   0  0  0  0  0  0  0  0  0  0  0  0
   -2.8083    0.1498   -2.5997 H   0  0  0  0  0  0  0  0  0  0  0  0
   -4.8374    1.5940   -2.8266 H   0  0  0  0  0  0  0  0  0  0  0  0
   -3.3397    2.5979   -2.9049 H   0  0  0  0  0  0  0  0  0  0  0  0
   -4.8929    3.7190   -1.4435 H   0  0  0  0  0  0  0  0  0  0  0  0
   -5.2734    2.2305   -0.5054 H   0  0  0  0  0  0  0  0  0  0  0  0
   -4.5695    4.5204    1.0230 H   0  0  0  0  0  0  0  0  0  0  0  0
   -2.8214    5.0413    2.6817 H   0  0  0  0  0  0  0  0  0  0  0  0
   -0.6344    3.8934    2.5900 H   0  0  0  0  0  0  0  0  0  0  0  0
   -0.1816    2.2081    0.8819 H   0  0  0  0  0  0  0  0  0  0  0  0
   -0.2833   -1.8341   -2.9976 H   0  0  0  0  0  0  0  0  0  0  0  0
   -1.6639   -3.7524   -3.6733 H   0  0  0  0  0  0  0  0  0  0  0  0
   -3.7850   -3.5563    0.0618 H   0  0  0  0  0  0  0  0  0  0  0  0
   -2.3852   -1.6463    0.7687 H   0  0  0  0  0  0  0  0  0  0  0  0
    4.7447   -3.5713    0.1550 H   0  0  0  0  0  0  0  0  0  0  0  0
    7.1901   -3.5821    0.2993 H   0  0  0  0  0  0  0  0  0  0  0  0
    8.4832   -1.5598   -0.2511 H   0  0  0  0  0  0  0  0  0  0  0  0
  1 31  1  0  0  0  0
  1 32  1  0  0  0  0
  1 33  1  0  0  0  0
  2  1  1  0  0  0  0
  3  2  2  0  0  0  0
  3 34  1  0  0  0  0
  4  3  1  0  0  0  0
  5  4  1  0  0  0  0
  5 35  1  0  0  0  0
  6  5  1  0  0  0  0
  7  6  2  0  0  0  0
  8  6  1  0  0  0  0
  9  8  1  0  0  0  0
  9 36  1  1  0  0  0
 10  9  1  0  0  0  0
 10 37  1  0  0  0  0
 10 38  1  0  0  0  0
 11 10  1  0  0  0  0
 12 11  1  0  0  0  0
 12 39  1  0  0  0  0
 12 40  1  0  0  0  0
 13 12  1  0  0  0  0
 13 41  1  0  0  0  0
 13 42  1  0  0  0  0
 14 13  1  0  0  0  0
 14 43  1  0  0  0  0
 14 44  1  0  0  0  0
 15 14  1  0  0  0  0
 16 15  2  0  0  0  0
 16 45  1  0  0  0  0
 17 16  1  0  0  0  0
 17 46  1  0  0  0  0
 18 17  2  0  0  0  0
 18 47  1  0  0  0  0
 19 18  1  0  0  0  0
 19 48  1  0  0  0  0
 20 19  2  0  0  0  0
 20 11  1  0  0  0  0
 20 15  1  0  0  0  0
 21  9  1  0  0  0  0
 22 21  2  0  0  0  0
 22 49  1  0  0  0  0
 23 22  1  0  0  0  0
 23 50  1  0  0  0  0
 24 23  2  0  0  0  0
 25 24  1  0  0  0  0
 26 24  1  0  0  0  0
 26 51  1  0  0  0  0
 27 26  2  0  0  0  0
 27 21  1  0  0  0  0
 27 52  1  0  0  0  0
 28  4  2  0  0  0  0
 28 53  1  0  0  0  0
 29 28  1  0  0  0  0
 29 54  1  0  0  0  0
 30 29  2  0  0  0  0
 30  2  1  0  0  0  0
 30 55  1  0  0  0  0
M  END
>  <MOL Chiral Flag>
0

>  <energy>
59.467571251117924

$$$$
> 273_AKC_j.ejmech.2018.04.033
>265.sdf
 OpenBabel10062212003D

 40 43  0  0  0  0  0  0  0  0999 V2000
   -5.2960   -0.3917   -2.2765 C   0  0  0  0  0  0  0  0  0  0  0  0
   -5.2285   -1.4293   -1.3667 O   0  0  0  0  0  0  0  0  0  0  0  0
   -4.1516   -1.6923   -0.5805 C   0  0  0  0  0  0  0  0  0  0  0  0
   -3.0795   -0.7872   -0.4567 C   0  0  0  0  0  0  0  0  0  0  0  0
   -1.9429   -1.1291    0.2859 C   0  0  0  0  0  0  0  0  0  0  0  0
   -1.8845   -2.3749    0.9317 C   0  0  0  0  0  0  0  0  0  0  0  0
   -2.9701   -3.2521    0.8576 C   0  0  0  0  0  0  0  0  0  0  0  0
   -4.0969   -2.9137    0.1022 C   0  0  0  0  0  0  0  0  0  0  0  0
   -0.8316   -0.1685    0.3820 C   0  0  0  0  0  0  0  0  0  0  0  0
   -1.1114    1.1395    0.6281 N   0  0  0  0  0  0  0  0  0  0  0  0
   -0.1336    2.0669    0.7659 C   0  0  0  0  0  0  0  0  0  0  0  0
   -0.4618    3.3938    1.0463 C   0  0  0  0  0  0  0  0  0  0  0  0
    0.5506    4.3436    1.1639 C   0  0  0  0  0  0  0  0  0  0  0  0
    1.8833    3.9543    0.9953 C   0  0  0  0  0  0  0  0  0  0  0  0
    2.1904    2.6533    0.7280 N   0  0  0  0  0  0  0  0  0  0  0  0
    1.2216    1.7021    0.6191 C   0  0  0  0  0  0  0  0  0  0  0  0
    1.5377    0.3616    0.3155 C   0  0  0  0  0  0  0  0  0  0  0  0
    0.4996   -0.5761    0.2129 C   0  0  0  0  0  0  0  0  0  0  0  0
    2.9303   -0.0765    0.0734 C   0  0  0  0  0  0  0  0  0  0  0  0
    3.9152    0.0636    1.0632 C   0  0  0  0  0  0  0  0  0  0  0  0
    5.2194   -0.3853    0.8225 C   0  0  0  0  0  0  0  0  0  0  0  0
    5.5531   -0.9450   -0.4151 C   0  0  0  0  0  0  0  0  0  0  0  0
    4.5815   -1.0691   -1.4109 C   0  0  0  0  0  0  0  0  0  0  0  0
    3.2708   -0.6513   -1.1644 C   0  0  0  0  0  0  0  0  0  0  0  0
   -4.4634   -0.4796   -3.0103 H   0  0  0  0  0  0  0  0  0  0  0  0
   -5.2439    0.5898   -1.7607 H   0  0  0  0  0  0  0  0  0  0  0  0
   -6.2530   -0.4536   -2.8320 H   0  0  0  0  0  0  0  0  0  0  0  0
   -3.1028    0.1670   -0.9661 H   0  0  0  0  0  0  0  0  0  0  0  0
   -1.0179   -2.6494    1.5209 H   0  0  0  0  0  0  0  0  0  0  0  0
   -2.9355   -4.2000    1.3794 H   0  0  0  0  0  0  0  0  0  0  0  0
   -4.9227   -3.6101    0.0312 H   0  0  0  0  0  0  0  0  0  0  0  0
   -1.4980    3.6861    1.1693 H   0  0  0  0  0  0  0  0  0  0  0  0
    0.3040    5.3756    1.3787 H   0  0  0  0  0  0  0  0  0  0  0  0
    2.6726    4.6887    1.0756 H   0  0  0  0  0  0  0  0  0  0  0  0
    0.7261   -1.6127   -0.0106 H   0  0  0  0  0  0  0  0  0  0  0  0
    3.6650    0.4887    2.0269 H   0  0  0  0  0  0  0  0  0  0  0  0
    5.9716   -0.3013    1.5955 H   0  0  0  0  0  0  0  0  0  0  0  0
    6.5641   -1.2834   -0.6027 H   0  0  0  0  0  0  0  0  0  0  0  0
    4.8428   -1.4918   -2.3730 H   0  0  0  0  0  0  0  0  0  0  0  0
    2.5258   -0.7503   -1.9451 H   0  0  0  0  0  0  0  0  0  0  0  0
  1 25  1  0  0  0  0
  1 26  1  0  0  0  0
  1 27  1  0  0  0  0
  2  1  1  0  0  0  0
  3  2  1  0  0  0  0
  4  3  2  0  0  0  0
  4 28  1  0  0  0  0
  5  4  1  0  0  0  0
  6  5  2  0  0  0  0
  6 29  1  0  0  0  0
  7  6  1  0  0  0  0
  7 30  1  0  0  0  0
  8  7  2  0  0  0  0
  8  3  1  0  0  0  0
  8 31  1  0  0  0  0
  9  5  1  0  0  0  0
 10  9  2  0  0  0  0
 11 10  1  0  0  0  0
 12 11  2  0  0  0  0
 12 32  1  0  0  0  0
 13 12  1  0  0  0  0
 13 33  1  0  0  0  0
 14 13  2  0  0  0  0
 14 34  1  0  0  0  0
 15 14  1  0  0  0  0
 16 15  2  0  0  0  0
 16 11  1  0  0  0  0
 17 16  1  0  0  0  0
 18 17  2  0  0  0  0
 18  9  1  0  0  0  0
 18 35  1  0  0  0  0
 19 17  1  0  0  0  0
 20 19  2  0  0  0  0
 20 36  1  0  0  0  0
 21 20  1  0  0  0  0
 21 37  1  0  0  0  0
 22 21  2  0  0  0  0
 22 38  1  0  0  0  0
 23 22  1  0  0  0  0
 23 39  1  0  0  0  0
 24 23  2  0  0  0  0
 24 19  1  0  0  0  0
 24 40  1  0  0  0  0
M  END
>  <MOL Chiral Flag>
0

>  <energy>
103.68400799443474

$$$$
> 274_AKC_AAC.37.12.2550
>266.sdf
 OpenBabel10062212013D

 47 48  0  0  0  0  0  0  0  0999 V2000
   -3.0336   -1.6326    0.5660 C   0  0  0  0  0  0  0  0  0  0  0  0
   -2.0526   -0.6929    0.8076 O   0  0  0  0  0  0  0  0  0  0  0  0
   -0.7773   -0.7240    0.3405 C   0  0  0  0  0  0  0  0  0  0  0  0
   -0.3743   -1.7189   -0.5647 C   0  0  0  0  0  0  0  0  0  0  0  0
    0.9432   -1.8085   -1.0239 C   0  0  0  0  0  0  0  0  0  0  0  0
    1.2485   -2.7973   -1.8875 O   0  0  0  0  0  0  0  0  0  0  0  0
    1.9248   -0.8839   -0.5649 C   0  0  0  0  0  0  0  0  0  0  0  0
    1.5039    0.1162    0.3479 C   0  0  0  0  0  0  0  0  0  0  0  0
    0.1734    0.2256    0.7940 C   0  0  0  0  0  0  0  0  0  0  0  0
   -0.1351    1.3438    1.7556 C   0  0  0  0  0  0  0  0  0  0  0  0
   -1.3714    1.7877    2.0783 C   0  0  0  0  0  0  0  0  0  0  0  0
   -1.5883    2.8993    3.0513 C   0  0  0  0  0  0  0  0  0  0  0  0
   -0.6222    3.3591    3.6458 O   0  0  0  0  0  0  0  0  0  0  0  0
   -2.9504    3.4705    3.3310 C   0  0  0  0  0  0  0  0  0  0  0  0
   -4.1067    3.0512    2.6314 C   0  0  0  0  0  0  0  0  0  0  0  0
   -5.3522    3.6221    2.9082 C   0  0  0  0  0  0  0  0  0  0  0  0
   -5.4751    4.6145    3.8808 C   0  0  0  0  0  0  0  0  0  0  0  0
   -6.6840    5.1593    4.1274 O   0  0  0  0  0  0  0  0  0  0  0  0
   -4.3421    5.0362    4.5869 C   0  0  0  0  0  0  0  0  0  0  0  0
   -3.0919    4.4717    4.3151 C   0  0  0  0  0  0  0  0  0  0  0  0
    3.4264   -0.9091   -0.9914 C   0  0  0  0  0  0  0  0  0  0  0  0
    3.7962   -2.0336   -1.9977 C   0  0  0  0  0  0  0  0  0  0  0  0
    4.2865   -1.1676    0.2661 C   0  0  0  0  0  0  0  0  0  0  0  0
    3.8008    0.4752   -1.5485 C   0  0  0  0  0  0  0  0  0  0  0  0
    4.2554    0.7223   -2.7883 C   0  0  0  0  0  0  0  0  0  0  0  0
   -3.9572   -1.3320    1.1014 H   0  0  0  0  0  0  0  0  0  0  0  0
   -2.7110   -2.6233    0.9525 H   0  0  0  0  0  0  0  0  0  0  0  0
   -3.2594   -1.6930   -0.5192 H   0  0  0  0  0  0  0  0  0  0  0  0
   -1.0885   -2.4494   -0.9191 H   0  0  0  0  0  0  0  0  0  0  0  0
    0.5928   -3.4411   -2.1925 H   0  0  0  0  0  0  0  0  0  0  0  0
    2.2228    0.8358    0.7158 H   0  0  0  0  0  0  0  0  0  0  0  0
    0.7163    1.8522    2.2014 H   0  0  0  0  0  0  0  0  0  0  0  0
   -2.2300    1.3560    1.6188 H   0  0  0  0  0  0  0  0  0  0  0  0
   -4.0704    2.2967    1.8650 H   0  0  0  0  0  0  0  0  0  0  0  0
   -6.2257    3.2935    2.3584 H   0  0  0  0  0  0  0  0  0  0  0  0
   -6.8035    5.8581    4.7862 H   0  0  0  0  0  0  0  0  0  0  0  0
   -4.4287    5.8046    5.3447 H   0  0  0  0  0  0  0  0  0  0  0  0
   -2.2330    4.8198    4.8748 H   0  0  0  0  0  0  0  0  0  0  0  0
    4.8798   -1.9992   -2.2447 H   0  0  0  0  0  0  0  0  0  0  0  0
    3.2327   -1.9288   -2.9496 H   0  0  0  0  0  0  0  0  0  0  0  0
    3.6104   -3.0402   -1.5654 H   0  0  0  0  0  0  0  0  0  0  0  0
    5.3687   -1.1764    0.0113 H   0  0  0  0  0  0  0  0  0  0  0  0
    4.0265   -2.1521    0.7139 H   0  0  0  0  0  0  0  0  0  0  0  0
    4.1359   -0.3909    1.0437 H   0  0  0  0  0  0  0  0  0  0  0  0
    3.6981    1.3326   -0.8912 H   0  0  0  0  0  0  0  0  0  0  0  0
    4.3955   -0.0536   -3.5295 H   0  0  0  0  0  0  0  0  0  0  0  0
    4.4937    1.7419   -3.0741 H   0  0  0  0  0  0  0  0  0  0  0  0
  1 26  1  0  0  0  0
  1 27  1  0  0  0  0
  1 28  1  0  0  0  0
  2  1  1  0  0  0  0
  3  2  1  0  0  0  0
  4  3  2  0  0  0  0
  4 29  1  0  0  0  0
  5  4  1  0  0  0  0
  6  5  1  0  0  0  0
  6 30  1  0  0  0  0
  7  5  2  0  0  0  0
  8  7  1  0  0  0  0
  8 31  1  0  0  0  0
  9  8  2  0  0  0  0
  9  3  1  0  0  0  0
 10  9  1  0  0  0  0
 10 32  1  0  0  0  0
 11 10  2  0  0  0  0
 11 33  1  0  0  0  0
 12 11  1  0  0  0  0
 13 12  2  0  0  0  0
 14 12  1  0  0  0  0
 15 14  2  0  0  0  0
 15 34  1  0  0  0  0
 16 15  1  0  0  0  0
 16 35  1  0  0  0  0
 17 16  2  0  0  0  0
 18 17  1  0  0  0  0
 18 36  1  0  0  0  0
 19 17  1  0  0  0  0
 19 37  1  0  0  0  0
 20 19  2  0  0  0  0
 20 14  1  0  0  0  0
 20 38  1  0  0  0  0
 21  7  1  0  0  0  0
 22 21  1  0  0  0  0
 22 39  1  0  0  0  0
 22 40  1  0  0  0  0
 22 41  1  0  0  0  0
 23 21  1  0  0  0  0
 23 42  1  0  0  0  0
 23 43  1  0  0  0  0
 23 44  1  0  0  0  0
 24 21  1  0  0  0  0
 24 45  1  0  0  0  0
 25 24  2  0  0  0  0
 25 46  1  0  0  0  0
 25 47  1  0  0  0  0
M  END
>  <MOL Chiral Flag>
0

>  <energy>
111.44522427670456

$$$$
> 275_AKC_AAC.43.5.1234
>267.sdf
 OpenBabel10062212013D

 34 35  0  0  0  0  0  0  0  0999 V2000
    2.9215    3.3974   -0.8788 C   0  0  0  0  0  0  0  0  0  0  0  0
    3.3513    2.1016   -1.0824 O   0  0  0  0  0  0  0  0  0  0  0  0
    2.7108    0.9834   -0.6471 C   0  0  0  0  0  0  0  0  0  0  0  0
    1.5104    1.0392    0.0754 C   0  0  0  0  0  0  0  0  0  0  0  0
    0.8787   -0.1270    0.5187 C   0  0  0  0  0  0  0  0  0  0  0  0
   -0.2307    0.0300    1.2765 O   0  0  0  0  0  0  0  0  0  0  0  0
    1.4411   -1.4079    0.2171 C   0  0  0  0  0  0  0  0  0  0  0  0
    0.7724   -2.6831    0.6560 C   0  0  0  0  0  0  0  0  0  0  0  0
    1.4569   -3.6397    0.9876 O   0  0  0  0  0  0  0  0  0  0  0  0
   -0.7106   -2.8366    0.6335 C   0  0  0  0  0  0  0  0  0  0  0  0
   -1.3145   -3.9524    1.0928 C   0  0  0  0  0  0  0  0  0  0  0  0
   -2.7907   -4.1774    1.0892 C   0  0  0  0  0  0  0  0  0  0  0  0
   -3.2793   -5.3876    1.6151 C   0  0  0  0  0  0  0  0  0  0  0  0
   -4.6517   -5.6517    1.6384 C   0  0  0  0  0  0  0  0  0  0  0  0
   -5.5542   -4.7133    1.1373 C   0  0  0  0  0  0  0  0  0  0  0  0
   -5.0870   -3.5079    0.6117 C   0  0  0  0  0  0  0  0  0  0  0  0
   -3.7154   -3.2346    0.5848 C   0  0  0  0  0  0  0  0  0  0  0  0
    2.6699   -1.4459   -0.5147 C   0  0  0  0  0  0  0  0  0  0  0  0
    3.2773   -2.6007   -0.8755 O   0  0  0  0  0  0  0  0  0  0  0  0
    3.2772   -0.2561   -0.9266 C   0  0  0  0  0  0  0  0  0  0  0  0
    1.9274    3.5522   -1.3499 H   0  0  0  0  0  0  0  0  0  0  0  0
    2.8706    3.6200    0.2085 H   0  0  0  0  0  0  0  0  0  0  0  0
    3.6452    4.0958   -1.3467 H   0  0  0  0  0  0  0  0  0  0  0  0
    1.0633    1.9934    0.3211 H   0  0  0  0  0  0  0  0  0  0  0  0
   -0.6324   -0.6662    1.8073 H   0  0  0  0  0  0  0  0  0  0  0  0
   -1.2955   -2.0311    0.2162 H   0  0  0  0  0  0  0  0  0  0  0  0
   -0.6943   -4.7470    1.4993 H   0  0  0  0  0  0  0  0  0  0  0  0
   -2.5947   -6.1290    2.0092 H   0  0  0  0  0  0  0  0  0  0  0  0
   -5.0151   -6.5862    2.0461 H   0  0  0  0  0  0  0  0  0  0  0  0
   -6.6165   -4.9201    1.1562 H   0  0  0  0  0  0  0  0  0  0  0  0
   -5.7895   -2.7817    0.2233 H   0  0  0  0  0  0  0  0  0  0  0  0
   -3.3982   -2.2915    0.1700 H   0  0  0  0  0  0  0  0  0  0  0  0
    2.9156   -3.4837   -0.7485 H   0  0  0  0  0  0  0  0  0  0  0  0
    4.2034   -0.2995   -1.4876 H   0  0  0  0  0  0  0  0  0  0  0  0
  1 21  1  0  0  0  0
  1 22  1  0  0  0  0
  1 23  1  0  0  0  0
  2  1  1  0  0  0  0
  3  2  1  0  0  0  0
  4  3  2  0  0  0  0
  4 24  1  0  0  0  0
  5  4  1  0  0  0  0
  6  5  1  0  0  0  0
  6 25  1  0  0  0  0
  7  5  2  0  0  0  0
  8  7  1  0  0  0  0
  9  8  2  0  0  0  0
 10  8  1  0  0  0  0
 10 26  1  0  0  0  0
 11 10  2  0  0  0  0
 11 27  1  0  0  0  0
 12 11  1  0  0  0  0
 13 12  2  0  0  0  0
 13 28  1  0  0  0  0
 14 13  1  0  0  0  0
 14 29  1  0  0  0  0
 15 14  2  0  0  0  0
 15 30  1  0  0  0  0
 16 15  1  0  0  0  0
 16 31  1  0  0  0  0
 17 16  2  0  0  0  0
 17 12  1  0  0  0  0
 17 32  1  0  0  0  0
 18  7  1  0  0  0  0
 19 18  1  0  0  0  0
 19 33  1  0  0  0  0
 20 18  2  0  0  0  0
 20  3  1  0  0  0  0
 20 34  1  0  0  0  0
M  END
>  <MOL Chiral Flag>
0

>  <energy>
71.061460862411195

$$$$
> 276_AKC_j.bmc.2005.10.005
>268.sdf
 OpenBabel10062212023D

 39 40  0  0  0  0  0  0  0  0999 V2000
    5.2208   -0.8318    6.4249 C   0  0  0  0  0  0  0  0  0  0  0  0
    5.0376   -1.8945    5.5679 O   0  0  0  0  0  0  0  0  0  0  0  0
    3.9720   -2.0458    4.7414 C   0  0  0  0  0  0  0  0  0  0  0  0
    4.1786   -2.7261    3.5555 C   0  0  0  0  0  0  0  0  0  0  0  0
    3.1764   -2.8307    2.5931 C   0  0  0  0  0  0  0  0  0  0  0  0
    3.5079   -3.4175    1.4228 O   0  0  0  0  0  0  0  0  0  0  0  0
    3.9593   -2.6646    0.3544 C   0  0  0  0  0  0  0  0  0  0  0  0
    1.8805   -2.2772    2.8192 C   0  0  0  0  0  0  0  0  0  0  0  0
    0.8165   -2.4119    1.7326 C   0  0  0  0  0  0  0  0  0  0  0  0
    1.0285   -3.1833    0.8080 O   0  0  0  0  0  0  0  0  0  0  0  0
   -0.4651   -1.6288    1.6928 C   0  0  0  0  0  0  0  0  0  0  0  0
   -1.3828   -1.8078    0.7068 C   0  0  0  0  0  0  0  0  0  0  0  0
   -2.6702   -1.0414    0.5900 C   0  0  0  0  0  0  0  0  0  0  0  0
   -3.5363   -1.3212   -0.4908 C   0  0  0  0  0  0  0  0  0  0  0  0
   -4.7613   -0.6293   -0.6385 C   0  0  0  0  0  0  0  0  0  0  0  0
   -5.1061    0.3528    0.3026 C   0  0  0  0  0  0  0  0  0  0  0  0
   -4.2558    0.6384    1.3679 C   0  0  0  0  0  0  0  0  0  0  0  0
   -3.0511   -0.0492    1.5182 C   0  0  0  0  0  0  0  0  0  0  0  0
   -5.6444   -0.9212   -1.7248 N   0  3  0  0  0  0  0  0  0  0  0  0
   -6.8220   -0.3331   -1.7986 O   0  5  0  0  0  0  0  0  0  0  0  0
   -5.3362   -1.7128   -2.5616 O   0  0  0  0  0  0  0  0  0  0  0  0
    1.6591   -1.6163    4.0682 C   0  0  0  0  0  0  0  0  0  0  0  0
    0.4562   -1.0962    4.3783 O   0  0  0  0  0  0  0  0  0  0  0  0
    2.7076   -1.4986    5.0077 C   0  0  0  0  0  0  0  0  0  0  0  0
    6.2936   -0.8012    6.7100 H   0  0  0  0  0  0  0  0  0  0  0  0
    5.0026    0.1169    5.8871 H   0  0  0  0  0  0  0  0  0  0  0  0
    4.5989   -0.9226    7.3375 H   0  0  0  0  0  0  0  0  0  0  0  0
    5.1599   -3.1380    3.3510 H   0  0  0  0  0  0  0  0  0  0  0  0
    5.0270   -2.8988    0.1631 H   0  0  0  0  0  0  0  0  0  0  0  0
    3.8721   -1.5703    0.5509 H   0  0  0  0  0  0  0  0  0  0  0  0
    3.3656   -2.9094   -0.5482 H   0  0  0  0  0  0  0  0  0  0  0  0
   -0.6510   -0.8905    2.4412 H   0  0  0  0  0  0  0  0  0  0  0  0
   -1.1825   -2.5512   -0.0610 H   0  0  0  0  0  0  0  0  0  0  0  0
   -3.2614   -2.0806   -1.2131 H   0  0  0  0  0  0  0  0  0  0  0  0
   -6.0345    0.9030    0.2120 H   0  0  0  0  0  0  0  0  0  0  0  0
   -4.5330    1.3993    2.0857 H   0  0  0  0  0  0  0  0  0  0  0  0
   -2.4342    0.2081    2.3618 H   0  0  0  0  0  0  0  0  0  0  0  0
    0.2888   -0.6459    5.2187 H   0  0  0  0  0  0  0  0  0  0  0  0
    2.5310   -0.9777    5.9411 H   0  0  0  0  0  0  0  0  0  0  0  0
  1 25  1  0  0  0  0
  1 26  1  0  0  0  0
  1 27  1  0  0  0  0
  2  1  1  0  0  0  0
  3  2  1  0  0  0  0
  4  3  2  0  0  0  0
  4 28  1  0  0  0  0
  5  4  1  0  0  0  0
  6  5  1  0  0  0  0
  7  6  1  0  0  0  0
  7 29  1  0  0  0  0
  7 30  1  0  0  0  0
  7 31  1  0  0  0  0
  8  5  2  0  0  0  0
  9  8  1  0  0  0  0
 10  9  2  0  0  0  0
 11  9  1  0  0  0  0
 11 32  1  0  0  0  0
 12 11  2  0  0  0  0
 12 33  1  0  0  0  0
 13 12  1  0  0  0  0
 14 13  2  0  0  0  0
 14 34  1  0  0  0  0
 15 14  1  0  0  0  0
 16 15  2  0  0  0  0
 16 35  1  0  0  0  0
 17 16  1  0  0  0  0
 17 36  1  0  0  0  0
 18 17  2  0  0  0  0
 18 13  1  0  0  0  0
 18 37  1  0  0  0  0
 19 15  1  0  0  0  0
 20 19  1  0  0  0  0
 21 19  2  0  0  0  0
 22  8  1  0  0  0  0
 23 22  1  0  0  0  0
 23 38  1  0  0  0  0
 24 22  2  0  0  0  0
 24  3  1  0  0  0  0
 24 39  1  0  0  0  0
M  CHG  2  19   1  20  -1
M  END
>  <MOL Chiral Flag>
0

>  <energy>
115.53360103057138

$$$$
> 277_AKC_s00284-009-9447-2
>269.sdf
 OpenBabel10062212023D

 47 49  0  0  0  0  0  0  0  0999 V2000
   -6.1658    0.0116   -2.0050 C   0  0  0  0  0  0  0  0  0  0  0  0
   -5.0120    0.6454   -1.5877 O   0  0  0  0  0  0  0  0  0  0  0  0
   -3.9230    0.0240   -1.0599 C   0  0  0  0  0  0  0  0  0  0  0  0
   -2.7184    0.7435   -0.9143 C   0  0  0  0  0  0  0  0  0  0  0  0
   -1.5692    0.0963   -0.4236 C   0  0  0  0  0  0  0  0  0  0  0  0
   -1.6184   -1.2617   -0.0451 C   0  0  0  0  0  0  0  0  0  0  0  0
   -0.4456   -2.0083    0.4922 C   0  0  0  0  0  0  0  0  0  0  0  0
    0.8391   -1.5973    0.4271 C   0  0  0  0  0  0  0  0  0  0  0  0
    1.9252   -2.4223    1.0438 C   0  0  0  0  0  0  0  0  0  0  0  0
    1.6109   -3.3694    1.7505 O   0  0  0  0  0  0  0  0  0  0  0  0
    3.3797   -2.1195    0.8663 C   0  0  0  0  0  0  0  0  0  0  0  0
    3.8484   -1.2191   -0.1126 C   0  0  0  0  0  0  0  0  0  0  0  0
    5.2219   -0.9815   -0.2543 C   0  0  0  0  0  0  0  0  0  0  0  0
    6.1383   -1.6265    0.5794 C   0  0  0  0  0  0  0  0  0  0  0  0
    5.6879   -2.5173    1.5524 C   0  0  0  0  0  0  0  0  0  0  0  0
    4.3215   -2.7699    1.6929 C   0  0  0  0  0  0  0  0  0  0  0  0
   -2.8314   -1.9540   -0.1607 C   0  0  0  0  0  0  0  0  0  0  0  0
   -3.9655   -1.3283   -0.6712 C   0  0  0  0  0  0  0  0  0  0  0  0
   -2.6039    2.4817   -1.3998 S   0  0  0  0  0  0  0  0  0  0  0  0
   -3.8303    2.9346   -2.2072 O   0  0  0  0  0  0  0  0  0  0  0  0
   -1.4855    2.6655   -2.4288 O   0  0  0  0  0  0  0  0  0  0  0  0
   -2.4487    3.7238   -0.1392 N   0  0  0  0  0  0  0  0  0  0  0  0
   -1.9725    5.0632   -0.3491 C   0  0  0  0  0  0  0  0  0  0  0  0
   -2.4260    6.0865    0.5093 C   0  0  0  0  0  0  0  0  0  0  0  0
   -2.0089    7.4107    0.3282 C   0  0  0  0  0  0  0  0  0  0  0  0
   -1.1210    7.7311   -0.6981 C   0  0  0  0  0  0  0  0  0  0  0  0
   -0.6455    6.7299   -1.5422 C   0  0  0  0  0  0  0  0  0  0  0  0
   -1.0655    5.4071   -1.3764 C   0  0  0  0  0  0  0  0  0  0  0  0
   -5.9235   -0.7138   -2.8123 H   0  0  0  0  0  0  0  0  0  0  0  0
   -6.6638   -0.5078   -1.1598 H   0  0  0  0  0  0  0  0  0  0  0  0
   -6.8660    0.7673   -2.4152 H   0  0  0  0  0  0  0  0  0  0  0  0
   -0.6534    0.6625   -0.3328 H   0  0  0  0  0  0  0  0  0  0  0  0
   -0.6548   -2.9695    0.9537 H   0  0  0  0  0  0  0  0  0  0  0  0
    1.0871   -0.6697   -0.0686 H   0  0  0  0  0  0  0  0  0  0  0  0
    3.1687   -0.7126   -0.7813 H   0  0  0  0  0  0  0  0  0  0  0  0
    5.5774   -0.2977   -1.0141 H   0  0  0  0  0  0  0  0  0  0  0  0
    7.1988   -1.4381    0.4697 H   0  0  0  0  0  0  0  0  0  0  0  0
    6.3979   -3.0166    2.1998 H   0  0  0  0  0  0  0  0  0  0  0  0
    3.9978   -3.4669    2.4555 H   0  0  0  0  0  0  0  0  0  0  0  0
   -2.8944   -2.9966    0.1277 H   0  0  0  0  0  0  0  0  0  0  0  0
   -4.8733   -1.9082   -0.7628 H   0  0  0  0  0  0  0  0  0  0  0  0
   -3.0044    3.5505    0.7123 H   0  0  0  0  0  0  0  0  0  0  0  0
   -3.1203    5.8608    1.3090 H   0  0  0  0  0  0  0  0  0  0  0  0
   -2.3766    8.1906    0.9830 H   0  0  0  0  0  0  0  0  0  0  0  0
   -0.7969    8.7546   -0.8381 H   0  0  0  0  0  0  0  0  0  0  0  0
    0.0535    6.9770   -2.3312 H   0  0  0  0  0  0  0  0  0  0  0  0
   -0.6524    4.6844   -2.0442 H   0  0  0  0  0  0  0  0  0  0  0  0
  1 29  1  0  0  0  0
  1 30  1  0  0  0  0
  1 31  1  0  0  0  0
  2  1  1  0  0  0  0
  3  2  1  0  0  0  0
  4  3  2  0  0  0  0
  5  4  1  0  0  0  0
  5 32  1  0  0  0  0
  6  5  2  0  0  0  0
  7  6  1  0  0  0  0
  7 33  1  0  0  0  0
  8  7  2  0  0  0  0
  8 34  1  0  0  0  0
  9  8  1  0  0  0  0
 10  9  2  0  0  0  0
 11  9  1  0  0  0  0
 12 11  2  0  0  0  0
 12 35  1  0  0  0  0
 13 12  1  0  0  0  0
 13 36  1  0  0  0  0
 14 13  2  0  0  0  0
 14 37  1  0  0  0  0
 15 14  1  0  0  0  0
 15 38  1  0  0  0  0
 16 15  2  0  0  0  0
 16 11  1  0  0  0  0
 16 39  1  0  0  0  0
 17  6  1  0  0  0  0
 17 40  1  0  0  0  0
 18 17  2  0  0  0  0
 18  3  1  0  0  0  0
 18 41  1  0  0  0  0
 19  4  1  0  0  0  0
 20 19  2  0  0  0  0
 21 19  2  0  0  0  0
 22 19  1  0  0  0  0
 22 42  1  0  0  0  0
 23 22  1  0  0  0  0
 24 23  2  0  0  0  0
 24 43  1  0  0  0  0
 25 24  1  0  0  0  0
 25 44  1  0  0  0  0
 26 25  2  0  0  0  0
 26 45  1  0  0  0  0
 27 26  1  0  0  0  0
 27 46  1  0  0  0  0
 28 27  2  0  0  0  0
 28 23  1  0  0  0  0
 28 47  1  0  0  0  0
M  END
>  <MOL Chiral Flag>
0

>  <energy>
49.772845906169287

$$$$
> 278_AKC_j.bmcl.2016
>270.sdf
 OpenBabel10102214083D

 59 61  0  0  0  0  0  0  0  0999 V2000
   -3.5590    3.7152   -0.9499 C   0  0  0  0  0  0  0  0  0  0  0  0
   -2.5568    3.9053    0.1647 C   0  0  0  0  0  0  0  0  0  0  0  0
   -1.8747    5.2505    0.2372 C   0  0  0  0  0  0  0  0  0  0  0  0
   -2.2306    2.9593    1.0819 C   0  0  0  0  0  0  0  0  0  0  0  0
   -2.7820    1.5433    1.1803 C   0  0  0  0  0  0  0  0  0  0  0  0
   -1.6423    0.5308    1.0485 C   0  0  0  0  0  0  0  0  0  0  0  0
   -1.5499   -0.3816   -0.0385 C   0  0  0  0  0  0  0  0  0  0  0  0
   -2.4728   -0.4125   -1.0314 O   0  0  0  0  0  0  0  0  0  0  0  0
   -0.4608   -1.2805   -0.1248 C   0  0  0  0  0  0  0  0  0  0  0  0
   -0.4010   -2.2432   -1.2984 C   0  0  0  0  0  0  0  0  0  0  0  0
   -1.5748   -3.2042   -1.2206 C   0  0  0  0  0  0  0  0  0  0  0  0
   -2.5977   -3.3195   -2.1124 C   0  0  0  0  0  0  0  0  0  0  0  0
   -2.7444   -2.4867   -3.3674 C   0  0  0  0  0  0  0  0  0  0  0  0
   -3.6903   -4.3259   -1.8470 C   0  0  0  0  0  0  0  0  0  0  0  0
    0.5593   -1.2531    0.8540 C   0  0  0  0  0  0  0  0  0  0  0  0
    1.6480   -2.0813    0.7526 O   0  0  0  0  0  0  0  0  0  0  0  0
    2.8806   -1.6791    1.2575 C   0  0  1  0  0  0  0  0  0  0  0  0
    2.7428   -1.2900    2.7388 C   0  0  0  0  0  0  0  0  0  0  0  0
    1.5370   -0.4514    2.9880 C   0  0  0  0  0  0  0  0  0  0  0  0
    1.4076    0.0438    4.0938 O   0  0  0  0  0  0  0  0  0  0  0  0
    0.4628   -0.3638    1.9521 C   0  0  0  0  0  0  0  0  0  0  0  0
   -0.6490    0.5181    2.0530 C   0  0  0  0  0  0  0  0  0  0  0  0
   -0.7992    1.3768    3.0916 O   0  0  0  0  0  0  0  0  0  0  0  0
    4.0079   -2.6901    1.0119 C   0  0  0  0  0  0  0  0  0  0  0  0
    4.9214   -3.0497    2.0351 C   0  0  0  0  0  0  0  0  0  0  0  0
    5.9765   -3.9213    1.7793 C   0  0  0  0  0  0  0  0  0  0  0  0
    6.1466   -4.4696    0.5069 C   0  0  0  0  0  0  0  0  0  0  0  0
    7.1745   -5.3094    0.2615 O   0  0  0  0  0  0  0  0  0  0  0  0
    5.2496   -4.1402   -0.5185 C   0  0  0  0  0  0  0  0  0  0  0  0
    5.4162   -4.6822   -1.7426 O   0  0  0  0  0  0  0  0  0  0  0  0
    4.1895   -3.2448   -0.2689 C   0  0  0  0  0  0  0  0  0  0  0  0
   -4.3609    4.4754   -0.8429 H   0  0  0  0  0  0  0  0  0  0  0  0
   -4.0472    2.7302   -1.0012 H   0  0  0  0  0  0  0  0  0  0  0  0
   -3.0487    3.8763   -1.9223 H   0  0  0  0  0  0  0  0  0  0  0  0
   -1.3236    5.4367   -0.7083 H   0  0  0  0  0  0  0  0  0  0  0  0
   -1.1454    5.3199    1.0737 H   0  0  0  0  0  0  0  0  0  0  0  0
   -2.6336    6.0476    0.3779 H   0  0  0  0  0  0  0  0  0  0  0  0
   -1.4922    3.2371    1.8240 H   0  0  0  0  0  0  0  0  0  0  0  0
   -3.5928    1.3707    0.4742 H   0  0  0  0  0  0  0  0  0  0  0  0
   -3.2652    1.4104    2.1718 H   0  0  0  0  0  0  0  0  0  0  0  0
   -3.2395    0.1616   -1.1178 H   0  0  0  0  0  0  0  0  0  0  0  0
    0.5253   -2.8537   -1.2883 H   0  0  0  0  0  0  0  0  0  0  0  0
   -0.3625   -1.6427   -2.2229 H   0  0  0  0  0  0  0  0  0  0  0  0
   -1.5888   -3.8468   -0.3443 H   0  0  0  0  0  0  0  0  0  0  0  0
   -1.9508   -1.7457   -3.5494 H   0  0  0  0  0  0  0  0  0  0  0  0
   -2.7803   -3.1593   -4.2498 H   0  0  0  0  0  0  0  0  0  0  0  0
   -3.7039   -1.9284   -3.3173 H   0  0  0  0  0  0  0  0  0  0  0  0
   -4.6648   -3.7996   -1.7606 H   0  0  0  0  0  0  0  0  0  0  0  0
   -3.7469   -5.0466   -2.6894 H   0  0  0  0  0  0  0  0  0  0  0  0
   -3.5269   -4.8997   -0.9100 H   0  0  0  0  0  0  0  0  0  0  0  0
    3.1539   -0.7623    0.6855 H   0  0  0  0  0  0  0  0  0  0  0  0
    2.6346   -2.1903    3.3822 H   0  0  0  0  0  0  0  0  0  0  0  0
    3.6501   -0.7177    3.0323 H   0  0  0  0  0  0  0  0  0  0  0  0
   -0.1772    1.5464    3.8022 H   0  0  0  0  0  0  0  0  0  0  0  0
    4.8507   -2.6454    3.0328 H   0  0  0  0  0  0  0  0  0  0  0  0
    6.6696   -4.1644    2.5759 H   0  0  0  0  0  0  0  0  0  0  0  0
    7.8189   -5.5382    0.9479 H   0  0  0  0  0  0  0  0  0  0  0  0
    4.8112   -4.4918   -2.4725 H   0  0  0  0  0  0  0  0  0  0  0  0
    3.5098   -2.9845   -1.0708 H   0  0  0  0  0  0  0  0  0  0  0  0
  1 32  1  0  0  0  0
  1 33  1  0  0  0  0
  1 34  1  0  0  0  0
  2  1  1  0  0  0  0
  3  2  1  0  0  0  0
  3 35  1  0  0  0  0
  3 36  1  0  0  0  0
  3 37  1  0  0  0  0
  4  2  2  0  0  0  0
  4 38  1  0  0  0  0
  5  4  1  0  0  0  0
  5 39  1  0  0  0  0
  5 40  1  0  0  0  0
  6  5  1  0  0  0  0
  7  6  2  0  0  0  0
  8  7  1  0  0  0  0
  8 41  1  0  0  0  0
  9  7  1  0  0  0  0
 10  9  1  0  0  0  0
 10 42  1  0  0  0  0
 10 43  1  0  0  0  0
 11 10  1  0  0  0  0
 11 44  1  0  0  0  0
 12 11  2  0  0  0  0
 13 12  1  0  0  0  0
 13 45  1  0  0  0  0
 13 46  1  0  0  0  0
 13 47  1  0  0  0  0
 14 12  1  0  0  0  0
 14 48  1  0  0  0  0
 14 49  1  0  0  0  0
 14 50  1  0  0  0  0
 15  9  2  0  0  0  0
 16 15  1  0  0  0  0
 17 16  1  0  0  0  0
 17 51  1  6  0  0  0
 18 17  1  0  0  0  0
 18 52  1  0  0  0  0
 18 53  1  0  0  0  0
 19 18  1  0  0  0  0
 20 19  2  0  0  0  0
 21 19  1  0  0  0  0
 21 15  1  0  0  0  0
 22 21  2  0  0  0  0
 22  6  1  0  0  0  0
 23 22  1  0  0  0  0
 23 54  1  0  0  0  0
 24 17  1  0  0  0  0
 25 24  2  0  0  0  0
 25 55  1  0  0  0  0
 26 25  1  0  0  0  0
 26 56  1  0  0  0  0
 27 26  2  0  0  0  0
 28 27  1  0  0  0  0
 28 57  1  0  0  0  0
 29 27  1  0  0  0  0
 30 29  1  0  0  0  0
 30 58  1  0  0  0  0
 31 29  2  0  0  0  0
 31 24  1  0  0  0  0
 31 59  1  0  0  0  0
M  END
>  <MOL Chiral Flag>
0

>  <energy>
62.654769552113706

$$$$
> 279_AKC_molecules190913251
>271.sdf
 OpenBabel10062212043D

 55 58  0  0  0  0  0  0  0  0999 V2000
   -5.8512   11.2992   -2.1727 Cl  0  0  0  0  0  0  0  0  0  0  0  0
   -5.1695    9.7064   -1.8926 C   0  0  0  0  0  0  0  0  0  0  0  0
   -4.6623    9.3719   -0.6333 C   0  0  0  0  0  0  0  0  0  0  0  0
   -4.1082    8.1037   -0.4081 C   0  0  0  0  0  0  0  0  0  0  0  0
   -3.4670    7.7150    1.1802 Cl  0  0  0  0  0  0  0  0  0  0  0  0
   -4.0460    7.1629   -1.4514 C   0  0  0  0  0  0  0  0  0  0  0  0
   -3.4805    5.9395   -1.2233 O   0  0  0  0  0  0  0  0  0  0  0  0
   -2.7151    5.2306   -2.1060 C   0  0  0  0  0  0  0  0  0  0  0  0
   -2.5476    3.8352   -1.9310 C   0  0  0  0  0  0  0  0  0  0  0  0
   -3.1718    3.2045   -0.8897 O   0  0  0  0  0  0  0  0  0  0  0  0
   -3.2691    1.8249   -0.7342 C   0  0  0  0  0  0  0  0  0  0  0  0
   -2.0984    1.2491    0.0834 C   0  0  0  0  0  0  0  0  0  0  0  0
   -2.1151   -0.2921    0.0444 C   0  0  0  0  0  0  0  0  0  0  0  0
   -1.0930   -0.9207    1.0080 C   0  0  0  0  0  0  0  0  0  0  0  0
   -0.9987   -2.4422    0.8112 C   0  0  0  0  0  0  0  0  0  0  0  0
   -0.2624   -3.0052    1.8410 O   0  0  0  0  0  0  0  0  0  0  0  0
    0.1356   -4.3062    1.9108 C   0  0  0  0  0  0  0  0  0  0  0  0
    0.4482   -5.0599    0.7597 C   0  0  0  0  0  0  0  0  0  0  0  0
    0.8783   -6.3869    0.8761 C   0  0  0  0  0  0  0  0  0  0  0  0
    0.9866   -6.9880    2.1418 C   0  0  0  0  0  0  0  0  0  0  0  0
    1.4087   -8.3194    2.3049 C   0  0  0  0  0  0  0  0  0  0  0  0
    1.7083   -9.0069    1.3420 O   0  0  0  0  0  0  0  0  0  0  0  0
    1.4822   -8.8576    3.5895 C   0  0  0  0  0  0  0  0  0  0  0  0
    1.1359   -8.0589    4.6816 C   0  0  0  0  0  0  0  0  0  0  0  0
    0.7487   -6.7976    4.5033 O   0  0  0  0  0  0  0  0  0  0  0  0
    0.6635   -6.2402    3.2964 C   0  0  0  0  0  0  0  0  0  0  0  0
    0.2527   -4.9068    3.1729 C   0  0  0  0  0  0  0  0  0  0  0  0
   -1.7418    3.1211   -2.8506 C   0  0  0  0  0  0  0  0  0  0  0  0
   -1.1210    3.7759   -3.9143 C   0  0  0  0  0  0  0  0  0  0  0  0
   -0.1330    2.8690   -5.0447 Cl  0  0  0  0  0  0  0  0  0  0  0  0
   -1.2785    5.1481   -4.0769 C   0  0  0  0  0  0  0  0  0  0  0  0
   -2.0593    5.8733   -3.1815 C   0  0  0  0  0  0  0  0  0  0  0  0
   -4.5818    7.5053   -2.7125 C   0  0  0  0  0  0  0  0  0  0  0  0
   -5.1347    8.7706   -2.9285 C   0  0  0  0  0  0  0  0  0  0  0  0
   -4.6938   10.0994    0.1684 H   0  0  0  0  0  0  0  0  0  0  0  0
   -4.2180    1.5905   -0.2060 H   0  0  0  0  0  0  0  0  0  0  0  0
   -3.3583    1.3313   -1.7249 H   0  0  0  0  0  0  0  0  0  0  0  0
   -1.1270    1.5901   -0.3364 H   0  0  0  0  0  0  0  0  0  0  0  0
   -2.1821    1.6245    1.1265 H   0  0  0  0  0  0  0  0  0  0  0  0
   -1.8996   -0.6093   -1.0001 H   0  0  0  0  0  0  0  0  0  0  0  0
   -3.1224   -0.6695    0.3270 H   0  0  0  0  0  0  0  0  0  0  0  0
   -0.0805   -0.4891    0.8484 H   0  0  0  0  0  0  0  0  0  0  0  0
   -1.4165   -0.6918    2.0468 H   0  0  0  0  0  0  0  0  0  0  0  0
   -0.5324   -2.6261   -0.1792 H   0  0  0  0  0  0  0  0  0  0  0  0
   -2.0137   -2.8962    0.8267 H   0  0  0  0  0  0  0  0  0  0  0  0
    0.3814   -4.6259   -0.2265 H   0  0  0  0  0  0  0  0  0  0  0  0
    1.1255   -6.9419   -0.0210 H   0  0  0  0  0  0  0  0  0  0  0  0
    1.8011   -9.8818    3.7441 H   0  0  0  0  0  0  0  0  0  0  0  0
    1.1844   -8.4680    5.6822 H   0  0  0  0  0  0  0  0  0  0  0  0
    0.0106   -4.3379    4.0623 H   0  0  0  0  0  0  0  0  0  0  0  0
   -1.5850    2.0576   -2.7507 H   0  0  0  0  0  0  0  0  0  0  0  0
   -0.7904    5.6581   -4.8975 H   0  0  0  0  0  0  0  0  0  0  0  0
   -2.1431    6.9408   -3.3286 H   0  0  0  0  0  0  0  0  0  0  0  0
   -4.5699    6.7941   -3.5279 H   0  0  0  0  0  0  0  0  0  0  0  0
   -5.5332    9.0243   -3.9031 H   0  0  0  0  0  0  0  0  0  0  0  0
  2  1  1  0  0  0  0
  3  2  2  0  0  0  0
  3 35  1  0  0  0  0
  4  3  1  0  0  0  0
  5  4  1  0  0  0  0
  6  4  2  0  0  0  0
  7  6  1  0  0  0  0
  8  7  1  0  0  0  0
  9  8  2  0  0  0  0
 10  9  1  0  0  0  0
 11 10  1  0  0  0  0
 11 36  1  0  0  0  0
 11 37  1  0  0  0  0
 12 11  1  0  0  0  0
 12 38  1  0  0  0  0
 12 39  1  0  0  0  0
 13 12  1  0  0  0  0
 13 40  1  0  0  0  0
 13 41  1  0  0  0  0
 14 13  1  0  0  0  0
 14 42  1  0  0  0  0
 14 43  1  0  0  0  0
 15 14  1  0  0  0  0
 15 44  1  0  0  0  0
 15 45  1  0  0  0  0
 16 15  1  0  0  0  0
 17 16  1  0  0  0  0
 18 17  2  0  0  0  0
 18 46  1  0  0  0  0
 19 18  1  0  0  0  0
 19 47  1  0  0  0  0
 20 19  2  0  0  0  0
 21 20  1  0  0  0  0
 22 21  2  0  0  0  0
 23 21  1  0  0  0  0
 23 48  1  0  0  0  0
 24 23  2  0  0  0  0
 24 49  1  0  0  0  0
 25 24  1  0  0  0  0
 26 25  1  0  0  0  0
 26 20  1  0  0  0  0
 27 26  2  0  0  0  0
 27 17  1  0  0  0  0
 27 50  1  0  0  0  0
 28  9  1  0  0  0  0
 28 51  1  0  0  0  0
 29 28  2  0  0  0  0
 30 29  1  0  0  0  0
 31 29  1  0  0  0  0
 31 52  1  0  0  0  0
 32 31  2  0  0  0  0
 32  8  1  0  0  0  0
 32 53  1  0  0  0  0
 33  6  1  0  0  0  0
 33 54  1  0  0  0  0
 34 33  2  0  0  0  0
 34  2  1  0  0  0  0
 34 55  1  0  0  0  0
M  END
>  <MOL Chiral Flag>
0

>  <energy>
92.252532995055134

$$$$
> 280_AKC_s00044-017-1846-5
>272.sdf
 OpenBabel10062212053D

 46 49  0  0  0  0  0  0  0  0999 V2000
    7.8585   -2.2191   -4.7604 O   0  0  0  0  0  0  0  0  0  0  0  0
    7.8369   -1.8875   -3.5876 C   0  0  0  0  0  0  0  0  0  0  0  0
    9.0255   -1.5290   -2.9451 C   0  0  0  0  0  0  0  0  0  0  0  0
    8.9862   -1.1502   -1.6022 C   0  0  0  0  0  0  0  0  0  0  0  0
    7.8345   -1.1293   -0.9404 O   0  0  0  0  0  0  0  0  0  0  0  0
    6.6780   -1.4588   -1.5111 C   0  0  0  0  0  0  0  0  0  0  0  0
    5.5071   -1.4029   -0.7616 C   0  0  0  0  0  0  0  0  0  0  0  0
    4.2728   -1.7220   -1.3309 C   0  0  0  0  0  0  0  0  0  0  0  0
    3.1840   -1.6165   -0.5344 O   0  0  0  0  0  0  0  0  0  0  0  0
    1.8469   -1.7328   -0.8521 C   0  0  0  0  0  0  0  0  0  0  0  0
    1.1014   -1.4829    0.4610 C   0  0  0  0  0  0  0  0  0  0  0  0
   -0.4277   -1.5225    0.3834 C   0  0  0  0  0  0  0  0  0  0  0  0
   -0.9964   -1.3400    1.8037 C   0  0  0  0  0  0  0  0  0  0  0  0
   -2.3647   -1.5251    1.8321 O   0  0  0  0  0  0  0  0  0  0  0  0
   -3.3690   -0.7274    1.3741 C   0  0  0  0  0  0  0  0  0  0  0  0
   -3.2536    0.6754    1.1604 C   0  0  0  0  0  0  0  0  0  0  0  0
   -2.0946    1.3437    1.4167 N   0  0  0  0  0  0  0  0  0  0  0  0
   -1.9806    2.6886    1.2402 C   0  0  0  0  0  0  0  0  0  0  0  0
   -3.0673    3.4318    0.7778 C   0  0  0  0  0  0  0  0  0  0  0  0
   -4.2707    2.7867    0.5019 C   0  0  0  0  0  0  0  0  0  0  0  0
   -4.3791    1.4040    0.6956 C   0  0  0  0  0  0  0  0  0  0  0  0
   -5.5889    0.7459    0.4441 C   0  0  0  0  0  0  0  0  0  0  0  0
   -5.6958   -0.6246    0.6645 C   0  0  0  0  0  0  0  0  0  0  0  0
   -4.5998   -1.3493    1.1298 C   0  0  0  0  0  0  0  0  0  0  0  0
    4.2113   -2.1226   -2.6798 C   0  0  0  0  0  0  0  0  0  0  0  0
    5.3887   -2.1913   -3.4442 C   0  0  0  0  0  0  0  0  0  0  0  0
    6.6303   -1.8532   -2.8648 C   0  0  0  0  0  0  0  0  0  0  0  0
    9.9696   -1.5408   -3.4759 H   0  0  0  0  0  0  0  0  0  0  0  0
    9.8982   -0.8684   -1.0925 H   0  0  0  0  0  0  0  0  0  0  0  0
    5.5509   -1.0957    0.2760 H   0  0  0  0  0  0  0  0  0  0  0  0
    1.5658   -0.9676   -1.6082 H   0  0  0  0  0  0  0  0  0  0  0  0
    1.6228   -2.7500   -1.2436 H   0  0  0  0  0  0  0  0  0  0  0  0
    1.4408   -2.2615    1.1807 H   0  0  0  0  0  0  0  0  0  0  0  0
    1.4045   -0.4862    0.8510 H   0  0  0  0  0  0  0  0  0  0  0  0
   -0.8054   -0.7255   -0.2931 H   0  0  0  0  0  0  0  0  0  0  0  0
   -0.7491   -2.5117   -0.0100 H   0  0  0  0  0  0  0  0  0  0  0  0
   -0.6909   -0.3831    2.2712 H   0  0  0  0  0  0  0  0  0  0  0  0
   -0.5602   -2.1392    2.4403 H   0  0  0  0  0  0  0  0  0  0  0  0
   -1.0448    3.1839    1.4624 H   0  0  0  0  0  0  0  0  0  0  0  0
   -2.9788    4.5018    0.6378 H   0  0  0  0  0  0  0  0  0  0  0  0
   -5.1171    3.3636    0.1473 H   0  0  0  0  0  0  0  0  0  0  0  0
   -6.4521    1.2949    0.0874 H   0  0  0  0  0  0  0  0  0  0  0  0
   -6.6339   -1.1303    0.4776 H   0  0  0  0  0  0  0  0  0  0  0  0
   -4.7027   -2.4139    1.2999 H   0  0  0  0  0  0  0  0  0  0  0  0
    3.2654   -2.3788   -3.1392 H   0  0  0  0  0  0  0  0  0  0  0  0
    5.3306   -2.4992   -4.4813 H   0  0  0  0  0  0  0  0  0  0  0  0
  2  1  2  0  0  0  0
  3  2  1  0  0  0  0
  3 28  1  0  0  0  0
  4  3  2  0  0  0  0
  4 29  1  0  0  0  0
  5  4  1  0  0  0  0
  6  5  1  0  0  0  0
  7  6  2  0  0  0  0
  7 30  1  0  0  0  0
  8  7  1  0  0  0  0
  9  8  1  0  0  0  0
 10  9  1  0  0  0  0
 10 31  1  0  0  0  0
 10 32  1  0  0  0  0
 11 10  1  0  0  0  0
 11 33  1  0  0  0  0
 11 34  1  0  0  0  0
 12 11  1  0  0  0  0
 12 35  1  0  0  0  0
 12 36  1  0  0  0  0
 13 12  1  0  0  0  0
 13 37  1  0  0  0  0
 13 38  1  0  0  0  0
 14 13  1  0  0  0  0
 15 14  1  0  0  0  0
 16 15  2  0  0  0  0
 17 16  1  0  0  0  0
 18 17  2  0  0  0  0
 18 39  1  0  0  0  0
 19 18  1  0  0  0  0
 19 40  1  0  0  0  0
 20 19  2  0  0  0  0
 20 41  1  0  0  0  0
 21 20  1  0  0  0  0
 21 16  1  0  0  0  0
 22 21  2  0  0  0  0
 22 42  1  0  0  0  0
 23 22  1  0  0  0  0
 23 43  1  0  0  0  0
 24 23  2  0  0  0  0
 24 15  1  0  0  0  0
 24 44  1  0  0  0  0
 25  8  2  0  0  0  0
 25 45  1  0  0  0  0
 26 25  1  0  0  0  0
 26 46  1  0  0  0  0
 27 26  2  0  0  0  0
 27  2  1  0  0  0  0
 27  6  1  0  0  0  0
M  END
>  <MOL Chiral Flag>
0

>  <energy>
99.502389078964612

$$$$
> 281_AKC_j.ijantimicag.2016.09.018
>273.sdf
 OpenBabel10062212063D

 57 59  0  0  0  0  0  0  0  0999 V2000
   -3.8710   -5.8771   -4.4400 C   0  0  0  0  0  0  0  0  0  0  0  0
   -5.1206   -5.5082   -3.6888 C   0  0  0  0  0  0  0  0  0  0  0  0
   -6.2045   -5.8180   -4.1570 O   0  0  0  0  0  0  0  0  0  0  0  0
   -5.0504   -4.8000   -2.3906 C   0  0  0  0  0  0  0  0  0  0  0  0
   -6.1065   -4.4351   -1.5192 C   0  0  0  0  0  0  0  0  0  0  0  0
   -7.5550   -4.6991   -1.7894 C   0  0  0  0  0  0  0  0  0  0  0  0
   -5.7035   -3.8033   -0.3596 N   0  0  0  0  0  0  0  0  0  0  0  0
   -4.3564   -3.6518   -0.3086 C   0  0  0  0  0  0  0  0  0  0  0  0
   -3.6735   -3.0480    0.7636 N   0  0  0  0  0  0  0  0  0  0  0  0
   -2.3258   -2.7752    0.6634 N   0  0  0  0  0  0  0  0  0  0  0  0
   -1.6911   -2.2906    1.6675 C   0  0  0  0  0  0  0  0  0  0  0  0
   -0.2836   -1.8124    1.5851 C   0  0  0  0  0  0  0  0  0  0  0  0
    0.5347   -1.9203    0.4275 C   0  0  0  0  0  0  0  0  0  0  0  0
   -0.0003   -2.5865   -0.6207 O   0  0  0  0  0  0  0  0  0  0  0  0
    1.8625   -1.3212    0.4347 C   0  0  0  0  0  0  0  0  0  0  0  0
    2.2745   -0.6815    1.6425 C   0  0  0  0  0  0  0  0  0  0  0  0
    1.4512   -0.6194    2.7750 C   0  0  0  0  0  0  0  0  0  0  0  0
    1.8207    0.0552    4.0494 C   0  0  0  0  0  0  0  0  0  0  0  0
    2.9228    0.7947    4.2620 C   0  0  0  0  0  0  0  0  0  0  0  0
    3.1419    1.4381    5.5877 C   0  0  0  0  0  0  0  0  0  0  0  0
    2.3494    1.2419    6.4984 O   0  0  0  0  0  0  0  0  0  0  0  0
    4.2862    2.3283    5.8405 C   0  0  0  0  0  0  0  0  0  0  0  0
    5.2684    2.7131    4.9485 C   0  0  0  0  0  0  0  0  0  0  0  0
    6.1032    3.5538    5.6506 C   0  0  0  0  0  0  0  0  0  0  0  0
    5.5861    3.6353    6.9269 C   0  0  0  0  0  0  0  0  0  0  0  0
    4.5049    2.8957    7.0055 O   0  0  0  0  0  0  0  0  0  0  0  0
    0.1934   -1.1853    2.7243 C   0  0  0  0  0  0  0  0  0  0  0  0
    2.8944   -1.2470   -0.7542 C   0  0  0  0  0  0  0  0  0  0  0  0
    2.4925   -1.8820   -2.1029 C   0  0  0  0  0  0  0  0  0  0  0  0
    4.2206   -1.9307   -0.3370 C   0  0  0  0  0  0  0  0  0  0  0  0
    3.1702    0.2482   -1.0703 C   0  0  0  0  0  0  0  0  0  0  0  0
   -3.6608   -4.2829   -1.6558 S   0  0  0  0  0  0  0  0  0  0  0  0
   -3.8274   -6.9794   -4.5596 H   0  0  0  0  0  0  0  0  0  0  0  0
   -3.8798   -5.3973   -5.4395 H   0  0  0  0  0  0  0  0  0  0  0  0
   -2.9479   -5.5588   -3.9144 H   0  0  0  0  0  0  0  0  0  0  0  0
   -7.8638   -4.1848   -2.7235 H   0  0  0  0  0  0  0  0  0  0  0  0
   -8.1793   -4.3143   -0.9547 H   0  0  0  0  0  0  0  0  0  0  0  0
   -7.7295   -5.7902   -1.8880 H   0  0  0  0  0  0  0  0  0  0  0  0
   -4.2099   -2.7446    1.5911 H   0  0  0  0  0  0  0  0  0  0  0  0
   -2.2293   -2.1326    2.5999 H   0  0  0  0  0  0  0  0  0  0  0  0
    0.4317   -2.9001   -1.4101 H   0  0  0  0  0  0  0  0  0  0  0  0
    3.2457   -0.2231    1.6956 H   0  0  0  0  0  0  0  0  0  0  0  0
    1.1119   -0.0435    4.8679 H   0  0  0  0  0  0  0  0  0  0  0  0
    3.6463    0.9479    3.4737 H   0  0  0  0  0  0  0  0  0  0  0  0
    5.3720    2.4269    3.9112 H   0  0  0  0  0  0  0  0  0  0  0  0
    6.9864    4.0525    5.2769 H   0  0  0  0  0  0  0  0  0  0  0  0
    5.9908    4.2124    7.7470 H   0  0  0  0  0  0  0  0  0  0  0  0
   -0.4500   -1.1137    3.5950 H   0  0  0  0  0  0  0  0  0  0  0  0
    1.5634   -1.4220   -2.5033 H   0  0  0  0  0  0  0  0  0  0  0  0
    2.4205   -2.9872   -2.0273 H   0  0  0  0  0  0  0  0  0  0  0  0
    3.2780   -1.7003   -2.8707 H   0  0  0  0  0  0  0  0  0  0  0  0
    4.6731   -1.4734    0.5648 H   0  0  0  0  0  0  0  0  0  0  0  0
    4.0486   -3.0084   -0.1283 H   0  0  0  0  0  0  0  0  0  0  0  0
    4.9799   -1.8520   -1.1467 H   0  0  0  0  0  0  0  0  0  0  0  0
    3.9160    0.3559   -1.8885 H   0  0  0  0  0  0  0  0  0  0  0  0
    2.2327    0.7533   -1.3891 H   0  0  0  0  0  0  0  0  0  0  0  0
    3.5809    0.8057   -0.2056 H   0  0  0  0  0  0  0  0  0  0  0  0
  1 33  1  0  0  0  0
  1 34  1  0  0  0  0
  1 35  1  0  0  0  0
  2  1  1  0  0  0  0
  3  2  2  0  0  0  0
  4  2  1  0  0  0  0
  5  4  2  0  0  0  0
  6  5  1  0  0  0  0
  6 36  1  0  0  0  0
  6 37  1  0  0  0  0
  6 38  1  0  0  0  0
  7  5  1  0  0  0  0
  8  7  2  0  0  0  0
  9  8  1  0  0  0  0
  9 39  1  0  0  0  0
 10  9  1  0  0  0  0
 11 10  2  0  0  0  0
 11 40  1  0  0  0  0
 12 11  1  0  0  0  0
 13 12  2  0  0  0  0
 14 13  1  0  0  0  0
 14 41  1  0  0  0  0
 15 13  1  0  0  0  0
 16 15  2  0  0  0  0
 16 42  1  0  0  0  0
 17 16  1  0  0  0  0
 18 17  1  0  0  0  0
 18 43  1  0  0  0  0
 19 18  2  0  0  0  0
 19 44  1  0  0  0  0
 20 19  1  0  0  0  0
 21 20  2  0  0  0  0
 22 20  1  0  0  0  0
 23 22  2  0  0  0  0
 23 45  1  0  0  0  0
 24 23  1  0  0  0  0
 24 46  1  0  0  0  0
 25 24  2  0  0  0  0
 25 47  1  0  0  0  0
 26 25  1  0  0  0  0
 26 22  1  0  0  0  0
 27 17  2  0  0  0  0
 27 12  1  0  0  0  0
 27 48  1  0  0  0  0
 28 15  1  0  0  0  0
 29 28  1  0  0  0  0
 29 49  1  0  0  0  0
 29 50  1  0  0  0  0
 29 51  1  0  0  0  0
 30 28  1  0  0  0  0
 30 52  1  0  0  0  0
 30 53  1  0  0  0  0
 30 54  1  0  0  0  0
 31 28  1  0  0  0  0
 31 55  1  0  0  0  0
 31 56  1  0  0  0  0
 31 57  1  0  0  0  0
 32  8  1  0  0  0  0
 32  4  1  0  0  0  0
M  END
>  <MOL Chiral Flag>
0

>  <energy>
132.94334166683706

$$$$
> 282_AKC_jm401893j
>274.sdf
 OpenBabel10062212063D

 53 55  0  0  0  0  0  0  0  0999 V2000
   -6.6987    3.3479   -0.2143 C   0  0  0  0  0  0  0  0  0  0  0  0
   -5.2646    2.8860   -0.2098 C   0  0  0  0  0  0  0  0  0  0  0  0
   -4.2359    3.9206    0.2088 C   0  0  0  0  0  0  0  0  0  0  0  0
   -4.9808    1.6004   -0.5642 C   0  0  0  0  0  0  0  0  0  0  0  0
   -3.6028    0.9767   -0.5921 C   0  0  0  0  0  0  0  0  0  0  0  0
   -3.5365   -0.2131    0.3843 C   0  0  0  0  0  0  0  0  0  0  0  0
   -2.0985   -0.7336    0.6359 C   0  0  2  0  0  0  0  0  0  0  0  0
   -1.2762    0.3315    1.4148 C   0  0  0  0  0  0  0  0  0  0  0  0
   -1.4427   -1.0124   -0.5608 O   0  0  0  0  0  0  0  0  0  0  0  0
   -0.2468   -1.6588   -0.5477 C   0  0  0  0  0  0  0  0  0  0  0  0
    0.0311   -2.5568    0.4914 C   0  0  0  0  0  0  0  0  0  0  0  0
   -1.0508   -2.8033    1.4830 C   0  0  0  0  0  0  0  0  0  0  0  0
   -2.1159   -1.9811    1.5078 C   0  0  0  0  0  0  0  0  0  0  0  0
    1.2791   -3.2019    0.5706 C   0  0  0  0  0  0  0  0  0  0  0  0
    1.4647   -4.0544    1.6084 O   0  0  0  0  0  0  0  0  0  0  0  0
    2.2892   -2.9135   -0.4165 C   0  0  0  0  0  0  0  0  0  0  0  0
    1.9456   -2.0298   -1.4738 C   0  0  0  0  0  0  0  0  0  0  0  0
    0.6925   -1.4230   -1.5379 C   0  0  0  0  0  0  0  0  0  0  0  0
    3.7040   -3.4551   -0.3299 C   0  0  0  0  0  0  0  0  0  0  0  0
    4.0524   -4.0727    0.6621 O   0  0  0  0  0  0  0  0  0  0  0  0
    4.7491   -3.1712   -1.3657 C   0  0  0  0  0  0  0  0  0  0  0  0
    6.0544   -3.4112   -1.1130 C   0  0  0  0  0  0  0  0  0  0  0  0
    7.1695   -3.1227   -2.0598 C   0  0  0  0  0  0  0  0  0  0  0  0
    8.4877   -3.2412   -1.5915 C   0  0  0  0  0  0  0  0  0  0  0  0
    9.5622   -2.9689   -2.4370 C   0  0  0  0  0  0  0  0  0  0  0  0
    9.3166   -2.5857   -3.7540 C   0  0  0  0  0  0  0  0  0  0  0  0
    8.0391   -2.4773   -4.2046 N   0  0  0  0  0  0  0  0  0  0  0  0
    6.9706   -2.7301   -3.4003 C   0  0  0  0  0  0  0  0  0  0  0  0
   -6.9780    3.6844    0.8068 H   0  0  0  0  0  0  0  0  0  0  0  0
   -6.8100    4.2019   -0.9149 H   0  0  0  0  0  0  0  0  0  0  0  0
   -7.4064    2.5491   -0.5209 H   0  0  0  0  0  0  0  0  0  0  0  0
   -4.4741    4.2717    1.2344 H   0  0  0  0  0  0  0  0  0  0  0  0
   -4.2970    4.7878   -0.4814 H   0  0  0  0  0  0  0  0  0  0  0  0
   -3.1808    3.6101    0.2257 H   0  0  0  0  0  0  0  0  0  0  0  0
   -5.8039    0.9473   -0.8424 H   0  0  0  0  0  0  0  0  0  0  0  0
   -3.3698    0.6255   -1.6200 H   0  0  0  0  0  0  0  0  0  0  0  0
   -2.8335    1.7033   -0.3391 H   0  0  0  0  0  0  0  0  0  0  0  0
   -3.9595    0.0904    1.3688 H   0  0  0  0  0  0  0  0  0  0  0  0
   -4.1781   -1.0266   -0.0222 H   0  0  0  0  0  0  0  0  0  0  0  0
   -1.7798    0.5925    2.3703 H   0  0  0  0  0  0  0  0  0  0  0  0
   -1.1186    1.2574    0.8305 H   0  0  0  0  0  0  0  0  0  0  0  0
   -0.2610   -0.0439    1.6642 H   0  0  0  0  0  0  0  0  0  0  0  0
   -0.9980   -3.6412    2.1714 H   0  0  0  0  0  0  0  0  0  0  0  0
   -2.9240   -2.1563    2.2125 H   0  0  0  0  0  0  0  0  0  0  0  0
    2.2254   -4.6176    1.7666 H   0  0  0  0  0  0  0  0  0  0  0  0
    2.6435   -1.7657   -2.2469 H   0  0  0  0  0  0  0  0  0  0  0  0
    0.4674   -0.7340   -2.3426 H   0  0  0  0  0  0  0  0  0  0  0  0
    4.4689   -2.7402   -2.3091 H   0  0  0  0  0  0  0  0  0  0  0  0
    6.3305   -3.8073   -0.1394 H   0  0  0  0  0  0  0  0  0  0  0  0
    8.6826   -3.5344   -0.5668 H   0  0  0  0  0  0  0  0  0  0  0  0
   10.5779   -3.0528   -2.0724 H   0  0  0  0  0  0  0  0  0  0  0  0
   10.1429   -2.3733   -4.4191 H   0  0  0  0  0  0  0  0  0  0  0  0
    5.9819   -2.6316   -3.8186 H   0  0  0  0  0  0  0  0  0  0  0  0
  1 29  1  0  0  0  0
  1 30  1  0  0  0  0
  1 31  1  0  0  0  0
  2  1  1  0  0  0  0
  3  2  1  0  0  0  0
  3 32  1  0  0  0  0
  3 33  1  0  0  0  0
  3 34  1  0  0  0  0
  4  2  2  0  0  0  0
  4 35  1  0  0  0  0
  5  4  1  0  0  0  0
  5 36  1  0  0  0  0
  5 37  1  0  0  0  0
  6  5  1  0  0  0  0
  6 38  1  0  0  0  0
  6 39  1  0  0  0  0
  7  6  1  6  0  0  0
  8  7  1  0  0  0  0
  8 40  1  0  0  0  0
  8 41  1  0  0  0  0
  8 42  1  0  0  0  0
  9  7  1  0  0  0  0
 10  9  1  0  0  0  0
 11 10  2  0  0  0  0
 12 11  1  0  0  0  0
 12 43  1  0  0  0  0
 13 12  2  0  0  0  0
 13  7  1  0  0  0  0
 13 44  1  0  0  0  0
 14 11  1  0  0  0  0
 15 14  1  0  0  0  0
 15 45  1  0  0  0  0
 16 14  2  0  0  0  0
 17 16  1  0  0  0  0
 17 46  1  0  0  0  0
 18 17  2  0  0  0  0
 18 10  1  0  0  0  0
 18 47  1  0  0  0  0
 19 16  1  0  0  0  0
 20 19  2  0  0  0  0
 21 19  1  0  0  0  0
 21 48  1  0  0  0  0
 22 21  2  0  0  0  0
 22 49  1  0  0  0  0
 23 22  1  0  0  0  0
 24 23  2  0  0  0  0
 24 50  1  0  0  0  0
 25 24  1  0  0  0  0
 25 51  1  0  0  0  0
 26 25  2  0  0  0  0
 26 52  1  0  0  0  0
 27 26  1  0  0  0  0
 28 27  2  0  0  0  0
 28 23  1  0  0  0  0
 28 53  1  0  0  0  0
M  END
>  <MOL Chiral Flag>
0

>  <energy>
134.79972523501263

$$$$
> 283_AKC_jm401893j
>274_2.sdf
 OpenBabel10102214093D

 53 55  0  0  0  0  0  0  0  0999 V2000
   -6.4765    2.8718   -0.3534 C   0  0  0  0  0  0  0  0  0  0  0  0
   -5.0768    2.3240   -0.1493 C   0  0  0  0  0  0  0  0  0  0  0  0
   -4.0371    3.3079    0.3176 C   0  0  0  0  0  0  0  0  0  0  0  0
   -4.8405    1.0084   -0.4141 C   0  0  0  0  0  0  0  0  0  0  0  0
   -3.5425    0.1917   -0.2793 C   0  0  0  0  0  0  0  0  0  0  0  0
   -3.8451   -1.1269    0.5031 C   0  0  0  0  0  0  0  0  0  0  0  0
   -2.9339   -2.4157    0.3026 C   0  0  1  0  0  0  0  0  0  0  0  0
   -3.8731   -3.5767   -0.1277 C   0  0  0  0  0  0  0  0  0  0  0  0
   -1.9566   -2.2015   -0.6865 O   0  0  0  0  0  0  0  0  0  0  0  0
   -0.6171   -2.4766   -0.5695 C   0  0  0  0  0  0  0  0  0  0  0  0
   -0.1210   -3.0968    0.5798 C   0  0  0  0  0  0  0  0  0  0  0  0
   -1.0553   -3.3253    1.6959 C   0  0  0  0  0  0  0  0  0  0  0  0
   -2.3406   -2.9593    1.6014 C   0  0  0  0  0  0  0  0  0  0  0  0
    1.2440   -3.4608    0.6832 C   0  0  0  0  0  0  0  0  0  0  0  0
    1.6094   -4.1457    1.7986 O   0  0  0  0  0  0  0  0  0  0  0  0
    2.1709   -3.1133   -0.3646 C   0  0  0  0  0  0  0  0  0  0  0  0
    1.6419   -2.4417   -1.4960 C   0  0  0  0  0  0  0  0  0  0  0  0
    0.2694   -2.1505   -1.5996 C   0  0  0  0  0  0  0  0  0  0  0  0
    3.6720   -3.3983   -0.2697 C   0  0  0  0  0  0  0  0  0  0  0  0
    4.1141   -3.8767    0.7627 O   0  0  0  0  0  0  0  0  0  0  0  0
    4.6801   -3.0857   -1.3488 C   0  0  0  0  0  0  0  0  0  0  0  0
    6.0029   -3.3382   -1.1427 C   0  0  0  0  0  0  0  0  0  0  0  0
    7.1179   -3.0774   -2.1074 C   0  0  0  0  0  0  0  0  0  0  0  0
    8.4383   -3.3450   -1.6958 C   0  0  0  0  0  0  0  0  0  0  0  0
    9.5100   -3.1121   -2.5591 C   0  0  0  0  0  0  0  0  0  0  0  0
    9.2620   -2.6148   -3.8360 C   0  0  0  0  0  0  0  0  0  0  0  0
    7.9856   -2.3613   -4.2310 N   0  0  0  0  0  0  0  0  0  0  0  0
    6.9198   -2.5765   -3.4091 C   0  0  0  0  0  0  0  0  0  0  0  0
   -6.8610    3.2880    0.6023 H   0  0  0  0  0  0  0  0  0  0  0  0
   -6.4648    3.6838   -1.1112 H   0  0  0  0  0  0  0  0  0  0  0  0
   -7.1992    2.0997   -0.6963 H   0  0  0  0  0  0  0  0  0  0  0  0
   -4.3515    3.7428    1.2904 H   0  0  0  0  0  0  0  0  0  0  0  0
   -3.9849    4.1397   -0.4209 H   0  0  0  0  0  0  0  0  0  0  0  0
   -3.0252    2.8831    0.4226 H   0  0  0  0  0  0  0  0  0  0  0  0
   -5.6860    0.4419   -0.7946 H   0  0  0  0  0  0  0  0  0  0  0  0
   -3.2742   -0.0861   -1.3199 H   0  0  0  0  0  0  0  0  0  0  0  0
   -2.6843    0.7379    0.1597 H   0  0  0  0  0  0  0  0  0  0  0  0
   -4.0685   -0.9325    1.5735 H   0  0  0  0  0  0  0  0  0  0  0  0
   -4.8378   -1.4146    0.0943 H   0  0  0  0  0  0  0  0  0  0  0  0
   -3.3341   -4.5455   -0.2072 H   0  0  0  0  0  0  0  0  0  0  0  0
   -4.6765   -3.7134    0.6384 H   0  0  0  0  0  0  0  0  0  0  0  0
   -4.3697   -3.3679   -1.0969 H   0  0  0  0  0  0  0  0  0  0  0  0
   -0.7028   -3.7774    2.6192 H   0  0  0  0  0  0  0  0  0  0  0  0
   -2.9968   -3.1530    2.4459 H   0  0  0  0  0  0  0  0  0  0  0  0
    2.4283   -4.6273    1.9367 H   0  0  0  0  0  0  0  0  0  0  0  0
    2.2799   -2.1348   -2.3082 H   0  0  0  0  0  0  0  0  0  0  0  0
   -0.1022   -1.6484   -2.4845 H   0  0  0  0  0  0  0  0  0  0  0  0
    4.3592   -2.6552   -2.2839 H   0  0  0  0  0  0  0  0  0  0  0  0
    6.3020   -3.7641   -0.1883 H   0  0  0  0  0  0  0  0  0  0  0  0
    8.6398   -3.7308   -0.7034 H   0  0  0  0  0  0  0  0  0  0  0  0
   10.5259   -3.3148   -2.2399 H   0  0  0  0  0  0  0  0  0  0  0  0
   10.0860   -2.4299   -4.5142 H   0  0  0  0  0  0  0  0  0  0  0  0
    5.9316   -2.3588   -3.7795 H   0  0  0  0  0  0  0  0  0  0  0  0
  1 29  1  0  0  0  0
  1 30  1  0  0  0  0
  1 31  1  0  0  0  0
  2  1  1  0  0  0  0
  3  2  1  0  0  0  0
  3 32  1  0  0  0  0
  3 33  1  0  0  0  0
  3 34  1  0  0  0  0
  4  2  2  0  0  0  0
  4 35  1  0  0  0  0
  5  4  1  0  0  0  0
  5 36  1  0  0  0  0
  5 37  1  0  0  0  0
  6  5  1  0  0  0  0
  6 38  1  0  0  0  0
  6 39  1  0  0  0  0
  7  6  1  1  0  0  0
  8  7  1  0  0  0  0
  8 40  1  0  0  0  0
  8 41  1  0  0  0  0
  8 42  1  0  0  0  0
  9  7  1  0  0  0  0
 10  9  1  0  0  0  0
 11 10  2  0  0  0  0
 12 11  1  0  0  0  0
 12 43  1  0  0  0  0
 13 12  2  0  0  0  0
 13  7  1  0  0  0  0
 13 44  1  0  0  0  0
 14 11  1  0  0  0  0
 15 14  1  0  0  0  0
 15 45  1  0  0  0  0
 16 14  2  0  0  0  0
 17 16  1  0  0  0  0
 17 46  1  0  0  0  0
 18 17  2  0  0  0  0
 18 10  1  0  0  0  0
 18 47  1  0  0  0  0
 19 16  1  0  0  0  0
 20 19  2  0  0  0  0
 21 19  1  0  0  0  0
 21 48  1  0  0  0  0
 22 21  2  0  0  0  0
 22 49  1  0  0  0  0
 23 22  1  0  0  0  0
 24 23  2  0  0  0  0
 24 50  1  0  0  0  0
 25 24  1  0  0  0  0
 25 51  1  0  0  0  0
 26 25  2  0  0  0  0
 26 52  1  0  0  0  0
 27 26  1  0  0  0  0
 28 27  2  0  0  0  0
 28 23  1  0  0  0  0
 28 53  1  0  0  0  0
M  END
>  <MOL Chiral Flag>
0

>  <energy>
134.79972523501263

$$$$
> 284_AKC_j.bmcl.2013.09.047
>275.sdf
 OpenBabel10062212063D

 38 40  0  0  0  0  0  0  0  0999 V2000
    7.7634   -0.7486   -0.7574 C   0  0  0  0  0  0  0  0  0  0  0  0
    6.3711   -0.4250   -0.3023 C   0  0  0  0  0  0  0  0  0  0  0  0
    6.1689    0.2347    0.9167 C   0  0  0  0  0  0  0  0  0  0  0  0
    4.8747    0.5484    1.3439 C   0  0  0  0  0  0  0  0  0  0  0  0
    3.7585    0.1999    0.5638 C   0  0  0  0  0  0  0  0  0  0  0  0
    2.3983    0.5701    1.0599 C   0  0  0  0  0  0  0  0  0  0  0  0
    1.2530    0.1806    0.4652 C   0  0  0  0  0  0  0  0  0  0  0  0
   -0.0872    0.6110    0.9523 C   0  0  0  0  0  0  0  0  0  0  0  0
   -0.1553    1.4620    1.8266 O   0  0  0  0  0  0  0  0  0  0  0  0
   -1.3461    0.0463    0.3469 C   0  0  0  0  0  0  0  0  0  0  0  0
   -2.5312    0.8276    0.2039 C   0  0  0  0  0  0  0  0  0  0  0  0
   -2.5849    2.1332    0.5656 O   0  0  0  0  0  0  0  0  0  0  0  0
   -3.6806    0.2501   -0.3730 C   0  0  0  0  0  0  0  0  0  0  0  0
   -3.6510   -1.0973   -0.7914 C   0  0  0  0  0  0  0  0  0  0  0  0
   -2.5201   -1.8333   -0.6387 N   0  0  0  0  0  0  0  0  0  0  0  0
   -1.3800   -1.3048   -0.0906 C   0  0  0  0  0  0  0  0  0  0  0  0
   -0.4074   -2.0272    0.0450 O   0  0  0  0  0  0  0  0  0  0  0  0
   -4.7922   -1.6757   -1.3709 C   0  0  0  0  0  0  0  0  0  0  0  0
   -5.9533   -0.9212   -1.5435 C   0  0  0  0  0  0  0  0  0  0  0  0
   -5.9872    0.4134   -1.1382 C   0  0  0  0  0  0  0  0  0  0  0  0
   -4.8611    1.0000   -0.5543 C   0  0  0  0  0  0  0  0  0  0  0  0
    3.9714   -0.4689   -0.6631 C   0  0  0  0  0  0  0  0  0  0  0  0
    5.2662   -0.7735   -1.0889 C   0  0  0  0  0  0  0  0  0  0  0  0
    7.7624   -1.2618   -1.7430 H   0  0  0  0  0  0  0  0  0  0  0  0
    8.3515    0.1883   -0.8526 H   0  0  0  0  0  0  0  0  0  0  0  0
    8.2536   -1.4140   -0.0164 H   0  0  0  0  0  0  0  0  0  0  0  0
    7.0158    0.5090    1.5337 H   0  0  0  0  0  0  0  0  0  0  0  0
    4.7423    1.0622    2.2883 H   0  0  0  0  0  0  0  0  0  0  0  0
    2.3391    1.1874    1.9529 H   0  0  0  0  0  0  0  0  0  0  0  0
    1.2867   -0.4442   -0.4112 H   0  0  0  0  0  0  0  0  0  0  0  0
   -1.8376    2.6574    0.8710 H   0  0  0  0  0  0  0  0  0  0  0  0
   -2.5116   -2.8343   -0.9445 H   0  0  0  0  0  0  0  0  0  0  0  0
   -4.7780   -2.7098   -1.6931 H   0  0  0  0  0  0  0  0  0  0  0  0
   -6.8276   -1.3716   -1.9953 H   0  0  0  0  0  0  0  0  0  0  0  0
   -6.8884    0.9961   -1.2777 H   0  0  0  0  0  0  0  0  0  0  0  0
   -4.9139    2.0379   -0.2505 H   0  0  0  0  0  0  0  0  0  0  0  0
    3.1563   -0.7500   -1.3094 H   0  0  0  0  0  0  0  0  0  0  0  0
    5.4057   -1.2797   -2.0362 H   0  0  0  0  0  0  0  0  0  0  0  0
  1 24  1  0  0  0  0
  1 25  1  0  0  0  0
  1 26  1  0  0  0  0
  2  1  1  0  0  0  0
  3  2  2  0  0  0  0
  3 27  1  0  0  0  0
  4  3  1  0  0  0  0
  4 28  1  0  0  0  0
  5  4  2  0  0  0  0
  6  5  1  0  0  0  0
  6 29  1  0  0  0  0
  7  6  2  0  0  0  0
  7 30  1  0  0  0  0
  8  7  1  0  0  0  0
  9  8  2  0  0  0  0
 10  8  1  0  0  0  0
 11 10  2  0  0  0  0
 12 11  1  0  0  0  0
 12 31  1  0  0  0  0
 13 11  1  0  0  0  0
 14 13  2  0  0  0  0
 15 14  1  0  0  0  0
 15 32  1  0  0  0  0
 16 15  1  0  0  0  0
 16 10  1  0  0  0  0
 17 16  2  0  0  0  0
 18 14  1  0  0  0  0
 18 33  1  0  0  0  0
 19 18  2  0  0  0  0
 19 34  1  0  0  0  0
 20 19  1  0  0  0  0
 20 35  1  0  0  0  0
 21 20  2  0  0  0  0
 21 13  1  0  0  0  0
 21 36  1  0  0  0  0
 22  5  1  0  0  0  0
 22 37  1  0  0  0  0
 23 22  2  0  0  0  0
 23  2  1  0  0  0  0
 23 38  1  0  0  0  0
M  END
>  <MOL Chiral Flag>
0

>  <energy>
44.943044832552872

$$$$
> 285_AKC_j.ejmech.2016.12.017
>276.sdf
 OpenBabel10062212073D

 41 42  0  0  0  0  0  0  0  0999 V2000
    6.1488   -3.8897    1.1564 C   0  0  0  0  0  0  0  0  0  0  0  0
    6.2551   -3.0331    0.0798 O   0  0  0  0  0  0  0  0  0  0  0  0
    5.2790   -2.1911   -0.3530 C   0  0  0  0  0  0  0  0  0  0  0  0
    5.5580   -1.3501   -1.4340 C   0  0  0  0  0  0  0  0  0  0  0  0
    4.5928   -0.4619   -1.9065 C   0  0  0  0  0  0  0  0  0  0  0  0
    3.3353   -0.3995   -1.3038 C   0  0  0  0  0  0  0  0  0  0  0  0
    3.0246   -1.2402   -0.2127 C   0  0  0  0  0  0  0  0  0  0  0  0
    1.6978   -1.2230    0.4741 C   0  0  0  0  0  0  0  0  0  0  0  0
    0.7222   -0.3284    0.2153 C   0  0  0  0  0  0  0  0  0  0  0  0
   -0.5875   -0.3660    0.9233 C   0  0  0  0  0  0  0  0  0  0  0  0
   -0.8812   -1.3664    1.5639 O   0  0  0  0  0  0  0  0  0  0  0  0
   -1.6102    0.7216    0.7682 C   0  0  0  0  0  0  0  0  0  0  0  0
   -1.2889    2.0864    0.5225 C   0  0  0  0  0  0  0  0  0  0  0  0
   -0.0212    2.5561    0.5074 O   0  0  0  0  0  0  0  0  0  0  0  0
   -2.3137    3.0183    0.3430 C   0  0  0  0  0  0  0  0  0  0  0  0
   -3.6699    2.6470    0.4204 C   0  0  0  0  0  0  0  0  0  0  0  0
   -4.6579    3.5673    0.2503 O   0  0  0  0  0  0  0  0  0  0  0  0
   -4.4747    4.9135    0.0045 C   0  0  0  0  0  0  0  0  0  0  0  0
   -3.9972    1.2947    0.6931 C   0  0  0  0  0  0  0  0  0  0  0  0
   -5.2770    0.8323    0.7916 O   0  0  0  0  0  0  0  0  0  0  0  0
   -6.4441    1.5523    0.6414 C   0  0  0  0  0  0  0  0  0  0  0  0
   -2.9680    0.3623    0.8680 C   0  0  0  0  0  0  0  0  0  0  0  0
    4.0047   -2.1362    0.2527 C   0  0  0  0  0  0  0  0  0  0  0  0
    5.3339   -4.6249    0.9865 H   0  0  0  0  0  0  0  0  0  0  0  0
    5.9596   -3.3138    2.0877 H   0  0  0  0  0  0  0  0  0  0  0  0
    7.1035   -4.4422    1.2735 H   0  0  0  0  0  0  0  0  0  0  0  0
    6.5305   -1.3844   -1.9088 H   0  0  0  0  0  0  0  0  0  0  0  0
    4.8206    0.1840   -2.7449 H   0  0  0  0  0  0  0  0  0  0  0  0
    2.6208    0.3006   -1.7055 H   0  0  0  0  0  0  0  0  0  0  0  0
    1.5242   -1.9710    1.2436 H   0  0  0  0  0  0  0  0  0  0  0  0
    0.8700    0.4346   -0.5318 H   0  0  0  0  0  0  0  0  0  0  0  0
    0.7404    2.0732    0.8455 H   0  0  0  0  0  0  0  0  0  0  0  0
   -2.0378    4.0481    0.1601 H   0  0  0  0  0  0  0  0  0  0  0  0
   -3.9221    5.0603   -0.9480 H   0  0  0  0  0  0  0  0  0  0  0  0
   -5.4663    5.4020   -0.0858 H   0  0  0  0  0  0  0  0  0  0  0  0
   -3.9255    5.3872    0.8461 H   0  0  0  0  0  0  0  0  0  0  0  0
   -7.3067    0.8687    0.7789 H   0  0  0  0  0  0  0  0  0  0  0  0
   -6.5059    1.9808   -0.3816 H   0  0  0  0  0  0  0  0  0  0  0  0
   -6.5110    2.3487    1.4125 H   0  0  0  0  0  0  0  0  0  0  0  0
   -3.2386   -0.6692    1.0613 H   0  0  0  0  0  0  0  0  0  0  0  0
    3.7727   -2.7810    1.0903 H   0  0  0  0  0  0  0  0  0  0  0  0
  1 24  1  0  0  0  0
  1 25  1  0  0  0  0
  1 26  1  0  0  0  0
  2  1  1  0  0  0  0
  3  2  1  0  0  0  0
  4  3  2  0  0  0  0
  4 27  1  0  0  0  0
  5  4  1  0  0  0  0
  5 28  1  0  0  0  0
  6  5  2  0  0  0  0
  6 29  1  0  0  0  0
  7  6  1  0  0  0  0
  8  7  1  0  0  0  0
  8 30  1  0  0  0  0
  9  8  2  0  0  0  0
  9 31  1  0  0  0  0
 10  9  1  0  0  0  0
 11 10  2  0  0  0  0
 12 10  1  0  0  0  0
 13 12  2  0  0  0  0
 14 13  1  0  0  0  0
 14 32  1  0  0  0  0
 15 13  1  0  0  0  0
 15 33  1  0  0  0  0
 16 15  2  0  0  0  0
 17 16  1  0  0  0  0
 18 17  1  0  0  0  0
 18 34  1  0  0  0  0
 18 35  1  0  0  0  0
 18 36  1  0  0  0  0
 19 16  1  0  0  0  0
 20 19  1  0  0  0  0
 21 20  1  0  0  0  0
 21 37  1  0  0  0  0
 21 38  1  0  0  0  0
 21 39  1  0  0  0  0
 22 19  2  0  0  0  0
 22 12  1  0  0  0  0
 22 40  1  0  0  0  0
 23  7  2  0  0  0  0
 23  3  1  0  0  0  0
 23 41  1  0  0  0  0
M  END
>  <MOL Chiral Flag>
0

>  <energy>
90.025803893403662

$$$$
> 286_AKC_j.bmcl.2017.04.010
>277.sdf
 OpenBabel10062212083D

 42 44  0  0  0  0  0  0  0  0999 V2000
   -1.6652   -4.0665    1.3963 O   0  0  0  0  0  0  0  0  0  0  0  0
   -1.4704   -3.1840    0.5713 C   0  0  0  0  0  0  0  0  0  0  0  0
   -2.6441   -2.5974   -0.1453 C   0  0  0  0  0  0  0  0  0  0  0  0
   -3.9077   -2.9729    0.1183 C   0  0  0  0  0  0  0  0  0  0  0  0
   -5.0421   -2.3561   -0.5970 C   0  0  0  0  0  0  0  0  0  0  0  0
   -6.3803   -2.6274   -0.3767 C   0  0  0  0  0  0  0  0  0  0  0  0
   -7.0812   -1.8190   -1.2474 C   0  0  0  0  0  0  0  0  0  0  0  0
   -6.1255   -1.1067   -1.9471 C   0  0  0  0  0  0  0  0  0  0  0  0
   -4.9243   -1.4455   -1.5397 O   0  0  0  0  0  0  0  0  0  0  0  0
   -6.3761   -0.1432   -2.9564 N   0  0  0  0  0  0  0  0  0  0  0  0
   -7.4961    0.1272   -3.2677 O   0  0  0  0  0  0  0  0  0  0  0  0
   -5.4634    0.4045   -3.4970 O   0  0  0  0  0  0  0  0  0  0  0  0
   -0.0624   -2.7193    0.3230 C   0  0  0  0  0  0  0  0  0  0  0  0
    1.0057   -3.3232    1.0072 C   0  0  0  0  0  0  0  0  0  0  0  0
    2.3273   -2.9027    0.8038 C   0  0  0  0  0  0  0  0  0  0  0  0
    2.6338   -1.8489   -0.0983 C   0  0  0  0  0  0  0  0  0  0  0  0
    1.5421   -1.2517   -0.7769 C   0  0  0  0  0  0  0  0  0  0  0  0
    0.2310   -1.6788   -0.5720 C   0  0  0  0  0  0  0  0  0  0  0  0
    4.0003   -1.3706   -0.2989 N   0  0  0  0  0  0  0  0  0  0  0  0
    4.3585   -0.4296   -1.3646 C   0  0  0  0  0  0  0  0  0  0  0  0
    5.5169   -1.0089   -2.1879 C   0  0  0  0  0  0  0  0  0  0  0  0
    6.6553   -1.3349   -1.3160 N   0  3  0  0  0  0  0  0  0  0  0  0
    6.2597   -2.3172   -0.2931 C   0  0  0  0  0  0  0  0  0  0  0  0
    5.1163   -1.7585    0.5674 C   0  0  0  0  0  0  0  0  0  0  0  0
   -2.4945   -1.8391   -0.8985 H   0  0  0  0  0  0  0  0  0  0  0  0
   -4.1132   -3.7269    0.8728 H   0  0  0  0  0  0  0  0  0  0  0  0
   -6.7969   -3.3254    0.3372 H   0  0  0  0  0  0  0  0  0  0  0  0
   -8.1560   -1.7563   -1.3553 H   0  0  0  0  0  0  0  0  0  0  0  0
    0.8198   -4.1273    1.7092 H   0  0  0  0  0  0  0  0  0  0  0  0
    3.0808   -3.4245    1.3633 H   0  0  0  0  0  0  0  0  0  0  0  0
    1.6608   -0.4326   -1.4587 H   0  0  0  0  0  0  0  0  0  0  0  0
   -0.5406   -1.1672   -1.1192 H   0  0  0  0  0  0  0  0  0  0  0  0
    4.6916    0.5249   -0.9029 H   0  0  0  0  0  0  0  0  0  0  0  0
    3.5570   -0.1976   -2.0788 H   0  0  0  0  0  0  0  0  0  0  0  0
    5.8311   -0.2645   -2.9531 H   0  0  0  0  0  0  0  0  0  0  0  0
    5.1755   -1.9246   -2.7215 H   0  0  0  0  0  0  0  0  0  0  0  0
    7.0064   -0.4624   -0.8536 H   0  0  0  0  0  0  0  0  0  0  0  0
    7.4292   -1.7327   -1.8971 H   0  0  0  0  0  0  0  0  0  0  0  0
    7.1326   -2.5477    0.3568 H   0  0  0  0  0  0  0  0  0  0  0  0
    5.9358   -3.2639   -0.7813 H   0  0  0  0  0  0  0  0  0  0  0  0
    5.4890   -0.8502    1.0885 H   0  0  0  0  0  0  0  0  0  0  0  0
    4.8733   -2.4817    1.3573 H   0  0  0  0  0  0  0  0  0  0  0  0
  2  1  2  0  0  0  0
  3  2  1  0  0  0  0
  3 25  1  0  0  0  0
  4  3  2  0  0  0  0
  4 26  1  0  0  0  0
  5  4  1  0  0  0  0
  6  5  2  0  0  0  0
  6 27  1  0  0  0  0
  7  6  1  0  0  0  0
  7 28  1  0  0  0  0
  8  7  2  0  0  0  0
  9  8  1  0  0  0  0
  9  5  1  0  0  0  0
 10  8  1  0  0  0  0
 11 10  2  0  0  0  0
 12 10  2  0  0  0  0
 13  2  1  0  0  0  0
 14 13  2  0  0  0  0
 14 29  1  0  0  0  0
 15 14  1  0  0  0  0
 15 30  1  0  0  0  0
 16 15  2  0  0  0  0
 17 16  1  0  0  0  0
 17 31  1  0  0  0  0
 18 17  2  0  0  0  0
 18 13  1  0  0  0  0
 18 32  1  0  0  0  0
 19 16  1  0  0  0  0
 20 19  1  0  0  0  0
 20 33  1  0  0  0  0
 20 34  1  0  0  0  0
 21 20  1  0  0  0  0
 21 35  1  0  0  0  0
 21 36  1  0  0  0  0
 22 21  1  0  0  0  0
 22 37  1  0  0  0  0
 22 38  1  0  0  0  0
 23 22  1  0  0  0  0
 23 39  1  0  0  0  0
 23 40  1  0  0  0  0
 24 23  1  0  0  0  0
 24 19  1  0  0  0  0
 24 41  1  0  0  0  0
 24 42  1  0  0  0  0
M  CHG  1  22   1
M  END
>  <MOL Chiral Flag>
0

>  <energy>
165.80562611891094

$$$$
> 287_AKC_j.ejmech.2018.03.014
>278.sdf
 OpenBabel10062212083D

 76 80  0  0  0  0  0  0  0  0999 V2000
   -1.7931    6.4748    1.4588 C   0  0  0  0  0  0  0  0  0  0  0  0
   -2.6610    5.4313    1.7119 O   0  0  0  0  0  0  0  0  0  0  0  0
   -2.4430    4.1335    1.3693 C   0  0  0  0  0  0  0  0  0  0  0  0
   -3.3983    3.1762    1.7226 C   0  0  0  0  0  0  0  0  0  0  0  0
   -3.2136    1.8267    1.4017 C   0  0  0  0  0  0  0  0  0  0  0  0
   -2.0623    1.4053    0.7065 C   0  0  0  0  0  0  0  0  0  0  0  0
   -1.0966    2.3769    0.3678 C   0  0  0  0  0  0  0  0  0  0  0  0
   -1.2846    3.7218    0.6870 C   0  0  0  0  0  0  0  0  0  0  0  0
   -1.7798   -0.0268    0.3664 C   0  0  0  0  0  0  0  0  0  0  0  0
   -0.4687   -0.3743    0.1881 N   0  0  0  0  0  0  0  0  0  0  0  0
   -0.0381   -1.6464   -0.0721 C   0  0  0  0  0  0  0  0  0  0  0  0
   -0.9783   -2.6872   -0.1821 C   0  0  0  0  0  0  0  0  0  0  0  0
   -2.3189   -2.3536   -0.0399 C   0  0  0  0  0  0  0  0  0  0  0  0
   -2.7372   -1.0611    0.2253 C   0  0  0  0  0  0  0  0  0  0  0  0
   -4.0950   -1.0165    0.2732 N   0  0  0  0  0  0  0  0  0  0  0  0
   -4.5156   -2.2822    0.0606 C   0  0  0  0  0  0  0  0  0  0  0  0
   -3.4508   -3.1280   -0.1329 C   0  0  0  0  0  0  0  0  0  0  0  0
   -3.6300   -4.4874   -0.3832 C   0  0  0  0  0  0  0  0  0  0  0  0
   -4.9478   -4.9807   -0.4301 C   0  0  0  0  0  0  0  0  0  0  0  0
   -6.0449   -4.1098   -0.2310 C   0  0  0  0  0  0  0  0  0  0  0  0
   -5.8306   -2.7403    0.0162 C   0  0  0  0  0  0  0  0  0  0  0  0
    1.4162   -1.8990   -0.2296 C   0  0  0  0  0  0  0  0  0  0  0  0
    1.8211   -3.0422   -0.3935 O   0  0  0  0  0  0  0  0  0  0  0  0
    2.2961   -0.8575   -0.2058 N   0  0  0  0  0  0  0  0  0  0  0  0
    3.7251   -1.0585   -0.3581 C   0  0  0  0  0  0  0  0  0  0  0  0
    4.4566    0.2870   -0.4021 C   0  0  0  0  0  0  0  0  0  0  0  0
    5.8779    0.0749   -0.5907 N   0  0  0  0  0  0  0  0  0  0  0  0
    6.8658    0.6405    0.2603 C   0  0  0  0  0  0  0  0  0  0  0  0
    6.5200    1.4661    1.2838 N   0  0  0  0  0  0  0  0  0  0  0  0
    7.4795    2.0382    2.0563 C   0  0  0  0  0  0  0  0  0  0  0  0
    7.1024    2.8987    3.1255 N   0  0  0  0  0  0  0  0  0  0  0  0
    8.0730    3.4779    4.0452 C   0  0  0  0  0  0  0  0  0  0  0  0
    7.3896    4.5008    4.9622 C   0  0  0  0  0  0  0  0  0  0  0  0
    8.7281    2.3841    4.9035 C   0  0  0  0  0  0  0  0  0  0  0  0
    8.7901    1.7985    1.7846 N   0  0  0  0  0  0  0  0  0  0  0  0
    9.1448    0.9720    0.7675 C   0  0  0  0  0  0  0  0  0  0  0  0
   10.5125    0.6859    0.4791 N   0  0  0  0  0  0  0  0  0  0  0  0
   11.6389    1.5529    0.8137 C   0  0  0  0  0  0  0  0  0  0  0  0
   11.6540    2.0610    2.2629 C   0  0  0  0  0  0  0  0  0  0  0  0
   11.7151    2.7086   -0.1862 C   0  0  0  0  0  0  0  0  0  0  0  0
    8.1763    0.3904    0.0156 N   0  0  0  0  0  0  0  0  0  0  0  0
   -2.2296    7.4140    1.8554 H   0  0  0  0  0  0  0  0  0  0  0  0
   -0.8202    6.2978    1.9660 H   0  0  0  0  0  0  0  0  0  0  0  0
   -1.6382    6.5916    0.3649 H   0  0  0  0  0  0  0  0  0  0  0  0
   -4.2854    3.4780    2.2653 H   0  0  0  0  0  0  0  0  0  0  0  0
   -3.9542    1.1318    1.7444 H   0  0  0  0  0  0  0  0  0  0  0  0
   -0.1903    2.0955   -0.1541 H   0  0  0  0  0  0  0  0  0  0  0  0
   -0.5204    4.4329    0.4039 H   0  0  0  0  0  0  0  0  0  0  0  0
   -0.6780   -3.7062   -0.3918 H   0  0  0  0  0  0  0  0  0  0  0  0
   -4.7304   -0.2059    0.4096 H   0  0  0  0  0  0  0  0  0  0  0  0
   -2.7853   -5.1457   -0.5391 H   0  0  0  0  0  0  0  0  0  0  0  0
   -5.1225   -6.0313   -0.6222 H   0  0  0  0  0  0  0  0  0  0  0  0
   -7.0544   -4.4978   -0.2710 H   0  0  0  0  0  0  0  0  0  0  0  0
   -6.6631   -2.0653    0.1669 H   0  0  0  0  0  0  0  0  0  0  0  0
    1.9393    0.1039   -0.0927 H   0  0  0  0  0  0  0  0  0  0  0  0
    3.9198   -1.5938   -1.3138 H   0  0  0  0  0  0  0  0  0  0  0  0
    4.1071   -1.6721    0.4868 H   0  0  0  0  0  0  0  0  0  0  0  0
    4.0689    0.8699   -1.2654 H   0  0  0  0  0  0  0  0  0  0  0  0
    4.2458    0.8602    0.5262 H   0  0  0  0  0  0  0  0  0  0  0  0
    6.1885   -0.4726   -1.4078 H   0  0  0  0  0  0  0  0  0  0  0  0
    6.1027    3.1320    3.2317 H   0  0  0  0  0  0  0  0  0  0  0  0
    8.8523    4.0173    3.4637 H   0  0  0  0  0  0  0  0  0  0  0  0
    6.5944    4.0172    5.5697 H   0  0  0  0  0  0  0  0  0  0  0  0
    8.1331    4.9623    5.6472 H   0  0  0  0  0  0  0  0  0  0  0  0
    6.9321    5.3088    4.3524 H   0  0  0  0  0  0  0  0  0  0  0  0
    9.4677    2.8347    5.5995 H   0  0  0  0  0  0  0  0  0  0  0  0
    7.9577    1.8489    5.4998 H   0  0  0  0  0  0  0  0  0  0  0  0
    9.2631    1.6413    4.2802 H   0  0  0  0  0  0  0  0  0  0  0  0
   10.6750    0.0256   -0.2969 H   0  0  0  0  0  0  0  0  0  0  0  0
   12.5628    0.9452    0.6880 H   0  0  0  0  0  0  0  0  0  0  0  0
   10.8493    2.7936    2.4624 H   0  0  0  0  0  0  0  0  0  0  0  0
   12.6091    2.5954    2.4544 H   0  0  0  0  0  0  0  0  0  0  0  0
   11.5804    1.2109    2.9723 H   0  0  0  0  0  0  0  0  0  0  0  0
   10.8113    3.3497   -0.1125 H   0  0  0  0  0  0  0  0  0  0  0  0
   11.7824    2.3052   -1.2201 H   0  0  0  0  0  0  0  0  0  0  0  0
   12.6178    3.3271    0.0039 H   0  0  0  0  0  0  0  0  0  0  0  0
  1 42  1  0  0  0  0
  1 43  1  0  0  0  0
  1 44  1  0  0  0  0
  2  1  1  0  0  0  0
  3  2  1  0  0  0  0
  4  3  2  0  0  0  0
  4 45  1  0  0  0  0
  5  4  1  0  0  0  0
  5 46  1  0  0  0  0
  6  5  2  0  0  0  0
  7  6  1  0  0  0  0
  7 47  1  0  0  0  0
  8  7  2  0  0  0  0
  8  3  1  0  0  0  0
  8 48  1  0  0  0  0
  9  6  1  0  0  0  0
 10  9  2  0  0  0  0
 11 10  1  0  0  0  0
 12 11  2  0  0  0  0
 12 49  1  0  0  0  0
 13 12  1  0  0  0  0
 14 13  2  0  0  0  0
 14  9  1  0  0  0  0
 15 14  1  0  0  0  0
 15 50  1  0  0  0  0
 16 15  1  0  0  0  0
 17 16  2  0  0  0  0
 17 13  1  0  0  0  0
 18 17  1  0  0  0  0
 18 51  1  0  0  0  0
 19 18  2  0  0  0  0
 19 52  1  0  0  0  0
 20 19  1  0  0  0  0
 20 53  1  0  0  0  0
 21 20  2  0  0  0  0
 21 16  1  0  0  0  0
 21 54  1  0  0  0  0
 22 11  1  0  0  0  0
 23 22  2  0  0  0  0
 24 22  1  0  0  0  0
 24 55  1  0  0  0  0
 25 24  1  0  0  0  0
 25 56  1  0  0  0  0
 25 57  1  0  0  0  0
 26 25  1  0  0  0  0
 26 58  1  0  0  0  0
 26 59  1  0  0  0  0
 27 26  1  0  0  0  0
 27 60  1  0  0  0  0
 28 27  1  0  0  0  0
 29 28  2  0  0  0  0
 30 29  1  0  0  0  0
 31 30  1  0  0  0  0
 31 61  1  0  0  0  0
 32 31  1  0  0  0  0
 32 62  1  0  0  0  0
 33 32  1  0  0  0  0
 33 63  1  0  0  0  0
 33 64  1  0  0  0  0
 33 65  1  0  0  0  0
 34 32  1  0  0  0  0
 34 66  1  0  0  0  0
 34 67  1  0  0  0  0
 34 68  1  0  0  0  0
 35 30  2  0  0  0  0
 36 35  1  0  0  0  0
 37 36  1  0  0  0  0
 37 69  1  0  0  0  0
 38 37  1  0  0  0  0
 38 70  1  0  0  0  0
 39 38  1  0  0  0  0
 39 71  1  0  0  0  0
 39 72  1  0  0  0  0
 39 73  1  0  0  0  0
 40 38  1  0  0  0  0
 40 74  1  0  0  0  0
 40 75  1  0  0  0  0
 40 76  1  0  0  0  0
 41 36  2  0  0  0  0
 41 28  1  0  0  0  0
M  END
>  <MOL Chiral Flag>
0

>  <energy>
-180.1010108205445

$$$$
> 288_AKC_j.bmcl.2018.02.023
>279.sdf
 OpenBabel10062212103D

 70 75  0  0  0  0  0  0  0  0999 V2000
    8.9432    2.1860    3.8546 O   0  0  0  0  0  0  0  0  0  0  0  0
    7.6707    2.4160    3.4664 C   0  0  0  0  0  0  0  0  0  0  0  0
    6.8038    3.1098    4.3163 C   0  0  0  0  0  0  0  0  0  0  0  0
    5.4870    3.3773    3.9189 C   0  0  0  0  0  0  0  0  0  0  0  0
    5.0201    2.9471    2.6622 C   0  0  0  0  0  0  0  0  0  0  0  0
    3.6270    3.3251    2.1851 C   0  0  0  0  0  0  0  0  0  0  0  0
    2.6978    2.2370    1.8562 N   0  0  0  0  0  0  0  0  0  0  0  0
    2.7859    0.9162    2.1601 C   0  0  0  0  0  0  0  0  0  0  0  0
    3.7313    0.4227    2.7529 O   0  0  0  0  0  0  0  0  0  0  0  0
    1.6342    0.1679    1.5605 C   0  0  0  0  0  0  0  0  0  0  0  0
    1.3945   -1.1885    1.5858 C   0  0  0  0  0  0  0  0  0  0  0  0
    2.0864   -2.0970    2.5683 C   0  0  0  0  0  0  0  0  0  0  0  0
    2.3212   -1.6755    3.8939 C   0  0  0  0  0  0  0  0  0  0  0  0
    2.8686   -2.5517    4.8344 C   0  0  0  0  0  0  0  0  0  0  0  0
    3.1887   -3.8656    4.4714 C   0  0  0  0  0  0  0  0  0  0  0  0
    3.6984   -4.7247    5.3774 O   0  0  0  0  0  0  0  0  0  0  0  0
    2.9626   -4.2959    3.1620 C   0  0  0  0  0  0  0  0  0  0  0  0
    2.4100   -3.4249    2.2186 C   0  0  0  0  0  0  0  0  0  0  0  0
    0.4407   -1.8370    0.6171 C   0  0  0  0  0  0  0  0  0  0  0  0
   -0.3623   -2.9280    1.0087 C   0  0  0  0  0  0  0  0  0  0  0  0
   -1.1848   -3.5754    0.0807 C   0  0  0  0  0  0  0  0  0  0  0  0
   -1.2095   -3.1542   -1.2556 C   0  0  0  0  0  0  0  0  0  0  0  0
   -1.9875   -3.7811   -2.1617 O   0  0  0  0  0  0  0  0  0  0  0  0
   -0.4102   -2.0822   -1.6576 C   0  0  0  0  0  0  0  0  0  0  0  0
    0.4125   -1.4315   -0.7344 C   0  0  0  0  0  0  0  0  0  0  0  0
    0.8207    1.2491    0.9309 C   0  0  0  0  0  0  0  0  0  0  0  0
    1.4911    2.4406    1.1438 C   0  0  0  0  0  0  0  0  0  0  0  0
    0.9622    3.6612    0.7256 C   0  0  0  0  0  0  0  0  0  0  0  0
   -0.3002    3.6763    0.1194 C   0  0  0  0  0  0  0  0  0  0  0  0
   -1.0378    2.4823   -0.0629 C   0  0  0  0  0  0  0  0  0  0  0  0
   -2.4252    2.6029   -0.6133 C   0  0  0  0  0  0  0  0  0  0  0  0
   -3.2499    1.5676   -0.8987 C   0  0  0  0  0  0  0  0  0  0  0  0
   -4.6650    1.7413   -1.3707 C   0  0  0  0  0  0  0  0  0  0  0  0
   -5.3810    0.6067   -1.7979 C   0  0  0  0  0  0  0  0  0  0  0  0
   -6.7133    0.7131   -2.2251 C   0  0  0  0  0  0  0  0  0  0  0  0
   -7.3652   -0.3964   -2.6350 O   0  0  0  0  0  0  0  0  0  0  0  0
   -7.3532    1.9649   -2.2180 C   0  0  0  0  0  0  0  0  0  0  0  0
   -8.6392    2.0727   -2.6156 O   0  0  0  0  0  0  0  0  0  0  0  0
   -6.6515    3.0975   -1.7908 C   0  0  0  0  0  0  0  0  0  0  0  0
   -5.3224    2.9932   -1.3743 C   0  0  0  0  0  0  0  0  0  0  0  0
   -0.4639    1.2508    0.3469 C   0  0  0  0  0  0  0  0  0  0  0  0
    5.8953    2.2425    1.8148 C   0  0  0  0  0  0  0  0  0  0  0  0
    7.2118    1.9781    2.2155 C   0  0  0  0  0  0  0  0  0  0  0  0
    9.5780    1.7276    3.2849 H   0  0  0  0  0  0  0  0  0  0  0  0
    7.1577    3.4568    5.2799 H   0  0  0  0  0  0  0  0  0  0  0  0
    4.8410    3.9378    4.5823 H   0  0  0  0  0  0  0  0  0  0  0  0
    3.1254    3.9972    2.9148 H   0  0  0  0  0  0  0  0  0  0  0  0
    3.8011    3.9194    1.2625 H   0  0  0  0  0  0  0  0  0  0  0  0
    2.0418   -0.6812    4.2161 H   0  0  0  0  0  0  0  0  0  0  0  0
    3.0254   -2.2136    5.8511 H   0  0  0  0  0  0  0  0  0  0  0  0
    3.8430   -4.4657    6.2988 H   0  0  0  0  0  0  0  0  0  0  0  0
    3.2010   -5.3131    2.8778 H   0  0  0  0  0  0  0  0  0  0  0  0
    2.2303   -3.7901    1.2157 H   0  0  0  0  0  0  0  0  0  0  0  0
   -0.3523   -3.2785    2.0328 H   0  0  0  0  0  0  0  0  0  0  0  0
   -1.7953   -4.4113    0.3987 H   0  0  0  0  0  0  0  0  0  0  0  0
   -2.5415   -4.5376   -1.9216 H   0  0  0  0  0  0  0  0  0  0  0  0
   -0.4147   -1.7611   -2.6918 H   0  0  0  0  0  0  0  0  0  0  0  0
    1.0460   -0.6246   -1.0798 H   0  0  0  0  0  0  0  0  0  0  0  0
    1.4919    4.5891    0.8932 H   0  0  0  0  0  0  0  0  0  0  0  0
   -0.7247    4.6275   -0.1782 H   0  0  0  0  0  0  0  0  0  0  0  0
   -2.7774    3.6117   -0.7689 H   0  0  0  0  0  0  0  0  0  0  0  0
   -2.8952    0.5515   -0.7795 H   0  0  0  0  0  0  0  0  0  0  0  0
   -4.9034   -0.3658   -1.8028 H   0  0  0  0  0  0  0  0  0  0  0  0
   -8.2828   -0.3731   -2.9425 H   0  0  0  0  0  0  0  0  0  0  0  0
   -9.1064    2.9210   -2.6096 H   0  0  0  0  0  0  0  0  0  0  0  0
   -7.1397    4.0644   -1.7756 H   0  0  0  0  0  0  0  0  0  0  0  0
   -4.8354    3.8947   -1.0418 H   0  0  0  0  0  0  0  0  0  0  0  0
   -1.0266    0.3407    0.2700 H   0  0  0  0  0  0  0  0  0  0  0  0
    5.5636    1.9198    0.8364 H   0  0  0  0  0  0  0  0  0  0  0  0
    7.8798    1.4470    1.5484 H   0  0  0  0  0  0  0  0  0  0  0  0
  1 44  1  0  0  0  0
  2  1  1  0  0  0  0
  3  2  2  0  0  0  0
  3 45  1  0  0  0  0
  4  3  1  0  0  0  0
  4 46  1  0  0  0  0
  5  4  2  0  0  0  0
  6  5  1  0  0  0  0
  6 47  1  0  0  0  0
  6 48  1  0  0  0  0
  7  6  1  0  0  0  0
  8  7  1  0  0  0  0
  9  8  2  0  0  0  0
 10  8  1  0  0  0  0
 11 10  2  0  0  0  0
 12 11  1  0  0  0  0
 13 12  2  0  0  0  0
 13 49  1  0  0  0  0
 14 13  1  0  0  0  0
 14 50  1  0  0  0  0
 15 14  2  0  0  0  0
 16 15  1  0  0  0  0
 16 51  1  0  0  0  0
 17 15  1  0  0  0  0
 17 52  1  0  0  0  0
 18 17  2  0  0  0  0
 18 12  1  0  0  0  0
 18 53  1  0  0  0  0
 19 11  1  0  0  0  0
 20 19  2  0  0  0  0
 20 54  1  0  0  0  0
 21 20  1  0  0  0  0
 21 55  1  0  0  0  0
 22 21  2  0  0  0  0
 23 22  1  0  0  0  0
 23 56  1  0  0  0  0
 24 22  1  0  0  0  0
 24 57  1  0  0  0  0
 25 24  2  0  0  0  0
 25 19  1  0  0  0  0
 25 58  1  0  0  0  0
 26 10  1  0  0  0  0
 27 26  2  0  0  0  0
 27  7  1  0  0  0  0
 28 27  1  0  0  0  0
 28 59  1  0  0  0  0
 29 28  2  0  0  0  0
 29 60  1  0  0  0  0
 30 29  1  0  0  0  0
 31 30  1  0  0  0  0
 31 61  1  0  0  0  0
 32 31  2  0  0  0  0
 32 62  1  0  0  0  0
 33 32  1  0  0  0  0
 34 33  2  0  0  0  0
 34 63  1  0  0  0  0
 35 34  1  0  0  0  0
 36 35  1  0  0  0  0
 36 64  1  0  0  0  0
 37 35  2  0  0  0  0
 38 37  1  0  0  0  0
 38 65  1  0  0  0  0
 39 37  1  0  0  0  0
 39 66  1  0  0  0  0
 40 39  2  0  0  0  0
 40 33  1  0  0  0  0
 40 67  1  0  0  0  0
 41 30  2  0  0  0  0
 41 26  1  0  0  0  0
 41 68  1  0  0  0  0
 42  5  1  0  0  0  0
 42 69  1  0  0  0  0
 43 42  2  0  0  0  0
 43  2  1  0  0  0  0
 43 70  1  0  0  0  0
M  END
>  <MOL Chiral Flag>
0

>  <energy>
139.52572990010992

$$$$
> 289_AKC_journal.pntd.0007235
>280.sdf
 OpenBabel10062212113D

 66 67  0  0  0  0  0  0  0  0999 V2000
    8.4148    3.0917   -0.4634 O   0  0  0  0  0  0  0  0  0  0  0  0
    8.0785    3.4358   -1.7789 C   0  0  0  0  0  0  0  0  0  0  0  0
    6.7617    2.7680   -2.1782 C   0  0  0  0  0  0  0  0  0  0  0  0
    5.5901    3.2393   -1.3050 C   0  0  0  0  0  0  0  0  0  0  0  0
    4.2802    2.5817   -1.7531 C   0  0  0  0  0  0  0  0  0  0  0  0
    3.0928    3.0682   -0.9116 C   0  0  0  0  0  0  0  0  0  0  0  0
    1.7912    2.4023   -1.3926 C   0  0  0  0  0  0  0  0  0  0  0  0
    0.4974    2.8351   -0.6556 C   0  0  0  0  0  0  0  0  0  0  0  0
    0.1821    4.3402   -0.8393 C   0  0  0  0  0  0  0  0  0  0  0  0
   -1.2095    4.5823   -0.7750 O   0  0  0  0  0  0  0  0  0  0  0  0
   -1.5558    4.8675    0.4731 O   0  0  0  0  0  0  0  0  0  0  0  0
   -2.3797    3.8049    0.9512 C   0  0  0  0  0  0  0  0  0  0  0  0
   -3.6196    3.6237    0.0178 C   0  0  0  0  0  0  0  0  0  0  0  0
   -4.4569    2.3427    0.2788 C   0  0  0  0  0  0  0  0  0  0  0  0
   -5.7619    2.3292   -0.5569 C   0  0  0  0  0  0  0  0  0  0  0  0
   -6.8161    3.3632   -0.0918 C   0  0  0  0  0  0  0  0  0  0  0  0
   -7.5165    2.9575    1.2320 C   0  0  0  0  0  0  0  0  0  0  0  0
   -8.3566    4.1073    1.8346 C   0  0  0  0  0  0  0  0  0  0  0  0
   -7.7318    4.9082    3.0192 C   0  0  0  0  0  0  0  0  0  0  0  0
   -6.3884    5.6640    2.8482 C   0  0  0  0  0  0  0  0  0  0  0  0
   -5.2169    4.6905    2.7276 C   0  0  0  0  0  0  0  0  0  0  0  0
   -3.8021    5.2842    2.6855 C   0  0  0  0  0  0  0  0  0  0  0  0
   -2.7601    4.1537    2.4414 C   0  0  0  0  0  0  0  0  0  0  0  0
   -1.6454    2.5957    0.9381 O   0  0  0  0  0  0  0  0  0  0  0  0
   -0.5381    2.8219    1.6198 O   0  0  0  0  0  0  0  0  0  0  0  0
    0.5497    2.4064    0.8368 C   0  0  0  0  0  0  0  0  0  0  0  0
    9.2909    3.5215   -0.2832 H   0  0  0  0  0  0  0  0  0  0  0  0
    7.9743    4.5403   -1.8702 H   0  0  0  0  0  0  0  0  0  0  0  0
    8.8733    3.0792   -2.4716 H   0  0  0  0  0  0  0  0  0  0  0  0
    6.8732    1.6641   -2.0980 H   0  0  0  0  0  0  0  0  0  0  0  0
    6.5491    3.0239   -3.2394 H   0  0  0  0  0  0  0  0  0  0  0  0
    5.7865    2.9799   -0.2414 H   0  0  0  0  0  0  0  0  0  0  0  0
    5.4919    4.3436   -1.3925 H   0  0  0  0  0  0  0  0  0  0  0  0
    4.3737    1.4768   -1.6564 H   0  0  0  0  0  0  0  0  0  0  0  0
    4.0944    2.8316   -2.8209 H   0  0  0  0  0  0  0  0  0  0  0  0
    3.0044    4.1712   -1.0100 H   0  0  0  0  0  0  0  0  0  0  0  0
    3.2915    2.8135    0.1494 H   0  0  0  0  0  0  0  0  0  0  0  0
    1.8977    1.2985   -1.2985 H   0  0  0  0  0  0  0  0  0  0  0  0
    1.6599    2.6299   -2.4738 H   0  0  0  0  0  0  0  0  0  0  0  0
   -0.3160    2.2737   -1.1688 H   0  0  0  0  0  0  0  0  0  0  0  0
    0.4634    4.6282   -1.8747 H   0  0  0  0  0  0  0  0  0  0  0  0
    0.7831    4.9982   -0.1717 H   0  0  0  0  0  0  0  0  0  0  0  0
   -3.3008    3.5403   -1.0434 H   0  0  0  0  0  0  0  0  0  0  0  0
   -4.2058    4.5590    0.0626 H   0  0  0  0  0  0  0  0  0  0  0  0
   -4.6903    2.1896    1.3490 H   0  0  0  0  0  0  0  0  0  0  0  0
   -3.8301    1.4761   -0.0238 H   0  0  0  0  0  0  0  0  0  0  0  0
   -5.4891    2.5340   -1.6154 H   0  0  0  0  0  0  0  0  0  0  0  0
   -6.2234    1.3188   -0.5222 H   0  0  0  0  0  0  0  0  0  0  0  0
   -7.6148    3.4384   -0.8622 H   0  0  0  0  0  0  0  0  0  0  0  0
   -6.3697    4.3734   -0.0486 H   0  0  0  0  0  0  0  0  0  0  0  0
   -6.8547    2.5434    2.0193 H   0  0  0  0  0  0  0  0  0  0  0  0
   -8.1894    2.1183    0.9473 H   0  0  0  0  0  0  0  0  0  0  0  0
   -9.2549    3.6338    2.2898 H   0  0  0  0  0  0  0  0  0  0  0  0
   -8.7330    4.7738    1.0291 H   0  0  0  0  0  0  0  0  0  0  0  0
   -8.4963    5.6594    3.3141 H   0  0  0  0  0  0  0  0  0  0  0  0
   -7.6177    4.2161    3.8838 H   0  0  0  0  0  0  0  0  0  0  0  0
   -6.4344    6.3591    1.9830 H   0  0  0  0  0  0  0  0  0  0  0  0
   -6.2243    6.2607    3.7721 H   0  0  0  0  0  0  0  0  0  0  0  0
   -5.2576    3.9643    3.5700 H   0  0  0  0  0  0  0  0  0  0  0  0
   -5.3702    4.1632    1.8215 H   0  0  0  0  0  0  0  0  0  0  0  0
   -3.6362    5.7182    3.6959 H   0  0  0  0  0  0  0  0  0  0  0  0
   -3.6788    6.0973    1.9380 H   0  0  0  0  0  0  0  0  0  0  0  0
   -3.0841    3.2441    2.9924 H   0  0  0  0  0  0  0  0  0  0  0  0
   -1.8136    4.4794    2.9265 H   0  0  0  0  0  0  0  0  0  0  0  0
    0.6643    1.3035    0.9178 H   0  0  0  0  0  0  0  0  0  0  0  0
    1.4369    2.8685    1.3100 H   0  0  0  0  0  0  0  0  0  0  0  0
  1 27  1  0  0  0  0
  2  1  1  0  0  0  0
  2 28  1  0  0  0  0
  2 29  1  0  0  0  0
  3  2  1  0  0  0  0
  3 30  1  0  0  0  0
  3 31  1  0  0  0  0
  4  3  1  0  0  0  0
  4 32  1  0  0  0  0
  4 33  1  0  0  0  0
  5  4  1  0  0  0  0
  5 34  1  0  0  0  0
  5 35  1  0  0  0  0
  6  5  1  0  0  0  0
  6 36  1  0  0  0  0
  6 37  1  0  0  0  0
  7  6  1  0  0  0  0
  7 38  1  0  0  0  0
  7 39  1  0  0  0  0
  8  7  1  0  0  0  0
  8 40  1  0  0  0  0
  9  8  1  0  0  0  0
  9 41  1  0  0  0  0
  9 42  1  0  0  0  0
 10  9  1  0  0  0  0
 11 10  1  0  0  0  0
 12 11  1  0  0  0  0
 13 12  1  0  0  0  0
 13 43  1  0  0  0  0
 13 44  1  0  0  0  0
 14 13  1  0  0  0  0
 14 45  1  0  0  0  0
 14 46  1  0  0  0  0
 15 14  1  0  0  0  0
 15 47  1  0  0  0  0
 15 48  1  0  0  0  0
 16 15  1  0  0  0  0
 16 49  1  0  0  0  0
 16 50  1  0  0  0  0
 17 16  1  0  0  0  0
 17 51  1  0  0  0  0
 17 52  1  0  0  0  0
 18 17  1  0  0  0  0
 18 53  1  0  0  0  0
 18 54  1  0  0  0  0
 19 18  1  0  0  0  0
 19 55  1  0  0  0  0
 19 56  1  0  0  0  0
 20 19  1  0  0  0  0
 20 57  1  0  0  0  0
 20 58  1  0  0  0  0
 21 20  1  0  0  0  0
 21 59  1  0  0  0  0
 21 60  1  0  0  0  0
 22 21  1  0  0  0  0
 22 61  1  0  0  0  0
 22 62  1  0  0  0  0
 23 22  1  0  0  0  0
 23 12  1  0  0  0  0
 23 63  1  0  0  0  0
 23 64  1  0  0  0  0
 24 12  1  0  0  0  0
 25 24  1  0  0  0  0
 26 25  1  0  0  0  0
 26  8  1  0  0  0  0
 26 65  1  0  0  0  0
 26 66  1  0  0  0  0
M  END
>  <MOL Chiral Flag>
0

>  <energy>
67.33812187557244

$$$$
> 290_AKC_s40883-018-0045-3
>281.sdf
 OpenBabel10062212123D

 34 35  0  0  0  0  0  0  0  0999 V2000
   -6.6894    0.5452   -0.6971 N   0  3  0  0  0  0  0  0  0  0  0  0
   -5.2369    0.6941   -0.7705 C   0  0  0  0  0  0  0  0  0  0  0  0
   -4.5558    0.0516    0.4437 C   0  0  0  0  0  0  0  0  0  0  0  0
   -3.1218    0.0214    0.2362 N   0  0  0  0  0  0  0  0  0  0  0  0
   -2.2092    0.5563    1.0964 C   0  0  0  0  0  0  0  0  0  0  0  0
   -2.5605    1.1328    2.1141 O   0  0  0  0  0  0  0  0  0  0  0  0
   -0.7752    0.3758    0.7816 C   0  0  0  0  0  0  0  0  0  0  0  0
    0.2418    0.7686    1.5724 C   0  0  0  0  0  0  0  0  0  0  0  0
    1.6380    0.4684    1.1651 C   0  0  0  0  0  0  0  0  0  0  0  0
    1.8600   -0.1856   -0.0082 N   0  0  0  0  0  0  0  0  0  0  0  0
    3.0999   -0.5230   -0.4325 C   0  0  0  0  0  0  0  0  0  0  0  0
    4.2229   -0.1961    0.3519 C   0  0  0  0  0  0  0  0  0  0  0  0
    5.5043   -0.5586   -0.0934 C   0  0  0  0  0  0  0  0  0  0  0  0
    5.6545   -1.2398   -1.3092 C   0  0  0  0  0  0  0  0  0  0  0  0
    4.5327   -1.5588   -2.0822 C   0  0  0  0  0  0  0  0  0  0  0  0
    3.2569   -1.2005   -1.6443 C   0  0  0  0  0  0  0  0  0  0  0  0
    4.0279    0.4831    1.5647 C   0  0  0  0  0  0  0  0  0  0  0  0
    2.7295    0.8177    1.9761 C   0  0  0  0  0  0  0  0  0  0  0  0
   -7.1221    0.9952   -1.5358 H   0  0  0  0  0  0  0  0  0  0  0  0
   -7.0599    0.9980    0.1689 H   0  0  0  0  0  0  0  0  0  0  0  0
   -6.9398   -0.4712   -0.6999 H   0  0  0  0  0  0  0  0  0  0  0  0
   -4.9638    1.7713   -0.8238 H   0  0  0  0  0  0  0  0  0  0  0  0
   -4.8794    0.1974   -1.7006 H   0  0  0  0  0  0  0  0  0  0  0  0
   -4.8996   -1.0016    0.5295 H   0  0  0  0  0  0  0  0  0  0  0  0
   -4.8424    0.5880    1.3737 H   0  0  0  0  0  0  0  0  0  0  0  0
   -2.7793   -0.4722   -0.6015 H   0  0  0  0  0  0  0  0  0  0  0  0
   -0.5514   -0.1383   -0.1466 H   0  0  0  0  0  0  0  0  0  0  0  0
    0.0470    1.2742    2.5148 H   0  0  0  0  0  0  0  0  0  0  0  0
    6.3809   -0.3190    0.4953 H   0  0  0  0  0  0  0  0  0  0  0  0
    6.6405   -1.5220   -1.6537 H   0  0  0  0  0  0  0  0  0  0  0  0
    4.6504   -2.0854   -3.0206 H   0  0  0  0  0  0  0  0  0  0  0  0
    2.3898   -1.4509   -2.2442 H   0  0  0  0  0  0  0  0  0  0  0  0
    4.8730    0.7461    2.1898 H   0  0  0  0  0  0  0  0  0  0  0  0
    2.5778    1.3335    2.9163 H   0  0  0  0  0  0  0  0  0  0  0  0
  1 19  1  0  0  0  0
  1 20  1  0  0  0  0
  1 21  1  0  0  0  0
  2  1  1  0  0  0  0
  2 22  1  0  0  0  0
  2 23  1  0  0  0  0
  3  2  1  0  0  0  0
  3 24  1  0  0  0  0
  3 25  1  0  0  0  0
  4  3  1  0  0  0  0
  4 26  1  0  0  0  0
  5  4  1  0  0  0  0
  6  5  2  0  0  0  0
  7  5  1  0  0  0  0
  7 27  1  0  0  0  0
  8  7  2  0  0  0  0
  8 28  1  0  0  0  0
  9  8  1  0  0  0  0
 10  9  2  0  0  0  0
 11 10  1  0  0  0  0
 12 11  2  0  0  0  0
 13 12  1  0  0  0  0
 13 29  1  0  0  0  0
 14 13  2  0  0  0  0
 14 30  1  0  0  0  0
 15 14  1  0  0  0  0
 15 31  1  0  0  0  0
 16 15  2  0  0  0  0
 16 11  1  0  0  0  0
 16 32  1  0  0  0  0
 17 12  1  0  0  0  0
 17 33  1  0  0  0  0
 18 17  2  0  0  0  0
 18  9  1  0  0  0  0
 18 34  1  0  0  0  0
M  CHG  1   1   1
M  END
>  <MOL Chiral Flag>
0

>  <energy>
15.868163225064386

$$$$
> 291_AKC_j.phytol.2011.08.001
>282.sdf
 OpenBabel10062212123D

 41 42  0  0  0  0  0  0  0  0999 V2000
    5.9570   -0.1641   -0.3840 C   0  0  0  0  0  0  0  0  0  0  0  0
    4.7436   -0.8022   -0.2088 O   0  0  0  0  0  0  0  0  0  0  0  0
    3.5176   -0.2253   -0.0611 C   0  0  0  0  0  0  0  0  0  0  0  0
    2.4273   -0.9343   -0.5370 C   0  0  0  0  0  0  0  0  0  0  0  0
    1.1177   -0.4379   -0.4479 C   0  0  0  0  0  0  0  0  0  0  0  0
    0.0926   -1.1425   -0.9951 O   0  0  0  0  0  0  0  0  0  0  0  0
    0.1861   -2.3490   -1.6610 C   0  0  0  0  0  0  0  0  0  0  0  0
    0.8718    0.8193    0.1818 C   0  0  0  0  0  0  0  0  0  0  0  0
   -0.5458    1.3843    0.2902 C   0  0  0  0  0  0  0  0  0  0  0  0
   -0.6937    2.5834    0.4598 O   0  0  0  0  0  0  0  0  0  0  0  0
   -1.7949    0.5572    0.1914 C   0  0  0  0  0  0  0  0  0  0  0  0
   -3.0181    1.1082    0.3527 C   0  0  0  0  0  0  0  0  0  0  0  0
   -4.2975    0.3440    0.2644 C   0  0  0  0  0  0  0  0  0  0  0  0
   -5.4799    0.9658    0.7045 C   0  0  0  0  0  0  0  0  0  0  0  0
   -6.7041    0.2935    0.6391 C   0  0  0  0  0  0  0  0  0  0  0  0
   -6.7659   -1.0009    0.1212 C   0  0  0  0  0  0  0  0  0  0  0  0
   -5.6036   -1.6282   -0.3294 C   0  0  0  0  0  0  0  0  0  0  0  0
   -4.3731   -0.9677   -0.2573 C   0  0  0  0  0  0  0  0  0  0  0  0
    2.0063    1.5507    0.6944 C   0  0  0  0  0  0  0  0  0  0  0  0
    1.8652    2.7287    1.3467 O   0  0  0  0  0  0  0  0  0  0  0  0
    3.3258    1.0256    0.5605 C   0  0  0  0  0  0  0  0  0  0  0  0
    4.4294    1.6733    1.0406 O   0  0  0  0  0  0  0  0  0  0  0  0
    4.5217    2.9291    1.6047 C   0  0  0  0  0  0  0  0  0  0  0  0
    6.4837   -0.6431   -1.2345 H   0  0  0  0  0  0  0  0  0  0  0  0
    5.8464    0.9053   -0.6539 H   0  0  0  0  0  0  0  0  0  0  0  0
    6.5781   -0.2833    0.5278 H   0  0  0  0  0  0  0  0  0  0  0  0
    2.6198   -1.8879   -1.0095 H   0  0  0  0  0  0  0  0  0  0  0  0
    0.8241   -2.2412   -2.5641 H   0  0  0  0  0  0  0  0  0  0  0  0
    0.5955   -3.1323   -0.9880 H   0  0  0  0  0  0  0  0  0  0  0  0
   -0.8281   -2.6611   -1.9839 H   0  0  0  0  0  0  0  0  0  0  0  0
   -1.7385   -0.4984    0.0374 H   0  0  0  0  0  0  0  0  0  0  0  0
   -3.0905    2.1687    0.5791 H   0  0  0  0  0  0  0  0  0  0  0  0
   -5.4518    1.9703    1.1092 H   0  0  0  0  0  0  0  0  0  0  0  0
   -7.6062    0.7782    0.9892 H   0  0  0  0  0  0  0  0  0  0  0  0
   -7.7155   -1.5174    0.0661 H   0  0  0  0  0  0  0  0  0  0  0  0
   -5.6552   -2.6289   -0.7389 H   0  0  0  0  0  0  0  0  0  0  0  0
   -3.5005   -1.4834   -0.6272 H   0  0  0  0  0  0  0  0  0  0  0  0
    1.0529    3.1310    1.6626 H   0  0  0  0  0  0  0  0  0  0  0  0
    5.5862    3.1366    1.8374 H   0  0  0  0  0  0  0  0  0  0  0  0
    3.9538    2.9774    2.5569 H   0  0  0  0  0  0  0  0  0  0  0  0
    4.1728    3.7000    0.8844 H   0  0  0  0  0  0  0  0  0  0  0  0
  1 24  1  0  0  0  0
  1 25  1  0  0  0  0
  1 26  1  0  0  0  0
  2  1  1  0  0  0  0
  3  2  1  0  0  0  0
  4  3  2  0  0  0  0
  4 27  1  0  0  0  0
  5  4  1  0  0  0  0
  6  5  1  0  0  0  0
  7  6  1  0  0  0  0
  7 28  1  0  0  0  0
  7 29  1  0  0  0  0
  7 30  1  0  0  0  0
  8  5  2  0  0  0  0
  9  8  1  0  0  0  0
 10  9  2  0  0  0  0
 11  9  1  0  0  0  0
 11 31  1  0  0  0  0
 12 11  2  0  0  0  0
 12 32  1  0  0  0  0
 13 12  1  0  0  0  0
 14 13  2  0  0  0  0
 14 33  1  0  0  0  0
 15 14  1  0  0  0  0
 15 34  1  0  0  0  0
 16 15  2  0  0  0  0
 16 35  1  0  0  0  0
 17 16  1  0  0  0  0
 17 36  1  0  0  0  0
 18 17  2  0  0  0  0
 18 13  1  0  0  0  0
 18 37  1  0  0  0  0
 19  8  1  0  0  0  0
 20 19  1  0  0  0  0
 20 38  1  0  0  0  0
 21 19  2  0  0  0  0
 21  3  1  0  0  0  0
 22 21  1  0  0  0  0
 23 22  1  0  0  0  0
 23 39  1  0  0  0  0
 23 40  1  0  0  0  0
 23 41  1  0  0  0  0
M  END
>  <MOL Chiral Flag>
0

>  <energy>
100.03481808382588

$$$$
> 292_AKC_slct.201703095
>283.sdf
 OpenBabel10062212123D

 40 43  0  0  0  0  0  0  0  0999 V2000
    1.7927    2.9621   -2.1267 S   0  0  0  0  0  0  0  0  0  0  0  0
    0.3987    2.3392   -1.1827 C   0  0  0  0  0  0  0  0  0  0  0  0
   -0.4441    3.2297   -0.6036 N   0  0  0  0  0  0  0  0  0  0  0  0
   -1.5090    2.8389    0.1443 C   0  0  0  0  0  0  0  0  0  0  0  0
   -2.3475    3.8065    0.7075 C   0  0  0  0  0  0  0  0  0  0  0  0
   -3.4510    3.4216    1.4713 C   0  0  0  0  0  0  0  0  0  0  0  0
   -3.7229    2.0672    1.6773 C   0  0  0  0  0  0  0  0  0  0  0  0
   -5.1169    1.5901    2.6299 Cl  0  0  0  0  0  0  0  0  0  0  0  0
   -2.8908    1.0902    1.1218 C   0  0  0  0  0  0  0  0  0  0  0  0
   -1.7687    1.4636    0.3481 C   0  0  0  0  0  0  0  0  0  0  0  0
   -0.9110    0.5082   -0.2507 C   0  0  0  0  0  0  0  0  0  0  0  0
   -1.1263   -0.9486   -0.0563 C   0  0  0  0  0  0  0  0  0  0  0  0
   -0.9596   -1.5240    1.2141 C   0  0  0  0  0  0  0  0  0  0  0  0
   -1.1428   -2.8986    1.3913 C   0  0  0  0  0  0  0  0  0  0  0  0
   -1.5085   -3.7023    0.3076 C   0  0  0  0  0  0  0  0  0  0  0  0
   -1.6840   -3.1341   -0.9572 C   0  0  0  0  0  0  0  0  0  0  0  0
   -1.4852   -1.7631   -1.1425 C   0  0  0  0  0  0  0  0  0  0  0  0
    0.1820    0.9570   -1.0301 C   0  0  0  0  0  0  0  0  0  0  0  0
    1.1364   -0.0137   -1.6170 C   0  0  0  0  0  0  0  0  0  0  0  0
    0.8815   -0.5122   -2.7034 O   0  0  0  0  0  0  0  0  0  0  0  0
    2.3672   -0.4192   -0.8781 C   0  0  0  0  0  0  0  0  0  0  0  0
    3.2431   -1.3743   -1.4292 C   0  0  0  0  0  0  0  0  0  0  0  0
    4.3928   -1.7643   -0.7348 C   0  0  0  0  0  0  0  0  0  0  0  0
    4.6822   -1.2078    0.5126 C   0  0  0  0  0  0  0  0  0  0  0  0
    3.8227   -0.2598    1.0704 C   0  0  0  0  0  0  0  0  0  0  0  0
    2.6707    0.1344    0.3836 C   0  0  0  0  0  0  0  0  0  0  0  0
    1.0641    2.9247   -3.3294 H   0  0  0  0  0  0  0  0  0  0  0  0
   -2.1474    4.8592    0.5503 H   0  0  0  0  0  0  0  0  0  0  0  0
   -4.0972    4.1768    1.9000 H   0  0  0  0  0  0  0  0  0  0  0  0
   -3.1329    0.0500    1.2902 H   0  0  0  0  0  0  0  0  0  0  0  0
   -0.6702   -0.9094    2.0577 H   0  0  0  0  0  0  0  0  0  0  0  0
   -1.0000   -3.3412    2.3685 H   0  0  0  0  0  0  0  0  0  0  0  0
   -1.6555   -4.7653    0.4476 H   0  0  0  0  0  0  0  0  0  0  0  0
   -1.9730   -3.7561   -1.7945 H   0  0  0  0  0  0  0  0  0  0  0  0
   -1.6271   -1.3317   -2.1257 H   0  0  0  0  0  0  0  0  0  0  0  0
    3.0361   -1.8200   -2.3939 H   0  0  0  0  0  0  0  0  0  0  0  0
    5.0599   -2.5004   -1.1645 H   0  0  0  0  0  0  0  0  0  0  0  0
    5.5725   -1.5119    1.0479 H   0  0  0  0  0  0  0  0  0  0  0  0
    4.0482    0.1700    2.0380 H   0  0  0  0  0  0  0  0  0  0  0  0
    2.0204    0.8689    0.8400 H   0  0  0  0  0  0  0  0  0  0  0  0
  1 27  1  0  0  0  0
  2  1  1  0  0  0  0
  3  2  2  0  0  0  0
  4  3  1  0  0  0  0
  5  4  2  0  0  0  0
  5 28  1  0  0  0  0
  6  5  1  0  0  0  0
  6 29  1  0  0  0  0
  7  6  2  0  0  0  0
  8  7  1  0  0  0  0
  9  7  1  0  0  0  0
  9 30  1  0  0  0  0
 10  9  2  0  0  0  0
 10  4  1  0  0  0  0
 11 10  1  0  0  0  0
 12 11  1  0  0  0  0
 13 12  2  0  0  0  0
 13 31  1  0  0  0  0
 14 13  1  0  0  0  0
 14 32  1  0  0  0  0
 15 14  2  0  0  0  0
 15 33  1  0  0  0  0
 16 15  1  0  0  0  0
 16 34  1  0  0  0  0
 17 16  2  0  0  0  0
 17 12  1  0  0  0  0
 17 35  1  0  0  0  0
 18 11  2  0  0  0  0
 18  2  1  0  0  0  0
 19 18  1  0  0  0  0
 20 19  2  0  0  0  0
 21 19  1  0  0  0  0
 22 21  2  0  0  0  0
 22 36  1  0  0  0  0
 23 22  1  0  0  0  0
 23 37  1  0  0  0  0
 24 23  2  0  0  0  0
 24 38  1  0  0  0  0
 25 24  1  0  0  0  0
 25 39  1  0  0  0  0
 26 25  2  0  0  0  0
 26 21  1  0  0  0  0
 26 40  1  0  0  0  0
M  END
>  <MOL Chiral Flag>
0

>  <energy>
85.735674795153059

$$$$
> 293_AKC_j.ejpb.2013.08.014
>284.sdf
 OpenBabel10062212123D

 43 45  0  0  0  0  0  0  0  0999 V2000
   -0.1666    2.9896   -0.3941 C   0  0  0  0  0  0  0  0  0  0  0  0
   -0.5115    1.5019   -0.5548 C   0  0  2  0  0  0  0  0  0  0  0  0
   -1.8946    1.3331   -1.2385 C   0  0  1  0  0  0  0  0  0  0  0  0
   -1.8677    1.8250   -2.5557 O   0  0  0  0  0  0  0  0  0  0  0  0
   -2.2656   -0.1575   -1.2611 C   0  0  0  0  0  0  0  0  0  0  0  0
   -2.1856   -0.8551    0.1502 C   0  0  2  0  0  0  0  0  0  0  0  0
   -1.8098    0.1828    1.2328 C   0  0  0  0  0  0  0  0  0  0  0  0
   -0.4380    0.7544    0.8354 C   0  0  1  0  0  0  0  0  0  0  0  0
    0.5793   -0.4353    0.8176 C   0  0  1  0  0  0  0  0  0  0  0  0
    0.1815   -1.4637   -0.0941 O   0  0  0  0  0  0  0  0  0  0  0  0
   -1.1121   -2.0063    0.1805 C   0  0  0  0  0  0  0  0  0  0  0  0
   -1.1295   -2.8016    1.5222 C   0  0  0  0  0  0  0  0  0  0  0  0
   -1.4177   -3.0755   -0.9008 C   0  0  0  0  0  0  0  0  0  0  0  0
    1.9855    0.0506    0.4956 C   0  0  0  0  0  0  0  0  0  0  0  0
    2.6681   -0.3779   -0.6620 C   0  0  0  0  0  0  0  0  0  0  0  0
    3.9593    0.0852   -0.9325 C   0  0  0  0  0  0  0  0  0  0  0  0
    4.5859    0.9712   -0.0537 C   0  0  0  0  0  0  0  0  0  0  0  0
    3.9229    1.3984    1.0978 C   0  0  0  0  0  0  0  0  0  0  0  0
    2.6301    0.9440    1.3730 C   0  0  0  0  0  0  0  0  0  0  0  0
    0.8454    3.0996    0.0506 H   0  0  0  0  0  0  0  0  0  0  0  0
   -0.1600    3.5013   -1.3793 H   0  0  0  0  0  0  0  0  0  0  0  0
   -0.9060    3.4901    0.2671 H   0  0  0  0  0  0  0  0  0  0  0  0
    0.2498    1.0692   -1.2400 H   0  0  0  0  0  0  0  0  0  0  0  0
   -2.6830    1.8668   -0.6579 H   0  0  0  0  0  0  0  0  0  0  0  0
   -2.1671    2.7710   -2.5256 H   0  0  0  0  0  0  0  0  0  0  0  0
   -1.5517   -0.6122   -1.9722 H   0  0  0  0  0  0  0  0  0  0  0  0
   -3.2827   -0.2836   -1.6916 H   0  0  0  0  0  0  0  0  0  0  0  0
   -3.1846   -1.2807    0.3928 H   0  0  0  0  0  0  0  0  0  0  0  0
   -2.5725    0.9849    1.3143 H   0  0  0  0  0  0  0  0  0  0  0  0
   -1.7738   -0.2620    2.2453 H   0  0  0  0  0  0  0  0  0  0  0  0
   -0.1309    1.4686    1.6308 H   0  0  0  0  0  0  0  0  0  0  0  0
    0.6687   -0.8708    1.8337 H   0  0  0  0  0  0  0  0  0  0  0  0
   -0.3706   -3.6132    1.4971 H   0  0  0  0  0  0  0  0  0  0  0  0
   -2.1280   -3.2624    1.6829 H   0  0  0  0  0  0  0  0  0  0  0  0
   -0.9115   -2.2064    2.4254 H   0  0  0  0  0  0  0  0  0  0  0  0
   -0.6671   -3.8942   -0.8534 H   0  0  0  0  0  0  0  0  0  0  0  0
   -2.4255   -3.5170   -0.7421 H   0  0  0  0  0  0  0  0  0  0  0  0
   -1.3741   -2.6963   -1.9375 H   0  0  0  0  0  0  0  0  0  0  0  0
    2.2053   -1.0622   -1.3609 H   0  0  0  0  0  0  0  0  0  0  0  0
    4.4750   -0.2440   -1.8253 H   0  0  0  0  0  0  0  0  0  0  0  0
    5.5864    1.3257   -0.2651 H   0  0  0  0  0  0  0  0  0  0  0  0
    4.4113    2.0823    1.7800 H   0  0  0  0  0  0  0  0  0  0  0  0
    2.1332    1.2823    2.2730 H   0  0  0  0  0  0  0  0  0  0  0  0
  1 20  1  0  0  0  0
  1 21  1  0  0  0  0
  1 22  1  0  0  0  0
  2  1  1  0  0  0  0
  2 23  1  6  0  0  0
  3  2  1  0  0  0  0
  3 24  1  1  0  0  0
  4  3  1  0  0  0  0
  4 25  1  0  0  0  0
  5  3  1  0  0  0  0
  5 26  1  0  0  0  0
  5 27  1  0  0  0  0
  6  5  1  0  0  0  0
  6 28  1  1  0  0  0
  7  6  1  0  0  0  0
  7 29  1  0  0  0  0
  7 30  1  0  0  0  0
  8  7  1  0  0  0  0
  8  2  1  0  0  0  0
  8 31  1  1  0  0  0
  9  8  1  0  0  0  0
  9 32  1  1  0  0  0
 10  9  1  0  0  0  0
 11 10  1  0  0  0  0
 11  6  1  0  0  0  0
 12 11  1  0  0  0  0
 12 33  1  0  0  0  0
 12 34  1  0  0  0  0
 12 35  1  0  0  0  0
 13 11  1  0  0  0  0
 13 36  1  0  0  0  0
 13 37  1  0  0  0  0
 13 38  1  0  0  0  0
 14  9  1  0  0  0  0
 15 14  2  0  0  0  0
 15 39  1  0  0  0  0
 16 15  1  0  0  0  0
 16 40  1  0  0  0  0
 17 16  2  0  0  0  0
 17 41  1  0  0  0  0
 18 17  1  0  0  0  0
 18 42  1  0  0  0  0
 19 18  2  0  0  0  0
 19 14  1  0  0  0  0
 19 43  1  0  0  0  0
M  END
>  <MOL Chiral Flag>
0

>  <energy>
72.566061953491953

$$$$
> 294_AKC_s00436-017-5713-6
>285.sdf
 OpenBabel10062212133D

 54 56  0  0  0  0  0  0  0  0999 V2000
    2.3853   -2.0602    1.0285 C   0  0  0  0  0  0  0  0  0  0  0  0
    2.2023   -0.7042    1.7358 C   0  0  2  0  0  0  0  0  0  0  0  0
    1.0213   -0.0386    1.2944 O   0  0  0  0  0  0  0  0  0  0  0  0
    1.1406    0.4938   -0.0218 C   0  0  1  0  0  0  0  0  0  0  0  0
   -0.0354    1.1375   -0.3639 O   0  0  0  0  0  0  0  0  0  0  0  0
   -1.3073    0.6473   -0.4015 C   0  0  0  0  0  0  0  0  0  0  0  0
   -2.2900    1.5202   -0.6871 C   0  0  0  0  0  0  0  0  0  0  0  0
   -3.7097    1.1145   -0.7219 C   0  0  0  0  0  0  0  0  0  0  0  0
   -4.5653    1.9449   -0.9894 O   0  0  0  0  0  0  0  0  0  0  0  0
   -4.0865   -0.2821   -0.4094 C   0  0  0  0  0  0  0  0  0  0  0  0
   -3.0756   -1.2185   -0.1162 C   0  0  0  0  0  0  0  0  0  0  0  0
   -3.4291   -2.5464    0.1865 C   0  0  0  0  0  0  0  0  0  0  0  0
   -4.7724   -2.9321    0.1993 C   0  0  0  0  0  0  0  0  0  0  0  0
   -5.7722   -2.0023   -0.0918 C   0  0  0  0  0  0  0  0  0  0  0  0
   -5.4343   -0.6821   -0.3968 C   0  0  0  0  0  0  0  0  0  0  0  0
   -1.6511   -0.7876   -0.1253 C   0  0  0  0  0  0  0  0  0  0  0  0
   -0.7731   -1.6070    0.0910 O   0  0  0  0  0  0  0  0  0  0  0  0
    2.2551    1.5609   -0.0780 C   0  0  1  0  0  0  0  0  0  0  0  0
    1.9181    2.5960    0.7867 O   0  0  0  0  0  0  0  0  0  0  0  0
    1.5956    3.8722    0.4369 C   0  0  0  0  0  0  0  0  0  0  0  0
    1.4670    4.3064   -0.9985 C   0  0  0  0  0  0  0  0  0  0  0  0
    1.3724    4.6844    1.3200 O   0  0  0  0  0  0  0  0  0  0  0  0
    3.6051    0.9587    0.3496 C   0  0  2  0  0  0  0  0  0  0  0  0
    4.0208    0.0653   -0.6260 O   0  0  0  0  0  0  0  0  0  0  0  0
    5.1349    0.2217   -1.3958 C   0  0  0  0  0  0  0  0  0  0  0  0
    5.4670   -0.8027   -2.4308 C   0  0  0  0  0  0  0  0  0  0  0  0
    5.8679    1.1908   -1.2565 O   0  0  0  0  0  0  0  0  0  0  0  0
    3.4081    0.2799    1.7283 C   0  0  2  0  0  0  0  0  0  0  0  0
    4.5670   -0.2181    2.3197 O   0  0  0  0  0  0  0  0  0  0  0  0
    5.4189   -1.1932    1.9009 C   0  0  0  0  0  0  0  0  0  0  0  0
    6.5169   -1.6327    2.8151 C   0  0  0  0  0  0  0  0  0  0  0  0
    5.3053   -1.7151    0.8043 O   0  0  0  0  0  0  0  0  0  0  0  0
    1.4527   -2.6539    1.1229 H   0  0  0  0  0  0  0  0  0  0  0  0
    3.1792   -2.6541    1.5206 H   0  0  0  0  0  0  0  0  0  0  0  0
    2.6270   -1.9578   -0.0469 H   0  0  0  0  0  0  0  0  0  0  0  0
    2.0287   -0.9650    2.8029 H   0  0  0  0  0  0  0  0  0  0  0  0
    1.3253   -0.3097   -0.7663 H   0  0  0  0  0  0  0  0  0  0  0  0
   -2.0378    2.5585   -0.8874 H   0  0  0  0  0  0  0  0  0  0  0  0
   -2.6677   -3.2809    0.4171 H   0  0  0  0  0  0  0  0  0  0  0  0
   -5.0390   -3.9538    0.4368 H   0  0  0  0  0  0  0  0  0  0  0  0
   -6.8115   -2.3044   -0.0799 H   0  0  0  0  0  0  0  0  0  0  0  0
   -6.2221    0.0271   -0.6186 H   0  0  0  0  0  0  0  0  0  0  0  0
    2.3496    1.9249   -1.1226 H   0  0  0  0  0  0  0  0  0  0  0  0
    2.4377    4.1890   -1.5231 H   0  0  0  0  0  0  0  0  0  0  0  0
    0.6895    3.6966   -1.5056 H   0  0  0  0  0  0  0  0  0  0  0  0
    1.1667    5.3743   -1.0586 H   0  0  0  0  0  0  0  0  0  0  0  0
    4.3372    1.7901    0.4592 H   0  0  0  0  0  0  0  0  0  0  0  0
    4.7069   -1.6115   -2.4309 H   0  0  0  0  0  0  0  0  0  0  0  0
    5.4879   -0.3255   -3.4332 H   0  0  0  0  0  0  0  0  0  0  0  0
    6.4634   -1.2421   -2.2142 H   0  0  0  0  0  0  0  0  0  0  0  0
    3.0884    1.0993    2.4102 H   0  0  0  0  0  0  0  0  0  0  0  0
    7.1297   -2.4309    2.3442 H   0  0  0  0  0  0  0  0  0  0  0  0
    7.1706   -0.7689    3.0551 H   0  0  0  0  0  0  0  0  0  0  0  0
    6.0756   -2.0281    3.7541 H   0  0  0  0  0  0  0  0  0  0  0  0
  1 33  1  0  0  0  0
  1 34  1  0  0  0  0
  1 35  1  0  0  0  0
  2  1  1  0  0  0  0
  2 36  1  1  0  0  0
  3  2  1  0  0  0  0
  4  3  1  0  0  0  0
  4 37  1  6  0  0  0
  5  4  1  0  0  0  0
  6  5  1  0  0  0  0
  7  6  2  0  0  0  0
  7 38  1  0  0  0  0
  8  7  1  0  0  0  0
  9  8  2  0  0  0  0
 10  8  1  0  0  0  0
 11 10  2  0  0  0  0
 12 11  1  0  0  0  0
 12 39  1  0  0  0  0
 13 12  2  0  0  0  0
 13 40  1  0  0  0  0
 14 13  1  0  0  0  0
 14 41  1  0  0  0  0
 15 14  2  0  0  0  0
 15 10  1  0  0  0  0
 15 42  1  0  0  0  0
 16 11  1  0  0  0  0
 16  6  1  0  0  0  0
 17 16  2  0  0  0  0
 18  4  1  0  0  0  0
 18 43  1  6  0  0  0
 19 18  1  0  0  0  0
 20 19  1  0  0  0  0
 21 20  1  0  0  0  0
 21 44  1  0  0  0  0
 21 45  1  0  0  0  0
 21 46  1  0  0  0  0
 22 20  2  0  0  0  0
 23 18  1  0  0  0  0
 23 47  1  1  0  0  0
 24 23  1  0  0  0  0
 25 24  1  0  0  0  0
 26 25  1  0  0  0  0
 26 48  1  0  0  0  0
 26 49  1  0  0  0  0
 26 50  1  0  0  0  0
 27 25  2  0  0  0  0
 28 23  1  0  0  0  0
 28  2  1  0  0  0  0
 28 51  1  1  0  0  0
 29 28  1  0  0  0  0
 30 29  1  0  0  0  0
 31 30  1  0  0  0  0
 31 52  1  0  0  0  0
 31 53  1  0  0  0  0
 31 54  1  0  0  0  0
 32 30  2  0  0  0  0
M  END
>  <MOL Chiral Flag>
0

>  <energy>
117.40709467762294

$$$$
> 295_AKC_cbdd.13088
>286.sdf
 OpenBabel10062212143D

 56 60  0  0  0  0  0  0  0  0999 V2000
   -4.4208    4.5247    1.3027 O   0  0  0  0  0  0  0  0  0  0  0  0
   -3.1220    4.3262    1.0311 N   0  0  0  0  0  0  0  0  0  0  0  0
   -2.7414    3.3655    0.1517 C   0  0  0  0  0  0  0  0  0  0  0  0
   -3.5878    2.6894   -0.4170 O   0  0  0  0  0  0  0  0  0  0  0  0
   -1.2760    3.1400   -0.1566 C   0  0  0  0  0  0  0  0  0  0  0  0
   -0.6787    1.8358    0.2174 N   0  0  0  0  0  0  0  0  0  0  0  0
   -1.3366    0.8941    0.9762 C   0  0  0  0  0  0  0  0  0  0  0  0
   -2.4897    1.0633    1.3417 O   0  0  0  0  0  0  0  0  0  0  0  0
   -0.5984   -0.3199    1.4630 C   0  0  1  0  0  0  0  0  0  0  0  0
   -1.5425   -1.4432    1.9749 C   0  0  0  0  0  0  0  0  0  0  0  0
   -2.5296   -1.9525    0.9405 C   0  0  0  0  0  0  0  0  0  0  0  0
   -3.9097   -1.7541    1.1328 C   0  0  0  0  0  0  0  0  0  0  0  0
   -4.8296   -2.2218    0.1897 C   0  0  0  0  0  0  0  0  0  0  0  0
   -4.3843   -2.8961   -0.9489 C   0  0  0  0  0  0  0  0  0  0  0  0
   -3.0180   -3.1062   -1.1464 C   0  0  0  0  0  0  0  0  0  0  0  0
   -2.0923   -2.6391   -0.2083 C   0  0  0  0  0  0  0  0  0  0  0  0
    0.2800   -0.7805    0.3971 N   0  0  0  0  0  0  0  0  0  0  0  0
    1.3205    0.2112   -0.0037 C   0  0  2  0  0  0  0  0  0  0  0  0
    1.9829   -0.3169   -1.3439 C   0  0  1  0  0  0  0  0  0  0  0  0
    3.1202    0.6165   -1.8583 C   0  0  0  0  0  0  0  0  0  0  0  0
    4.2198    0.7425   -0.7806 C   0  0  2  0  0  0  0  0  0  0  0  0
    4.8392   -0.6460   -0.5352 C   0  0  0  0  0  0  0  0  0  0  0  0
    3.7456   -1.6108   -0.0412 C   0  0  2  0  0  0  0  0  0  0  0  0
    2.6381   -1.7153   -1.1199 C   0  0  0  0  0  0  0  0  0  0  0  0
    3.1684   -1.0694    1.2880 C   0  0  0  0  0  0  0  0  0  0  0  0
    2.5019    0.3165    1.0468 C   0  0  1  0  0  0  0  0  0  0  0  0
    3.6220    1.2750    0.5442 C   0  0  0  0  0  0  0  0  0  0  0  0
    0.6163    1.5939   -0.1985 C   0  0  0  0  0  0  0  0  0  0  0  0
    1.2231    2.4970   -0.7536 O   0  0  0  0  0  0  0  0  0  0  0  0
   -4.6953    5.2708    0.7104 H   0  0  0  0  0  0  0  0  0  0  0  0
   -2.4143    4.9014    1.5121 H   0  0  0  0  0  0  0  0  0  0  0  0
   -0.6739    3.9386    0.3305 H   0  0  0  0  0  0  0  0  0  0  0  0
   -1.1829    3.2790   -1.2567 H   0  0  0  0  0  0  0  0  0  0  0  0
    0.0283   -0.0136    2.3271 H   0  0  0  0  0  0  0  0  0  0  0  0
   -2.0964   -1.0327    2.8482 H   0  0  0  0  0  0  0  0  0  0  0  0
   -0.9437   -2.2989    2.3549 H   0  0  0  0  0  0  0  0  0  0  0  0
   -4.2726   -1.2335    2.0102 H   0  0  0  0  0  0  0  0  0  0  0  0
   -5.8891   -2.0617    0.3429 H   0  0  0  0  0  0  0  0  0  0  0  0
   -5.0984   -3.2591   -1.6768 H   0  0  0  0  0  0  0  0  0  0  0  0
   -2.6749   -3.6343   -2.0267 H   0  0  0  0  0  0  0  0  0  0  0  0
   -1.0424   -2.8239   -0.3789 H   0  0  0  0  0  0  0  0  0  0  0  0
    0.6747   -1.6967    0.6826 H   0  0  0  0  0  0  0  0  0  0  0  0
    1.2035   -0.4075   -2.1320 H   0  0  0  0  0  0  0  0  0  0  0  0
    2.7553    1.6138   -2.1527 H   0  0  0  0  0  0  0  0  0  0  0  0
    3.5595    0.1968   -2.7906 H   0  0  0  0  0  0  0  0  0  0  0  0
    5.0163    1.4308   -1.1383 H   0  0  0  0  0  0  0  0  0  0  0  0
    5.2913   -1.0327   -1.4752 H   0  0  0  0  0  0  0  0  0  0  0  0
    5.6531   -0.5728    0.2196 H   0  0  0  0  0  0  0  0  0  0  0  0
    4.2010   -2.6106    0.1288 H   0  0  0  0  0  0  0  0  0  0  0  0
    3.0825   -2.0807   -2.0723 H   0  0  0  0  0  0  0  0  0  0  0  0
    1.8926   -2.4829   -0.8379 H   0  0  0  0  0  0  0  0  0  0  0  0
    3.9874   -0.9684    2.0344 H   0  0  0  0  0  0  0  0  0  0  0  0
    2.4648   -1.7972    1.7335 H   0  0  0  0  0  0  0  0  0  0  0  0
    2.1210    0.7029    2.0149 H   0  0  0  0  0  0  0  0  0  0  0  0
    4.4267    1.3436    1.3093 H   0  0  0  0  0  0  0  0  0  0  0  0
    3.2485    2.3076    0.4137 H   0  0  0  0  0  0  0  0  0  0  0  0
  1 30  1  0  0  0  0
  2  1  1  0  0  0  0
  2 31  1  0  0  0  0
  3  2  1  0  0  0  0
  4  3  2  0  0  0  0
  5  3  1  0  0  0  0
  5 32  1  0  0  0  0
  5 33  1  0  0  0  0
  6  5  1  0  0  0  0
  7  6  1  0  0  0  0
  8  7  2  0  0  0  0
  9  7  1  0  0  0  0
  9 34  1  1  0  0  0
 10  9  1  0  0  0  0
 10 35  1  0  0  0  0
 10 36  1  0  0  0  0
 11 10  1  0  0  0  0
 12 11  2  0  0  0  0
 12 37  1  0  0  0  0
 13 12  1  0  0  0  0
 13 38  1  0  0  0  0
 14 13  2  0  0  0  0
 14 39  1  0  0  0  0
 15 14  1  0  0  0  0
 15 40  1  0  0  0  0
 16 15  2  0  0  0  0
 16 11  1  0  0  0  0
 16 41  1  0  0  0  0
 17  9  1  0  0  0  0
 17 42  1  0  0  0  0
 18 17  1  1  0  0  0
 19 18  1  0  0  0  0
 19 43  1  6  0  0  0
 20 19  1  0  0  0  0
 20 44  1  0  0  0  0
 20 45  1  0  0  0  0
 21 20  1  0  0  0  0
 21 46  1  6  0  0  0
 22 21  1  0  0  0  0
 22 47  1  0  0  0  0
 22 48  1  0  0  0  0
 23 22  1  0  0  0  0
 23 49  1  1  0  0  0
 24 23  1  0  0  0  0
 24 19  1  0  0  0  0
 24 50  1  0  0  0  0
 24 51  1  0  0  0  0
 25 23  1  0  0  0  0
 25 52  1  0  0  0  0
 25 53  1  0  0  0  0
 26 25  1  0  0  0  0
 26 18  1  0  0  0  0
 26 54  1  1  0  0  0
 27 26  1  0  0  0  0
 27 21  1  0  0  0  0
 27 55  1  0  0  0  0
 27 56  1  0  0  0  0
 28 18  1  0  0  0  0
 28  6  1  0  0  0  0
 29 28  2  0  0  0  0
M  END
>  <MOL Chiral Flag>
0

>  <energy>
156.53445555202103

$$$$
> 296_AKC_cbdd.13088
>286_2.sdf
 OpenBabel10102214103D

 56 60  0  0  0  0  0  0  0  0999 V2000
   -4.4616    4.5180    1.2123 O   0  0  0  0  0  0  0  0  0  0  0  0
   -3.1580    4.2626    1.0254 N   0  0  0  0  0  0  0  0  0  0  0  0
   -2.7557    3.3840    0.0710 C   0  0  0  0  0  0  0  0  0  0  0  0
   -3.5851    2.8347   -0.6409 O   0  0  0  0  0  0  0  0  0  0  0  0
   -1.2797    3.1267   -0.1549 C   0  0  0  0  0  0  0  0  0  0  0  0
   -0.7535    1.7496    0.0234 N   0  0  0  0  0  0  0  0  0  0  0  0
   -1.5275    0.6923    0.4292 C   0  0  0  0  0  0  0  0  0  0  0  0
   -2.6753    0.8582    0.8127 O   0  0  0  0  0  0  0  0  0  0  0  0
   -0.9721   -0.7093    0.3801 C   0  0  2  0  0  0  0  0  0  0  0  0
   -1.7559   -1.6745    1.3195 C   0  0  0  0  0  0  0  0  0  0  0  0
   -2.8979   -2.2673    0.5626 C   0  0  0  0  0  0  0  0  0  0  0  0
   -4.2304   -1.9613    0.8670 C   0  0  0  0  0  0  0  0  0  0  0  0
   -5.2579   -2.5060    0.0884 C   0  0  0  0  0  0  0  0  0  0  0  0
   -4.9545   -3.3641   -0.9769 C   0  0  0  0  0  0  0  0  0  0  0  0
   -3.6268   -3.6879   -1.2601 C   0  0  0  0  0  0  0  0  0  0  0  0
   -2.6044   -3.1424   -0.4947 C   0  0  0  0  0  0  0  0  0  0  0  0
    0.4140   -0.7054    0.7781 N   0  0  0  0  0  0  0  0  0  0  0  0
    1.3302    0.2130    0.0533 C   0  0  2  0  0  0  0  0  0  0  0  0
    1.9304   -0.3708   -1.3043 C   0  0  1  0  0  0  0  0  0  0  0  0
    3.0363    0.5776   -1.8845 C   0  0  0  0  0  0  0  0  0  0  0  0
    4.1854    0.7452   -0.8559 C   0  0  2  0  0  0  0  0  0  0  0  0
    4.8303   -0.6292   -0.5959 C   0  0  0  0  0  0  0  0  0  0  0  0
    3.7650   -1.5968   -0.0511 C   0  0  2  0  0  0  0  0  0  0  0  0
    2.6279   -1.7441   -1.0921 C   0  0  0  0  0  0  0  0  0  0  0  0
    3.2227   -1.0266    1.2817 C   0  0  0  0  0  0  0  0  0  0  0  0
    2.5515    0.3667    1.0310 C   0  0  1  0  0  0  0  0  0  0  0  0
    3.6461    1.3075    0.4771 C   0  0  0  0  0  0  0  0  0  0  0  0
    0.5909    1.5643   -0.2223 C   0  0  0  0  0  0  0  0  0  0  0  0
    1.2339    2.5087   -0.6509 O   0  0  0  0  0  0  0  0  0  0  0  0
   -4.6424    5.3312    0.6737 H   0  0  0  0  0  0  0  0  0  0  0  0
   -2.4627    4.7463    1.6137 H   0  0  0  0  0  0  0  0  0  0  0  0
   -0.7007    3.8004    0.5134 H   0  0  0  0  0  0  0  0  0  0  0  0
   -1.0814    3.4439   -1.2030 H   0  0  0  0  0  0  0  0  0  0  0  0
   -0.9804   -1.0568   -0.6771 H   0  0  0  0  0  0  0  0  0  0  0  0
   -2.0493   -1.1473    2.2574 H   0  0  0  0  0  0  0  0  0  0  0  0
   -1.1340   -2.5385    1.6445 H   0  0  0  0  0  0  0  0  0  0  0  0
   -4.4695   -1.2898    1.6831 H   0  0  0  0  0  0  0  0  0  0  0  0
   -6.2877   -2.2576    0.3037 H   0  0  0  0  0  0  0  0  0  0  0  0
   -5.7459   -3.7787   -1.5840 H   0  0  0  0  0  0  0  0  0  0  0  0
   -3.3838   -4.3543   -2.0767 H   0  0  0  0  0  0  0  0  0  0  0  0
   -1.5736   -3.3937   -0.7217 H   0  0  0  0  0  0  0  0  0  0  0  0
    0.7294   -1.6940    0.7146 H   0  0  0  0  0  0  0  0  0  0  0  0
    1.1232   -0.4949   -2.0596 H   0  0  0  0  0  0  0  0  0  0  0  0
    2.6394    1.5645   -2.1776 H   0  0  0  0  0  0  0  0  0  0  0  0
    3.4512    0.1534   -2.8261 H   0  0  0  0  0  0  0  0  0  0  0  0
    4.9614    1.4334   -1.2550 H   0  0  0  0  0  0  0  0  0  0  0  0
    5.2656   -1.0292   -1.5372 H   0  0  0  0  0  0  0  0  0  0  0  0
    5.6600   -0.5300    0.1396 H   0  0  0  0  0  0  0  0  0  0  0  0
    4.2366   -2.5885    0.1229 H   0  0  0  0  0  0  0  0  0  0  0  0
    3.0533   -2.1043   -2.0577 H   0  0  0  0  0  0  0  0  0  0  0  0
    1.9099   -2.5287   -0.7897 H   0  0  0  0  0  0  0  0  0  0  0  0
    4.0557   -0.9188    2.0075 H   0  0  0  0  0  0  0  0  0  0  0  0
    2.5333   -1.7547    1.7524 H   0  0  0  0  0  0  0  0  0  0  0  0
    2.1843    0.7677    2.0012 H   0  0  0  0  0  0  0  0  0  0  0  0
    4.4714    1.3834    1.2185 H   0  0  0  0  0  0  0  0  0  0  0  0
    3.2775    2.3396    0.3511 H   0  0  0  0  0  0  0  0  0  0  0  0
  1 30  1  0  0  0  0
  2  1  1  0  0  0  0
  2 31  1  0  0  0  0
  3  2  1  0  0  0  0
  4  3  2  0  0  0  0
  5  3  1  0  0  0  0
  5 32  1  0  0  0  0
  5 33  1  0  0  0  0
  6  5  1  0  0  0  0
  7  6  1  0  0  0  0
  8  7  2  0  0  0  0
  9  7  1  0  0  0  0
  9 34  1  6  0  0  0
 10  9  1  0  0  0  0
 10 35  1  0  0  0  0
 10 36  1  0  0  0  0
 11 10  1  0  0  0  0
 12 11  2  0  0  0  0
 12 37  1  0  0  0  0
 13 12  1  0  0  0  0
 13 38  1  0  0  0  0
 14 13  2  0  0  0  0
 14 39  1  0  0  0  0
 15 14  1  0  0  0  0
 15 40  1  0  0  0  0
 16 15  2  0  0  0  0
 16 11  1  0  0  0  0
 16 41  1  0  0  0  0
 17  9  1  0  0  0  0
 17 42  1  0  0  0  0
 18 17  1  1  0  0  0
 19 18  1  0  0  0  0
 19 43  1  6  0  0  0
 20 19  1  0  0  0  0
 20 44  1  0  0  0  0
 20 45  1  0  0  0  0
 21 20  1  0  0  0  0
 21 46  1  6  0  0  0
 22 21  1  0  0  0  0
 22 47  1  0  0  0  0
 22 48  1  0  0  0  0
 23 22  1  0  0  0  0
 23 49  1  1  0  0  0
 24 23  1  0  0  0  0
 24 19  1  0  0  0  0
 24 50  1  0  0  0  0
 24 51  1  0  0  0  0
 25 23  1  0  0  0  0
 25 52  1  0  0  0  0
 25 53  1  0  0  0  0
 26 25  1  0  0  0  0
 26 18  1  0  0  0  0
 26 54  1  1  0  0  0
 27 26  1  0  0  0  0
 27 21  1  0  0  0  0
 27 55  1  0  0  0  0
 27 56  1  0  0  0  0
 28 18  1  0  0  0  0
 28  6  1  0  0  0  0
 29 28  2  0  0  0  0
M  END
>  <MOL Chiral Flag>
0

>  <energy>
156.53445555202103

$$$$
> 297_AKC_s00044-017-2076-6
>287.sdf
 OpenBabel10102214123D

 61 63  0  0  0  0  0  0  0  0999 V2000
   -1.7769   -1.7564    0.0926 C   0  0  0  0  0  0  0  0  0  0  0  0
   -0.7941   -2.8037    0.6319 C   0  0  0  0  0  0  0  0  0  0  0  0
    0.0564   -3.5083   -0.4328 C   0  0  0  0  0  0  0  0  0  0  0  0
    1.0356   -4.4767    0.2596 C   0  0  0  0  0  0  0  0  0  0  0  0
    1.9255   -5.2301   -0.7363 C   0  0  0  0  0  0  0  0  0  0  0  0
    2.9358   -6.1296    0.0003 C   0  0  0  0  0  0  0  0  0  0  0  0
    3.8576   -6.8496   -0.9942 C   0  0  0  0  0  0  0  0  0  0  0  0
    5.0195   -7.6368   -0.3567 C   0  0  0  0  0  0  0  0  0  0  0  0
    4.5950   -8.8023    0.4239 N   0  3  0  0  0  0  0  0  0  0  0  0
    4.8342  -10.0922    0.1099 C   0  0  0  0  0  0  0  0  0  0  0  0
    4.3407  -10.9219    1.0474 N   0  0  0  0  0  0  0  0  0  0  0  0
    4.4151  -12.3769    1.0427 C   0  0  0  0  0  0  0  0  0  0  0  0
    3.7773  -10.1378    1.9882 C   0  0  0  0  0  0  0  0  0  0  0  0
    3.9379   -8.8221    1.6046 C   0  0  0  0  0  0  0  0  0  0  0  0
   -2.5376   -1.3554    1.1728 O   0  0  0  0  0  0  0  0  0  0  0  0
   -2.7119   -0.1301    1.7333 C   0  0  0  0  0  0  0  0  0  0  0  0
   -2.4793    1.0968    1.0693 C   0  0  0  0  0  0  0  0  0  0  0  0
   -2.7220    2.3224    1.7388 C   0  0  0  0  0  0  0  0  0  0  0  0
   -3.1807    2.3226    3.0775 C   0  0  0  0  0  0  0  0  0  0  0  0
   -3.3830    1.0832    3.7122 C   0  0  0  0  0  0  0  0  0  0  0  0
   -3.1617   -0.1113    3.0477 C   0  0  0  0  0  0  0  0  0  0  0  0
   -3.4969    3.5587    3.8715 C   0  0  0  0  0  0  0  0  0  0  0  0
   -3.8239    3.4036    5.0416 O   0  0  0  0  0  0  0  0  0  0  0  0
   -3.5044    4.9580    3.3340 C   0  0  0  0  0  0  0  0  0  0  0  0
   -3.9732    5.9498    4.1281 C   0  0  0  0  0  0  0  0  0  0  0  0
   -4.0846    7.3688    3.7530 C   0  0  0  0  0  0  0  0  0  0  0  0
   -4.6513    8.3294    4.5664 C   0  0  0  0  0  0  0  0  0  0  0  0
   -4.5728    9.5107    3.8717 C   0  0  0  0  0  0  0  0  0  0  0  0
   -3.9598    9.2086    2.6711 C   0  0  0  0  0  0  0  0  0  0  0  0
   -3.6837    7.9197    2.6300 O   0  0  0  0  0  0  0  0  0  0  0  0
   -1.2271   -0.9190   -0.3835 H   0  0  0  0  0  0  0  0  0  0  0  0
   -0.1257   -2.2929    1.3594 H   0  0  0  0  0  0  0  0  0  0  0  0
   -1.3729   -3.5842    1.1758 H   0  0  0  0  0  0  0  0  0  0  0  0
    0.6289   -2.7550   -1.0154 H   0  0  0  0  0  0  0  0  0  0  0  0
   -0.6074   -4.0724   -1.1252 H   0  0  0  0  0  0  0  0  0  0  0  0
    1.6860   -3.8886    0.9446 H   0  0  0  0  0  0  0  0  0  0  0  0
    0.4649   -5.2172    0.8634 H   0  0  0  0  0  0  0  0  0  0  0  0
    2.4815   -4.4897   -1.3518 H   0  0  0  0  0  0  0  0  0  0  0  0
    1.2906   -5.8504   -1.4064 H   0  0  0  0  0  0  0  0  0  0  0  0
    2.3778   -6.8688    0.6089 H   0  0  0  0  0  0  0  0  0  0  0  0
    3.5577   -5.4954    0.6701 H   0  0  0  0  0  0  0  0  0  0  0  0
    4.3254   -6.0737   -1.6393 H   0  0  0  0  0  0  0  0  0  0  0  0
    3.2606   -7.5254   -1.6443 H   0  0  0  0  0  0  0  0  0  0  0  0
    5.6489   -6.9720    0.2736 H   0  0  0  0  0  0  0  0  0  0  0  0
    5.6532   -7.9904   -1.2004 H   0  0  0  0  0  0  0  0  0  0  0  0
    5.3592  -10.4206   -0.7801 H   0  0  0  0  0  0  0  0  0  0  0  0
    5.4786  -12.6967    1.0284 H   0  0  0  0  0  0  0  0  0  0  0  0
    3.9270  -12.7974    1.9478 H   0  0  0  0  0  0  0  0  0  0  0  0
    3.9029  -12.7744    0.1413 H   0  0  0  0  0  0  0  0  0  0  0  0
    3.2959  -10.4969    2.8888 H   0  0  0  0  0  0  0  0  0  0  0  0
    3.6147   -7.9512    2.1573 H   0  0  0  0  0  0  0  0  0  0  0  0
   -2.1362    1.1137    0.0436 H   0  0  0  0  0  0  0  0  0  0  0  0
   -2.5540    3.2515    1.2111 H   0  0  0  0  0  0  0  0  0  0  0  0
   -3.7341    1.0338    4.7345 H   0  0  0  0  0  0  0  0  0  0  0  0
   -3.3403   -1.0446    3.5666 H   0  0  0  0  0  0  0  0  0  0  0  0
   -3.1741    5.1757    2.3232 H   0  0  0  0  0  0  0  0  0  0  0  0
   -4.3247    5.7066    5.1263 H   0  0  0  0  0  0  0  0  0  0  0  0
   -5.0776    8.1821    5.5514 H   0  0  0  0  0  0  0  0  0  0  0  0
   -4.9243   10.4789    4.2058 H   0  0  0  0  0  0  0  0  0  0  0  0
   -3.7382    9.9140    1.8820 H   0  0  0  0  0  0  0  0  0  0  0  0
   -2.4518   -2.2250   -0.6563 H   0  0  0  0  0  0  0  0  0  0  0  0
  1 31  1  0  0  0  0
  1 61  1  0  0  0  0
  2  1  1  0  0  0  0
  2 32  1  0  0  0  0
  2 33  1  0  0  0  0
  3  2  1  0  0  0  0
  3 34  1  0  0  0  0
  3 35  1  0  0  0  0
  4  3  1  0  0  0  0
  4 36  1  0  0  0  0
  4 37  1  0  0  0  0
  5  4  1  0  0  0  0
  5 38  1  0  0  0  0
  5 39  1  0  0  0  0
  6  5  1  0  0  0  0
  6 40  1  0  0  0  0
  6 41  1  0  0  0  0
  7  6  1  0  0  0  0
  7 42  1  0  0  0  0
  7 43  1  0  0  0  0
  8  7  1  0  0  0  0
  8 44  1  0  0  0  0
  8 45  1  0  0  0  0
  9  8  1  0  0  0  0
 10  9  2  0  0  0  0
 10 46  1  0  0  0  0
 11 10  1  0  0  0  0
 12 11  1  0  0  0  0
 12 47  1  0  0  0  0
 12 48  1  0  0  0  0
 12 49  1  0  0  0  0
 13 11  1  0  0  0  0
 13 50  1  0  0  0  0
 14 13  2  0  0  0  0
 14  9  1  0  0  0  0
 14 51  1  0  0  0  0
 15  1  1  0  0  0  0
 16 15  1  0  0  0  0
 17 16  2  0  0  0  0
 17 52  1  0  0  0  0
 18 17  1  0  0  0  0
 18 53  1  0  0  0  0
 19 18  2  0  0  0  0
 20 19  1  0  0  0  0
 20 54  1  0  0  0  0
 21 20  2  0  0  0  0
 21 16  1  0  0  0  0
 21 55  1  0  0  0  0
 22 19  1  0  0  0  0
 23 22  2  0  0  0  0
 24 22  1  0  0  0  0
 24 56  1  0  0  0  0
 25 24  2  0  0  0  0
 25 57  1  0  0  0  0
 26 25  1  0  0  0  0
 27 26  2  0  0  0  0
 27 58  1  0  0  0  0
 28 27  1  0  0  0  0
 28 59  1  0  0  0  0
 29 28  2  0  0  0  0
 29 60  1  0  0  0  0
 30 29  1  0  0  0  0
 30 26  1  0  0  0  0
M  CHG  1   9   1
M  END
>  <MOL Chiral Flag>
0

>  <energy>
92.692540611066718

$$$$
> 298_AKC_s00044-017-2076-6
>288.sdf
 OpenBabel10062212163D

 73 75  0  0  0  0  0  0  0  0999 V2000
   -4.3601   -0.4886    6.5706 C   0  0  0  0  0  0  0  0  0  0  0  0
   -4.0817    0.4545    5.4003 C   0  0  0  0  0  0  0  0  0  0  0  0
   -2.8349    0.0249    4.6117 C   0  0  0  0  0  0  0  0  0  0  0  0
   -2.5032    1.0320    3.4921 C   0  0  0  0  0  0  0  0  0  0  0  0
   -1.1689    0.6930    2.7961 C   0  0  2  0  0  0  0  0  0  0  0  0
   -0.6622    1.8417    1.8854 C   0  0  0  0  0  0  0  0  0  0  0  0
   -1.5022    2.1881    0.6256 C   0  0  0  0  0  0  0  0  0  0  0  0
   -0.7678    3.3184   -0.1284 C   0  0  0  0  0  0  0  0  0  0  0  0
   -1.4670    3.9837   -1.3302 C   0  0  0  0  0  0  0  0  0  0  0  0
   -1.5809    3.1533   -2.6246 C   0  0  0  0  0  0  0  0  0  0  0  0
   -1.9922    4.0873   -3.7896 C   0  0  0  0  0  0  0  0  0  0  0  0
   -2.0841    3.3787   -5.1533 C   0  0  0  0  0  0  0  0  0  0  0  0
   -2.3699    4.3056   -6.2645 N   0  3  0  0  0  0  0  0  0  0  0  0
   -2.5113    3.9487   -7.5596 C   0  0  0  0  0  0  0  0  0  0  0  0
   -2.7570    5.0223   -8.3386 N   0  0  0  0  0  0  0  0  0  0  0  0
   -2.9668    5.0397   -9.7822 C   0  0  0  0  0  0  0  0  0  0  0  0
   -2.7708    6.0903   -7.5199 C   0  0  0  0  0  0  0  0  0  0  0  0
   -2.5326    5.6506   -6.2338 C   0  0  0  0  0  0  0  0  0  0  0  0
   -1.2729   -0.4797    2.0645 O   0  0  0  0  0  0  0  0  0  0  0  0
   -0.2217   -1.0808    1.4427 C   0  0  0  0  0  0  0  0  0  0  0  0
    1.0685   -1.1250    2.0120 C   0  0  0  0  0  0  0  0  0  0  0  0
    2.1319   -1.7165    1.3161 C   0  0  0  0  0  0  0  0  0  0  0  0
    1.9272   -2.2608    0.0313 C   0  0  0  0  0  0  0  0  0  0  0  0
    0.6297   -2.2153   -0.5184 C   0  0  0  0  0  0  0  0  0  0  0  0
   -0.4292   -1.6440    0.1858 C   0  0  0  0  0  0  0  0  0  0  0  0
    3.0281   -2.8845   -0.7715 C   0  0  0  0  0  0  0  0  0  0  0  0
    2.7790   -3.2406   -1.9158 O   0  0  0  0  0  0  0  0  0  0  0  0
    4.4023   -3.1298   -0.2364 C   0  0  0  0  0  0  0  0  0  0  0  0
    5.3256   -3.7511   -0.9954 C   0  0  0  0  0  0  0  0  0  0  0  0
    6.6755   -4.0744   -0.5043 C   0  0  0  0  0  0  0  0  0  0  0  0
    7.6282   -4.7633   -1.2247 C   0  0  0  0  0  0  0  0  0  0  0  0
    8.7206   -4.8750   -0.3967 C   0  0  0  0  0  0  0  0  0  0  0  0
    8.3749   -4.2453    0.7828 C   0  0  0  0  0  0  0  0  0  0  0  0
    7.1476   -3.7801    0.6864 O   0  0  0  0  0  0  0  0  0  0  0  0
   -3.4987   -0.4989    7.2732 H   0  0  0  0  0  0  0  0  0  0  0  0
   -4.5455   -1.5207    6.2065 H   0  0  0  0  0  0  0  0  0  0  0  0
   -5.2571   -0.1398    7.1259 H   0  0  0  0  0  0  0  0  0  0  0  0
   -4.9653    0.4742    4.7272 H   0  0  0  0  0  0  0  0  0  0  0  0
   -3.9252    1.4753    5.8135 H   0  0  0  0  0  0  0  0  0  0  0  0
   -2.9865   -0.9898    4.1835 H   0  0  0  0  0  0  0  0  0  0  0  0
   -1.9779   -0.0145    5.3209 H   0  0  0  0  0  0  0  0  0  0  0  0
   -3.3318    1.0836    2.7534 H   0  0  0  0  0  0  0  0  0  0  0  0
   -2.3945    2.0299    3.9715 H   0  0  0  0  0  0  0  0  0  0  0  0
   -0.4209    0.5779    3.6101 H   0  0  0  0  0  0  0  0  0  0  0  0
    0.3594    1.5680    1.5440 H   0  0  0  0  0  0  0  0  0  0  0  0
   -0.5603    2.7529    2.5146 H   0  0  0  0  0  0  0  0  0  0  0  0
   -2.5098    2.5357    0.9381 H   0  0  0  0  0  0  0  0  0  0  0  0
   -1.6139    1.3014   -0.0354 H   0  0  0  0  0  0  0  0  0  0  0  0
    0.2349    2.9598   -0.4506 H   0  0  0  0  0  0  0  0  0  0  0  0
   -0.6136    4.1387    0.6066 H   0  0  0  0  0  0  0  0  0  0  0  0
   -0.8227    4.8579   -1.5734 H   0  0  0  0  0  0  0  0  0  0  0  0
   -2.4643    4.3726   -1.0313 H   0  0  0  0  0  0  0  0  0  0  0  0
   -0.5872    2.7187   -2.8699 H   0  0  0  0  0  0  0  0  0  0  0  0
   -2.3119    2.3269   -2.4918 H   0  0  0  0  0  0  0  0  0  0  0  0
   -2.9720    4.5612   -3.5617 H   0  0  0  0  0  0  0  0  0  0  0  0
   -1.2192    4.8832   -3.8755 H   0  0  0  0  0  0  0  0  0  0  0  0
   -1.1171    2.8729   -5.3649 H   0  0  0  0  0  0  0  0  0  0  0  0
   -2.8840    2.6092   -5.1060 H   0  0  0  0  0  0  0  0  0  0  0  0
   -2.4359    2.9323   -7.9266 H   0  0  0  0  0  0  0  0  0  0  0  0
   -3.9705    5.4573  -10.0102 H   0  0  0  0  0  0  0  0  0  0  0  0
   -2.1934    5.6724  -10.2674 H   0  0  0  0  0  0  0  0  0  0  0  0
   -2.9033    4.0127  -10.2005 H   0  0  0  0  0  0  0  0  0  0  0  0
   -2.9401    7.1121   -7.8368 H   0  0  0  0  0  0  0  0  0  0  0  0
   -2.4797    6.2744   -5.3522 H   0  0  0  0  0  0  0  0  0  0  0  0
    1.2588   -0.7064    2.9903 H   0  0  0  0  0  0  0  0  0  0  0  0
    3.1041   -1.7262    1.7843 H   0  0  0  0  0  0  0  0  0  0  0  0
    0.4328   -2.6237   -1.5009 H   0  0  0  0  0  0  0  0  0  0  0  0
   -1.4141   -1.6129   -0.2621 H   0  0  0  0  0  0  0  0  0  0  0  0
    4.6617   -2.8414    0.7750 H   0  0  0  0  0  0  0  0  0  0  0  0
    5.0769   -4.0585   -2.0069 H   0  0  0  0  0  0  0  0  0  0  0  0
    7.5339   -5.1479   -2.2322 H   0  0  0  0  0  0  0  0  0  0  0  0
    9.6586   -5.3634   -0.6254 H   0  0  0  0  0  0  0  0  0  0  0  0
    9.0026   -4.1476    1.6582 H   0  0  0  0  0  0  0  0  0  0  0  0
  1 35  1  0  0  0  0
  1 36  1  0  0  0  0
  1 37  1  0  0  0  0
  2  1  1  0  0  0  0
  2 38  1  0  0  0  0
  2 39  1  0  0  0  0
  3  2  1  0  0  0  0
  3 40  1  0  0  0  0
  3 41  1  0  0  0  0
  4  3  1  0  0  0  0
  4 42  1  0  0  0  0
  4 43  1  0  0  0  0
  5  4  1  0  0  0  0
  5 44  1  1  0  0  0
  6  5  1  0  0  0  0
  6 45  1  0  0  0  0
  6 46  1  0  0  0  0
  7  6  1  0  0  0  0
  7 47  1  0  0  0  0
  7 48  1  0  0  0  0
  8  7  1  0  0  0  0
  8 49  1  0  0  0  0
  8 50  1  0  0  0  0
  9  8  1  0  0  0  0
  9 51  1  0  0  0  0
  9 52  1  0  0  0  0
 10  9  1  0  0  0  0
 10 53  1  0  0  0  0
 10 54  1  0  0  0  0
 11 10  1  0  0  0  0
 11 55  1  0  0  0  0
 11 56  1  0  0  0  0
 12 11  1  0  0  0  0
 12 57  1  0  0  0  0
 12 58  1  0  0  0  0
 13 12  1  0  0  0  0
 14 13  2  0  0  0  0
 14 59  1  0  0  0  0
 15 14  1  0  0  0  0
 16 15  1  0  0  0  0
 16 60  1  0  0  0  0
 16 61  1  0  0  0  0
 16 62  1  0  0  0  0
 17 15  1  0  0  0  0
 17 63  1  0  0  0  0
 18 17  2  0  0  0  0
 18 13  1  0  0  0  0
 18 64  1  0  0  0  0
 19  5  1  0  0  0  0
 20 19  1  0  0  0  0
 21 20  2  0  0  0  0
 21 65  1  0  0  0  0
 22 21  1  0  0  0  0
 22 66  1  0  0  0  0
 23 22  2  0  0  0  0
 24 23  1  0  0  0  0
 24 67  1  0  0  0  0
 25 24  2  0  0  0  0
 25 20  1  0  0  0  0
 25 68  1  0  0  0  0
 26 23  1  0  0  0  0
 27 26  2  0  0  0  0
 28 26  1  0  0  0  0
 28 69  1  0  0  0  0
 29 28  2  0  0  0  0
 29 70  1  0  0  0  0
 30 29  1  0  0  0  0
 31 30  2  0  0  0  0
 31 71  1  0  0  0  0
 32 31  1  0  0  0  0
 32 72  1  0  0  0  0
 33 32  2  0  0  0  0
 33 73  1  0  0  0  0
 34 33  1  0  0  0  0
 34 30  1  0  0  0  0
M  CHG  1  13   1
M  END
>  <MOL Chiral Flag>
0

>  <energy>
93.856596508335727

$$$$
> 299_AKC_acs.jnatprod.7b00876
>289.sdf
 OpenBabel10062212163D

 48 49  0  0  0  0  0  0  0  0999 V2000
    9.2964    0.7220   -5.4171 Br  0  0  0  0  0  0  0  0  0  0  0  0
    7.6494    0.5002   -4.4830 C   0  0  0  0  0  0  0  0  0  0  0  0
    6.8840    1.5084   -3.8969 C   0  0  0  0  0  0  0  0  0  0  0  0
    5.7097    1.0240   -3.2572 C   0  0  0  0  0  0  0  0  0  0  0  0
    5.5627   -0.3714   -3.3431 C   0  0  0  0  0  0  0  0  0  0  0  0
    6.8735   -0.9365   -4.1951 S   0  0  0  0  0  0  0  0  0  0  0  0
    4.4983   -1.2089   -2.7341 C   0  0  0  0  0  0  0  0  0  0  0  0
    4.5931   -2.4266   -2.7951 O   0  0  0  0  0  0  0  0  0  0  0  0
    3.4561   -0.6307   -2.0708 N   0  0  0  0  0  0  0  0  0  0  0  0
    2.4881   -1.3780   -1.2862 C   0  0  0  0  0  0  0  0  0  0  0  0
    1.0517   -1.1483   -1.7807 C   0  0  0  0  0  0  0  0  0  0  0  0
    0.0515   -1.5263   -0.6731 C   0  0  0  0  0  0  0  0  0  0  0  0
   -1.4124   -1.4233   -1.1268 C   0  0  0  0  0  0  0  0  0  0  0  0
   -2.3263   -1.4579    0.0336 N   0  3  0  0  0  0  0  0  0  0  0  0
   -3.6992   -1.7875   -0.3817 C   0  0  0  0  0  0  0  0  0  0  0  0
   -4.7416   -1.4214    0.6962 C   0  0  0  0  0  0  0  0  0  0  0  0
   -6.0975   -2.0399    0.3201 C   0  0  0  0  0  0  0  0  0  0  0  0
   -7.1889   -1.6105    1.1794 N   0  0  0  0  0  0  0  0  0  0  0  0
   -7.7859   -0.3919    1.0286 C   0  0  0  0  0  0  0  0  0  0  0  0
   -7.3535    0.4075    0.2107 O   0  0  0  0  0  0  0  0  0  0  0  0
   -9.0190   -0.0556    1.7795 C   0  0  0  0  0  0  0  0  0  0  0  0
   -9.8258    1.0732    1.5740 C   0  0  0  0  0  0  0  0  0  0  0  0
  -10.9795    1.1018    2.4074 C   0  0  0  0  0  0  0  0  0  0  0  0
  -11.0689    0.0025    3.2633 C   0  0  0  0  0  0  0  0  0  0  0  0
  -12.4523   -0.3476    4.5276 Br  0  0  0  0  0  0  0  0  0  0  0  0
   -9.7527   -0.9601    2.9659 S   0  0  0  0  0  0  0  0  0  0  0  0
    7.1608    2.5545   -3.9157 H   0  0  0  0  0  0  0  0  0  0  0  0
    5.0250    1.6818   -2.7419 H   0  0  0  0  0  0  0  0  0  0  0  0
    3.3752    0.3950   -2.0535 H   0  0  0  0  0  0  0  0  0  0  0  0
    2.5827   -0.9995   -0.2461 H   0  0  0  0  0  0  0  0  0  0  0  0
    2.6952   -2.4710   -1.2633 H   0  0  0  0  0  0  0  0  0  0  0  0
    0.8885   -1.7299   -2.7148 H   0  0  0  0  0  0  0  0  0  0  0  0
    0.8955   -0.0700   -2.0036 H   0  0  0  0  0  0  0  0  0  0  0  0
    0.2194   -0.8210    0.1704 H   0  0  0  0  0  0  0  0  0  0  0  0
    0.2338   -2.5617   -0.3088 H   0  0  0  0  0  0  0  0  0  0  0  0
   -1.6091   -2.2641   -1.8310 H   0  0  0  0  0  0  0  0  0  0  0  0
   -1.5786   -0.4668   -1.6725 H   0  0  0  0  0  0  0  0  0  0  0  0
   -2.2968   -0.5182    0.4956 H   0  0  0  0  0  0  0  0  0  0  0  0
   -2.0194   -2.1820    0.7260 H   0  0  0  0  0  0  0  0  0  0  0  0
   -3.7413   -2.8800   -0.5966 H   0  0  0  0  0  0  0  0  0  0  0  0
   -3.9771   -1.2405   -1.3115 H   0  0  0  0  0  0  0  0  0  0  0  0
   -4.8028   -0.3136    0.7647 H   0  0  0  0  0  0  0  0  0  0  0  0
   -4.4415   -1.8211    1.6899 H   0  0  0  0  0  0  0  0  0  0  0  0
   -5.9842   -3.1430    0.4078 H   0  0  0  0  0  0  0  0  0  0  0  0
   -6.3669   -1.8179   -0.7356 H   0  0  0  0  0  0  0  0  0  0  0  0
   -7.6018   -2.3006    1.8237 H   0  0  0  0  0  0  0  0  0  0  0  0
   -9.6103    1.8398    0.8413 H   0  0  0  0  0  0  0  0  0  0  0  0
  -11.7181    1.8922    2.3743 H   0  0  0  0  0  0  0  0  0  0  0  0
  2  1  1  0  0  0  0
  3  2  2  0  0  0  0
  3 27  1  0  0  0  0
  4  3  1  0  0  0  0
  4 28  1  0  0  0  0
  5  4  2  0  0  0  0
  6  5  1  0  0  0  0
  6  2  1  0  0  0  0
  7  5  1  0  0  0  0
  8  7  2  0  0  0  0
  9  7  1  0  0  0  0
  9 29  1  0  0  0  0
 10  9  1  0  0  0  0
 10 30  1  0  0  0  0
 10 31  1  0  0  0  0
 11 10  1  0  0  0  0
 11 32  1  0  0  0  0
 11 33  1  0  0  0  0
 12 11  1  0  0  0  0
 12 34  1  0  0  0  0
 12 35  1  0  0  0  0
 13 12  1  0  0  0  0
 13 36  1  0  0  0  0
 13 37  1  0  0  0  0
 14 13  1  0  0  0  0
 14 38  1  0  0  0  0
 14 39  1  0  0  0  0
 15 14  1  0  0  0  0
 15 40  1  0  0  0  0
 15 41  1  0  0  0  0
 16 15  1  0  0  0  0
 16 42  1  0  0  0  0
 16 43  1  0  0  0  0
 17 16  1  0  0  0  0
 17 44  1  0  0  0  0
 17 45  1  0  0  0  0
 18 17  1  0  0  0  0
 18 46  1  0  0  0  0
 19 18  1  0  0  0  0
 20 19  2  0  0  0  0
 21 19  1  0  0  0  0
 22 21  2  0  0  0  0
 22 47  1  0  0  0  0
 23 22  1  0  0  0  0
 23 48  1  0  0  0  0
 24 23  2  0  0  0  0
 25 24  1  0  0  0  0
 26 24  1  0  0  0  0
 26 21  1  0  0  0  0
M  CHG  1  14   1
M  END
>  <MOL Chiral Flag>
0

>  <energy>
-22.897961323921809

$$$$
> 300_AKC_1568026618666181002110116
>290.sdf
 OpenBabel10062212173D

 60 64  0  0  0  0  0  0  0  0999 V2000
   -2.3219    4.7716   -3.0570 C   0  0  0  0  0  0  0  0  0  0  0  0
   -1.2876    3.9860   -3.8696 C   0  0  0  0  0  0  0  0  0  0  0  0
   -1.1985    2.5049   -3.4696 C   0  0  0  0  0  0  0  0  0  0  0  0
   -2.4758    1.7172   -3.8020 C   0  0  0  0  0  0  0  0  0  0  0  0
   -2.3691    0.2417   -3.3651 C   0  0  0  0  0  0  0  0  0  0  0  0
   -2.1123    0.1194   -1.9061 N   0  0  0  0  0  0  0  0  0  0  0  0
   -3.0588    0.6675   -1.0915 C   0  0  0  0  0  0  0  0  0  0  0  0
   -2.9557    0.6431    0.2906 C   0  0  0  0  0  0  0  0  0  0  0  0
   -4.0084    1.3541    1.0362 C   0  0  0  0  0  0  0  0  0  0  0  0
   -4.2057    2.5273    0.7594 O   0  0  0  0  0  0  0  0  0  0  0  0
   -4.9038    0.6576    1.7877 O   0  0  0  0  0  0  0  0  0  0  0  0
   -6.2646    0.9458    1.9502 C   0  0  0  0  0  0  0  0  0  0  0  0
   -6.8349    2.0998    1.0999 C   0  0  0  0  0  0  0  0  0  0  0  0
   -1.8592    0.0165    0.8913 C   0  0  0  0  0  0  0  0  0  0  0  0
   -1.7574   -0.0012    2.1081 O   0  0  0  0  0  0  0  0  0  0  0  0
   -0.8448   -0.5314    0.0722 C   0  0  0  0  0  0  0  0  0  0  0  0
   -0.9865   -0.4734   -1.3497 C   0  0  0  0  0  0  0  0  0  0  0  0
    0.0518   -1.0151   -2.1438 C   0  0  0  0  0  0  0  0  0  0  0  0
    1.2002   -1.5348   -1.5640 C   0  0  0  0  0  0  0  0  0  0  0  0
    1.3708   -1.5499   -0.1793 C   0  0  0  0  0  0  0  0  0  0  0  0
    0.3266   -1.0897    0.6405 C   0  0  0  0  0  0  0  0  0  0  0  0
    2.6029   -2.0303    0.4003 N   0  0  0  0  0  0  0  0  0  0  0  0
    2.6626   -2.6839    1.5565 N   0  0  0  0  0  0  0  0  0  0  0  0
    3.9198   -3.0158    1.8385 N   0  0  0  0  0  0  0  0  0  0  0  0
    4.6820   -2.5357    0.8381 C   0  0  0  0  0  0  0  0  0  0  0  0
    3.8748   -1.9084   -0.0567 C   0  0  0  0  0  0  0  0  0  0  0  0
    4.4469   -1.1843   -1.2212 C   0  0  0  0  0  0  0  0  0  0  0  0
    3.7518   -0.4999   -1.9532 O   0  0  0  0  0  0  0  0  0  0  0  0
    5.9282   -1.2202   -1.4150 C   0  0  0  0  0  0  0  0  0  0  0  0
    6.7567   -1.9115   -0.4857 C   0  0  0  0  0  0  0  0  0  0  0  0
    8.1496   -1.9222   -0.6800 C   0  0  0  0  0  0  0  0  0  0  0  0
    8.7148   -1.2590   -1.7736 C   0  0  0  0  0  0  0  0  0  0  0  0
    7.9019   -0.5794   -2.6822 C   0  0  0  0  0  0  0  0  0  0  0  0
    6.5173   -0.5576   -2.5068 C   0  0  0  0  0  0  0  0  0  0  0  0
    6.1417   -2.5976    0.6913 C   0  0  0  0  0  0  0  0  0  0  0  0
    6.8260   -3.1808    1.5184 O   0  0  0  0  0  0  0  0  0  0  0  0
   -2.0876    4.7096   -1.9725 H   0  0  0  0  0  0  0  0  0  0  0  0
   -2.2972    5.8386   -3.3622 H   0  0  0  0  0  0  0  0  0  0  0  0
   -3.3513    4.3984   -3.2288 H   0  0  0  0  0  0  0  0  0  0  0  0
   -0.2952    4.4506   -3.6851 H   0  0  0  0  0  0  0  0  0  0  0  0
   -1.5165    4.0715   -4.9535 H   0  0  0  0  0  0  0  0  0  0  0  0
   -0.3517    2.0392   -4.0183 H   0  0  0  0  0  0  0  0  0  0  0  0
   -0.9774    2.4477   -2.3810 H   0  0  0  0  0  0  0  0  0  0  0  0
   -3.3455    2.1857   -3.3072 H   0  0  0  0  0  0  0  0  0  0  0  0
   -2.6672    1.7562   -4.8957 H   0  0  0  0  0  0  0  0  0  0  0  0
   -1.6155   -0.2271   -4.0074 H   0  0  0  0  0  0  0  0  0  0  0  0
   -3.3250   -0.2734   -3.6067 H   0  0  0  0  0  0  0  0  0  0  0  0
   -3.9338    1.1412   -1.5198 H   0  0  0  0  0  0  0  0  0  0  0  0
   -6.4749    1.1458    3.0203 H   0  0  0  0  0  0  0  0  0  0  0  0
   -6.8296    0.0363    1.6539 H   0  0  0  0  0  0  0  0  0  0  0  0
   -6.6404    1.9228    0.0184 H   0  0  0  0  0  0  0  0  0  0  0  0
   -7.9328    2.1714    1.2419 H   0  0  0  0  0  0  0  0  0  0  0  0
   -6.4095    3.0785    1.4065 H   0  0  0  0  0  0  0  0  0  0  0  0
    0.0273   -1.0355   -3.2145 H   0  0  0  0  0  0  0  0  0  0  0  0
    1.9594   -1.9427   -2.2134 H   0  0  0  0  0  0  0  0  0  0  0  0
    0.4544   -1.1126    1.7164 H   0  0  0  0  0  0  0  0  0  0  0  0
    8.7986   -2.4383    0.0158 H   0  0  0  0  0  0  0  0  0  0  0  0
    9.7879   -1.2684   -1.9159 H   0  0  0  0  0  0  0  0  0  0  0  0
    8.3461   -0.0650   -3.5252 H   0  0  0  0  0  0  0  0  0  0  0  0
    5.9050   -0.0222   -3.2222 H   0  0  0  0  0  0  0  0  0  0  0  0
  1 37  1  0  0  0  0
  1 38  1  0  0  0  0
  1 39  1  0  0  0  0
  2  1  1  0  0  0  0
  2 40  1  0  0  0  0
  2 41  1  0  0  0  0
  3  2  1  0  0  0  0
  3 42  1  0  0  0  0
  3 43  1  0  0  0  0
  4  3  1  0  0  0  0
  4 44  1  0  0  0  0
  4 45  1  0  0  0  0
  5  4  1  0  0  0  0
  5 46  1  0  0  0  0
  5 47  1  0  0  0  0
  6  5  1  0  0  0  0
  7  6  1  0  0  0  0
  7 48  1  0  0  0  0
  8  7  2  0  0  0  0
  9  8  1  0  0  0  0
 10  9  2  0  0  0  0
 11  9  1  0  0  0  0
 12 11  1  0  0  0  0
 12 49  1  0  0  0  0
 12 50  1  0  0  0  0
 13 12  1  0  0  0  0
 13 51  1  0  0  0  0
 13 52  1  0  0  0  0
 13 53  1  0  0  0  0
 14  8  1  0  0  0  0
 15 14  2  0  0  0  0
 16 14  1  0  0  0  0
 17 16  2  0  0  0  0
 17  6  1  0  0  0  0
 18 17  1  0  0  0  0
 18 54  1  0  0  0  0
 19 18  2  0  0  0  0
 19 55  1  0  0  0  0
 20 19  1  0  0  0  0
 21 20  2  0  0  0  0
 21 16  1  0  0  0  0
 21 56  1  0  0  0  0
 22 20  1  0  0  0  0
 23 22  1  0  0  0  0
 24 23  2  0  0  0  0
 25 24  1  0  0  0  0
 26 25  2  0  0  0  0
 26 22  1  0  0  0  0
 27 26  1  0  0  0  0
 28 27  2  0  0  0  0
 29 27  1  0  0  0  0
 30 29  2  0  0  0  0
 31 30  1  0  0  0  0
 31 57  1  0  0  0  0
 32 31  2  0  0  0  0
 32 58  1  0  0  0  0
 33 32  1  0  0  0  0
 33 59  1  0  0  0  0
 34 33  2  0  0  0  0
 34 29  1  0  0  0  0
 34 60  1  0  0  0  0
 35 30  1  0  0  0  0
 35 25  1  0  0  0  0
 36 35  2  0  0  0  0
M  END
>  <MOL Chiral Flag>
0

>  <energy>
118.04041113172558

$$$$
> 301_AKC_0103-5053.20180134
>291.sdf
 OpenBabel10062212173D

 51 55  0  0  0  0  0  0  0  0999 V2000
   -3.4611   -2.6079    1.7518 O   0  0  0  0  0  0  0  0  0  0  0  0
   -2.2611   -2.3744    1.7221 C   0  0  0  0  0  0  0  0  0  0  0  0
   -1.3678   -3.3917    1.7934 N   0  0  0  0  0  0  0  0  0  0  0  0
   -1.7736   -4.6987    1.9278 N   0  0  0  0  0  0  0  0  0  0  0  0
   -1.1269   -5.6274    1.3128 C   0  0  0  0  0  0  0  0  0  0  0  0
   -1.4075   -7.0577    1.5317 C   0  0  0  0  0  0  0  0  0  0  0  0
   -0.7102   -8.0088    0.7695 C   0  0  0  0  0  0  0  0  0  0  0  0
   -0.9051   -9.3727    0.9947 C   0  0  0  0  0  0  0  0  0  0  0  0
   -1.7942   -9.7973    1.9846 C   0  0  0  0  0  0  0  0  0  0  0  0
   -2.5016   -8.8573    2.7407 C   0  0  0  0  0  0  0  0  0  0  0  0
   -2.3153   -7.4894    2.5143 C   0  0  0  0  0  0  0  0  0  0  0  0
   -1.7826   -1.0137    1.3987 C   0  0  0  0  0  0  0  0  0  0  0  0
   -2.4904   -0.2654    0.5128 N   0  0  0  0  0  0  0  0  0  0  0  0
   -2.0826    0.9266    0.0467 N   0  0  0  0  0  0  0  0  0  0  0  0
   -2.9380    1.5542   -0.9673 C   0  0  0  0  0  0  0  0  0  0  0  0
   -2.7739    2.8860   -1.4324 C   0  0  0  0  0  0  0  0  0  0  0  0
   -3.6085    3.3983   -2.4323 C   0  0  0  0  0  0  0  0  0  0  0  0
   -4.6139    2.6107   -2.9885 C   0  0  0  0  0  0  0  0  0  0  0  0
   -4.8005    1.3072   -2.5427 C   0  0  0  0  0  0  0  0  0  0  0  0
   -3.9801    0.7834   -1.5441 C   0  0  0  0  0  0  0  0  0  0  0  0
   -0.8583    1.4494    0.4923 C   0  0  0  0  0  0  0  0  0  0  0  0
   -0.4567    2.5280    0.1177 O   0  0  0  0  0  0  0  0  0  0  0  0
   -0.1002    0.6909    1.4039 C   0  0  0  0  0  0  0  0  0  0  0  0
   -0.5756   -0.4981    1.8578 C   0  0  0  0  0  0  0  0  0  0  0  0
    0.3510   -0.9569    2.7721 C   0  0  0  0  0  0  0  0  0  0  0  0
    1.3609   -0.0653    2.8374 N   0  0  0  0  0  0  0  0  0  0  0  0
    1.1115    0.9249    1.9855 N   0  0  0  0  0  0  0  0  0  0  0  0
    2.0929    1.9576    1.7456 C   0  0  0  0  0  0  0  0  0  0  0  0
    2.3080    2.4812    0.4552 C   0  0  0  0  0  0  0  0  0  0  0  0
    3.3058    3.4330    0.2325 C   0  0  0  0  0  0  0  0  0  0  0  0
    4.1053    3.8713    1.2884 C   0  0  0  0  0  0  0  0  0  0  0  0
    3.9180    3.3472    2.5688 C   0  0  0  0  0  0  0  0  0  0  0  0
    2.9263    2.3868    2.7963 C   0  0  0  0  0  0  0  0  0  0  0  0
   -0.3727   -3.1983    1.6045 H   0  0  0  0  0  0  0  0  0  0  0  0
   -0.3272   -5.3571    0.6257 H   0  0  0  0  0  0  0  0  0  0  0  0
   -0.0087   -7.6918    0.0065 H   0  0  0  0  0  0  0  0  0  0  0  0
   -0.3576  -10.0993    0.4083 H   0  0  0  0  0  0  0  0  0  0  0  0
   -1.9320  -10.8546    2.1674 H   0  0  0  0  0  0  0  0  0  0  0  0
   -3.1863   -9.1889    3.5098 H   0  0  0  0  0  0  0  0  0  0  0  0
   -2.8591   -6.7730    3.1171 H   0  0  0  0  0  0  0  0  0  0  0  0
   -2.0293    3.5553   -1.0494 H   0  0  0  0  0  0  0  0  0  0  0  0
   -3.4707    4.4138   -2.7799 H   0  0  0  0  0  0  0  0  0  0  0  0
   -5.2504    3.0116   -3.7662 H   0  0  0  0  0  0  0  0  0  0  0  0
   -5.5802    0.6933   -2.9754 H   0  0  0  0  0  0  0  0  0  0  0  0
   -4.1522   -0.2395   -1.2365 H   0  0  0  0  0  0  0  0  0  0  0  0
    0.3039   -1.8626    3.3613 H   0  0  0  0  0  0  0  0  0  0  0  0
    1.7446    2.1254   -0.3920 H   0  0  0  0  0  0  0  0  0  0  0  0
    3.4685    3.8191   -0.7655 H   0  0  0  0  0  0  0  0  0  0  0  0
    4.8801    4.6056    1.1103 H   0  0  0  0  0  0  0  0  0  0  0  0
    4.5475    3.6792    3.3842 H   0  0  0  0  0  0  0  0  0  0  0  0
    2.8004    1.9830    3.7930 H   0  0  0  0  0  0  0  0  0  0  0  0
  2  1  2  0  0  0  0
  3  2  1  0  0  0  0
  3 34  1  0  0  0  0
  4  3  1  0  0  0  0
  5  4  2  0  0  0  0
  5 35  1  0  0  0  0
  6  5  1  0  0  0  0
  7  6  2  0  0  0  0
  7 36  1  0  0  0  0
  8  7  1  0  0  0  0
  8 37  1  0  0  0  0
  9  8  2  0  0  0  0
  9 38  1  0  0  0  0
 10  9  1  0  0  0  0
 10 39  1  0  0  0  0
 11 10  2  0  0  0  0
 11  6  1  0  0  0  0
 11 40  1  0  0  0  0
 12  2  1  0  0  0  0
 13 12  2  0  0  0  0
 14 13  1  0  0  0  0
 15 14  1  0  0  0  0
 16 15  2  0  0  0  0
 16 41  1  0  0  0  0
 17 16  1  0  0  0  0
 17 42  1  0  0  0  0
 18 17  2  0  0  0  0
 18 43  1  0  0  0  0
 19 18  1  0  0  0  0
 19 44  1  0  0  0  0
 20 19  2  0  0  0  0
 20 15  1  0  0  0  0
 20 45  1  0  0  0  0
 21 14  1  0  0  0  0
 22 21  2  0  0  0  0
 23 21  1  0  0  0  0
 24 23  2  0  0  0  0
 24 12  1  0  0  0  0
 25 24  1  0  0  0  0
 25 46  1  0  0  0  0
 26 25  2  0  0  0  0
 27 26  1  0  0  0  0
 27 23  1  0  0  0  0
 28 27  1  0  0  0  0
 29 28  2  0  0  0  0
 29 47  1  0  0  0  0
 30 29  1  0  0  0  0
 30 48  1  0  0  0  0
 31 30  2  0  0  0  0
 31 49  1  0  0  0  0
 32 31  1  0  0  0  0
 32 50  1  0  0  0  0
 33 32  2  0  0  0  0
 33 28  1  0  0  0  0
 33 51  1  0  0  0  0
M  END
>  <MOL Chiral Flag>
0

>  <energy>
219.40396466635539

$$$$
> 302_AKC_1573406414666180226163222
>292.sdf
 OpenBabel10062212173D

 44 48  0  0  0  0  0  0  0  0999 V2000
    4.8252    2.7510    1.4924 C   0  0  0  0  0  0  0  0  0  0  0  0
    3.5195    2.2015    0.9987 C   0  0  0  0  0  0  0  0  0  0  0  0
    3.3409    0.8202    0.8831 C   0  0  0  0  0  0  0  0  0  0  0  0
    2.1369    0.3023    0.4077 C   0  0  0  0  0  0  0  0  0  0  0  0
    1.9655   -1.0385    0.3781 N   0  0  0  0  0  0  0  0  0  0  0  0
    0.8415   -1.6219   -0.1061 C   0  0  0  0  0  0  0  0  0  0  0  0
   -0.1936   -0.8258   -0.6344 C   0  0  0  0  0  0  0  0  0  0  0  0
   -1.3523   -1.5046   -1.3004 C   0  0  0  0  0  0  0  0  0  0  0  0
   -2.2146   -0.8628   -1.8812 O   0  0  0  0  0  0  0  0  0  0  0  0
   -1.3881   -2.9765   -1.3671 C   0  0  0  0  0  0  0  0  0  0  0  0
   -2.2463   -3.5419   -2.0300 O   0  0  0  0  0  0  0  0  0  0  0  0
   -0.4268   -3.7496   -0.5604 C   0  0  0  0  0  0  0  0  0  0  0  0
    0.6584   -3.0887    0.0512 C   0  0  0  0  0  0  0  0  0  0  0  0
    1.5167   -3.8145    0.8983 C   0  0  0  0  0  0  0  0  0  0  0  0
    1.2936   -5.1713    1.1345 C   0  0  0  0  0  0  0  0  0  0  0  0
    0.2342   -5.8270    0.5072 C   0  0  0  0  0  0  0  0  0  0  0  0
   -0.6170   -5.1250   -0.3478 C   0  0  0  0  0  0  0  0  0  0  0  0
   -0.1037    0.5864   -0.4929 C   0  0  0  0  0  0  0  0  0  0  0  0
   -1.3402    1.3886   -0.6184 C   0  0  0  0  0  0  0  0  0  0  0  0
   -1.7147    2.1048   -1.7623 C   0  0  0  0  0  0  0  0  0  0  0  0
   -2.9572    2.7657   -1.7897 C   0  0  0  0  0  0  0  0  0  0  0  0
   -3.8284    2.7108   -0.6747 C   0  0  0  0  0  0  0  0  0  0  0  0
   -3.4242    2.0042    0.4667 C   0  0  0  0  0  0  0  0  0  0  0  0
   -2.1989    1.3545    0.4900 C   0  0  0  0  0  0  0  0  0  0  0  0
   -5.1075    3.3488   -0.7066 N   0  0  0  0  0  0  0  0  0  0  0  0
   -5.4339    4.0042   -1.6467 O   0  0  0  0  0  0  0  0  0  0  0  0
   -5.8776    3.1980    0.1975 O   0  0  0  0  0  0  0  0  0  0  0  0
    1.0869    1.1610    0.0178 C   0  0  0  0  0  0  0  0  0  0  0  0
    1.2597    2.5535    0.1639 C   0  0  0  0  0  0  0  0  0  0  0  0
    2.4694    3.0660    0.6542 C   0  0  0  0  0  0  0  0  0  0  0  0
    5.1818    3.5443    0.8029 H   0  0  0  0  0  0  0  0  0  0  0  0
    5.6058    1.9597    1.5287 H   0  0  0  0  0  0  0  0  0  0  0  0
    4.6985    3.1731    2.5105 H   0  0  0  0  0  0  0  0  0  0  0  0
    4.1327    0.1410    1.1781 H   0  0  0  0  0  0  0  0  0  0  0  0
    2.3312   -3.3216    1.4143 H   0  0  0  0  0  0  0  0  0  0  0  0
    1.9358   -5.7111    1.8178 H   0  0  0  0  0  0  0  0  0  0  0  0
    0.0589   -6.8766    0.7005 H   0  0  0  0  0  0  0  0  0  0  0  0
   -1.4488   -5.6431   -0.8079 H   0  0  0  0  0  0  0  0  0  0  0  0
   -1.0696    2.1298   -2.6306 H   0  0  0  0  0  0  0  0  0  0  0  0
   -3.2508    3.2999   -2.6830 H   0  0  0  0  0  0  0  0  0  0  0  0
   -4.0613    1.9453    1.3411 H   0  0  0  0  0  0  0  0  0  0  0  0
   -1.9133    0.8027    1.3792 H   0  0  0  0  0  0  0  0  0  0  0  0
    0.4772    3.2458   -0.1185 H   0  0  0  0  0  0  0  0  0  0  0  0
    2.5985    4.1374    0.7447 H   0  0  0  0  0  0  0  0  0  0  0  0
  1 31  1  0  0  0  0
  1 32  1  0  0  0  0
  1 33  1  0  0  0  0
  2  1  1  0  0  0  0
  3  2  2  0  0  0  0
  3 34  1  0  0  0  0
  4  3  1  0  0  0  0
  5  4  2  0  0  0  0
  6  5  1  0  0  0  0
  7  6  2  0  0  0  0
  8  7  1  0  0  0  0
  9  8  2  0  0  0  0
 10  8  1  0  0  0  0
 11 10  2  0  0  0  0
 12 10  1  0  0  0  0
 13 12  2  0  0  0  0
 13  6  1  0  0  0  0
 14 13  1  0  0  0  0
 14 35  1  0  0  0  0
 15 14  2  0  0  0  0
 15 36  1  0  0  0  0
 16 15  1  0  0  0  0
 16 37  1  0  0  0  0
 17 16  2  0  0  0  0
 17 12  1  0  0  0  0
 17 38  1  0  0  0  0
 18  7  1  0  0  0  0
 19 18  1  0  0  0  0
 20 19  2  0  0  0  0
 20 39  1  0  0  0  0
 21 20  1  0  0  0  0
 21 40  1  0  0  0  0
 22 21  2  0  0  0  0
 23 22  1  0  0  0  0
 23 41  1  0  0  0  0
 24 23  2  0  0  0  0
 24 19  1  0  0  0  0
 24 42  1  0  0  0  0
 25 22  1  0  0  0  0
 26 25  2  0  0  0  0
 27 25  2  0  0  0  0
 28 18  2  0  0  0  0
 28  4  1  0  0  0  0
 29 28  1  0  0  0  0
 29 43  1  0  0  0  0
 30 29  2  0  0  0  0
 30  2  1  0  0  0  0
 30 44  1  0  0  0  0
M  END
>  <MOL Chiral Flag>
0

>  <energy>
163.61648367177682

$$$$
> 303_AKC_1568026618666180516125056
>293.sdf
 OpenBabel10062212183D

 55 55  0  0  0  0  0  0  0  0999 V2000
   -1.4830  -10.5429   -2.2041 O   0  0  0  0  0  0  0  0  0  0  0  0
   -1.9507  -10.3991   -3.4566 C   0  0  0  0  0  0  0  0  0  0  0  0
   -1.8433  -11.3226   -4.2504 O   0  0  0  0  0  0  0  0  0  0  0  0
   -2.6893   -9.1623   -3.8749 C   0  0  0  0  0  0  0  0  0  0  0  0
   -2.8139   -7.9943   -2.8719 C   0  0  0  0  0  0  0  0  0  0  0  0
   -1.6007   -7.0139   -2.7089 C   0  0  0  0  0  0  0  0  0  0  0  0
   -2.1915   -5.5835   -2.4982 C   0  0  0  0  0  0  0  0  0  0  0  0
   -1.3394   -4.3963   -2.2040 C   0  0  0  0  0  0  0  0  0  0  0  0
   -0.8546   -3.3059   -1.9318 C   0  0  0  0  0  0  0  0  0  0  0  0
   -0.3109   -1.9935   -1.4469 C   0  0  0  0  0  0  0  0  0  0  0  0
    0.2525   -1.0881   -2.5679 C   0  0  0  0  0  0  0  0  0  0  0  0
    1.2842    0.0201   -2.1452 C   0  0  0  0  0  0  0  0  0  0  0  0
    0.9424    1.2602   -1.2355 C   0  0  0  0  0  0  0  0  0  0  0  0
    1.4154    2.6345   -1.8565 C   0  0  0  0  0  0  0  0  0  0  0  0
    1.3278    3.8639   -0.8956 C   0  0  0  0  0  0  0  0  0  0  0  0
    1.9526    5.2249   -1.4188 C   0  0  0  0  0  0  0  0  0  0  0  0
    1.7448    6.3607   -0.3590 C   0  0  0  0  0  0  0  0  0  0  0  0
    2.7548    7.5476   -0.1430 C   0  0  0  0  0  0  0  0  0  0  0  0
    2.9003    8.9489   -0.7633 C   0  0  0  0  0  0  0  0  0  0  0  0
    2.2494    9.4376   -1.9179 C   0  0  0  0  0  0  0  0  0  0  0  0
    2.4638   10.7760   -2.3342 C   0  0  0  0  0  0  0  0  0  0  0  0
    3.3059   11.6265   -1.6047 C   0  0  0  0  0  0  0  0  0  0  0  0
    3.9461   11.1533   -0.4668 C   0  0  0  0  0  0  0  0  0  0  0  0
    3.7520    9.8346   -0.0569 C   0  0  0  0  0  0  0  0  0  0  0  0
   -3.7238   -9.5131   -4.0968 H   0  0  0  0  0  0  0  0  0  0  0  0
   -2.2650   -8.7648   -4.8206 H   0  0  0  0  0  0  0  0  0  0  0  0
   -3.2051   -8.3187   -1.8802 H   0  0  0  0  0  0  0  0  0  0  0  0
   -3.6314   -7.4078   -3.3387 H   0  0  0  0  0  0  0  0  0  0  0  0
   -0.9586   -7.3540   -1.8637 H   0  0  0  0  0  0  0  0  0  0  0  0
   -0.9796   -6.9948   -3.6299 H   0  0  0  0  0  0  0  0  0  0  0  0
   -2.7449   -5.3299   -3.4297 H   0  0  0  0  0  0  0  0  0  0  0  0
   -2.9218   -5.6405   -1.6675 H   0  0  0  0  0  0  0  0  0  0  0  0
   -1.1058   -1.4428   -0.8985 H   0  0  0  0  0  0  0  0  0  0  0  0
    0.4975   -2.2498   -0.7361 H   0  0  0  0  0  0  0  0  0  0  0  0
   -0.5747   -0.6736   -3.1874 H   0  0  0  0  0  0  0  0  0  0  0  0
    0.8401   -1.7616   -3.2309 H   0  0  0  0  0  0  0  0  0  0  0  0
    2.1293   -0.5157   -1.6601 H   0  0  0  0  0  0  0  0  0  0  0  0
    1.6992    0.4118   -3.0967 H   0  0  0  0  0  0  0  0  0  0  0  0
   -0.1258    1.2818   -0.9352 H   0  0  0  0  0  0  0  0  0  0  0  0
    1.5245    1.1225   -0.2943 H   0  0  0  0  0  0  0  0  0  0  0  0
    2.4779    2.5252   -2.1594 H   0  0  0  0  0  0  0  0  0  0  0  0
    0.8068    2.8448   -2.7614 H   0  0  0  0  0  0  0  0  0  0  0  0
    0.2655    4.0210   -0.6152 H   0  0  0  0  0  0  0  0  0  0  0  0
    1.8881    3.5915    0.0285 H   0  0  0  0  0  0  0  0  0  0  0  0
    1.5151    5.5385   -2.3905 H   0  0  0  0  0  0  0  0  0  0  0  0
    3.0398    5.0447   -1.5626 H   0  0  0  0  0  0  0  0  0  0  0  0
    1.9013    5.8120    0.5968 H   0  0  0  0  0  0  0  0  0  0  0  0
    0.6884    6.7025   -0.3378 H   0  0  0  0  0  0  0  0  0  0  0  0
    2.4909    7.8414    0.8989 H   0  0  0  0  0  0  0  0  0  0  0  0
    3.7733    7.1071   -0.1152 H   0  0  0  0  0  0  0  0  0  0  0  0
    1.5870    8.8082   -2.4928 H   0  0  0  0  0  0  0  0  0  0  0  0
    1.9748   11.1662   -3.2186 H   0  0  0  0  0  0  0  0  0  0  0  0
    3.4630   12.6554   -1.9156 H   0  0  0  0  0  0  0  0  0  0  0  0
    4.5926   11.8090    0.1079 H   0  0  0  0  0  0  0  0  0  0  0  0
    4.2559    9.4978    0.8405 H   0  0  0  0  0  0  0  0  0  0  0  0
  2  1  1  0  0  0  0
  3  2  2  0  0  0  0
  4  2  1  0  0  0  0
  4 25  1  0  0  0  0
  4 26  1  0  0  0  0
  5  4  1  0  0  0  0
  5 27  1  0  0  0  0
  5 28  1  0  0  0  0
  6  5  1  0  0  0  0
  6 29  1  0  0  0  0
  6 30  1  0  0  0  0
  7  6  1  0  0  0  0
  7 31  1  0  0  0  0
  7 32  1  0  0  0  0
  8  7  1  0  0  0  0
  9  8  3  0  0  0  0
 10  9  1  0  0  0  0
 10 33  1  0  0  0  0
 10 34  1  0  0  0  0
 11 10  1  0  0  0  0
 11 35  1  0  0  0  0
 11 36  1  0  0  0  0
 12 11  1  0  0  0  0
 12 37  1  0  0  0  0
 12 38  1  0  0  0  0
 13 12  1  0  0  0  0
 13 39  1  0  0  0  0
 13 40  1  0  0  0  0
 14 13  1  0  0  0  0
 14 41  1  0  0  0  0
 14 42  1  0  0  0  0
 15 14  1  0  0  0  0
 15 43  1  0  0  0  0
 15 44  1  0  0  0  0
 16 15  1  0  0  0  0
 16 45  1  0  0  0  0
 16 46  1  0  0  0  0
 17 16  1  0  0  0  0
 17 47  1  0  0  0  0
 17 48  1  0  0  0  0
 18 17  1  0  0  0  0
 18 49  1  0  0  0  0
 18 50  1  0  0  0  0
 19 18  1  0  0  0  0
 20 19  2  0  0  0  0
 20 51  1  0  0  0  0
 21 20  1  0  0  0  0
 21 52  1  0  0  0  0
 22 21  2  0  0  0  0
 22 53  1  0  0  0  0
 23 22  1  0  0  0  0
 23 54  1  0  0  0  0
 24 23  2  0  0  0  0
 24 19  1  0  0  0  0
 24 55  1  0  0  0  0
M  END
>  <MOL Chiral Flag>
0

>  <energy>
10.18304559139856

$$$$
> 304_AKC_molecules23010070
>294.sdf
  Mrv1816 10102214203D              79.26000

 45 48  0  0  0  0            999 V2000
    1.8720   -4.8763    1.7923 N   0  0  0  0  0  0  0  0  0  0  0  0
    2.1734   -4.8937    0.4590 C   0  0  0  0  0  0  0  0  0  0  0  0
    3.3408   -4.9803    0.0182 O   0  0  0  0  0  0  0  0  0  0  0  0
    1.1863   -4.8579   -0.4719 N   0  0  0  0  0  0  0  0  0  0  0  0
   -0.0471   -4.8031   -0.1663 N   0  0  0  0  0  0  0  0  0  0  0  0
   -0.9109   -3.8504   -0.2821 C   0  0  0  0  0  0  0  0  0  0  0  0
   -0.5132   -2.6013   -0.9560 C   0  0  1  0  0  0  0  0  0  0  0  0
   -1.5446   -1.4343   -0.9729 C   0  0  2  0  0  0  0  0  0  0  0  0
   -3.2097   -2.0657   -1.3707 S   0  0  0  0  0  0  0  0  0  0  0  0
   -0.7913    0.9360   -1.4333 C   0  0  0  0  0  0  0  0  0  0  0  0
   -1.1852   -0.3350   -1.9189 C   0  0  0  0  0  0  0  0  0  0  0  0
   -1.2312   -0.5327   -3.3228 C   0  0  0  0  0  0  0  0  0  0  0  0
   -0.9044    0.5057   -4.2112 C   0  0  0  0  0  0  0  0  0  0  0  0
   -0.5174    1.7603   -3.7097 C   0  0  0  0  0  0  0  0  0  0  0  0
   -0.4573    1.9745   -2.3211 C   0  0  0  0  0  0  0  0  0  0  0  0
   -3.3574   -3.4056   -0.2498 C   0  0  0  0  0  0  0  0  0  0  0  0
   -4.6537   -3.7379    0.1919 C   0  0  0  0  0  0  0  0  0  0  0  0
   -4.8416   -4.7788    1.1136 C   0  0  0  0  0  0  0  0  0  0  0  0
   -3.7322   -5.4854    1.5982 C   0  0  0  0  0  0  0  0  0  0  0  0
   -2.4401   -5.1579    1.1530 C   0  0  0  0  0  0  0  0  0  0  0  0
   -2.2133   -4.1224    0.2008 C   0  0  0  0  0  0  0  0  0  0  0  0
    2.6649   -5.0534    2.8970 C   0  0  0  0  0  0  0  0  0  0  0  0
    2.7083   -5.1677    5.3405 C   0  0  0  0  0  0  0  0  0  0  0  0
    4.0345   -5.4463    5.2974 N   0  0  0  0  0  0  0  0  0  0  0  0
    4.7194   -5.5410    4.1311 C   0  0  0  0  0  0  0  0  0  0  0  0
    4.0527   -5.3523    2.9052 C   0  0  0  0  0  0  0  0  0  0  0  0
    2.0006   -4.9585    4.1426 C   0  0  0  0  0  0  0  0  0  0  0  0
    0.9306   -4.7401    1.9895 H   0  0  0  0  0  0  0  0  0  0  0  0
    1.4286   -4.9386   -1.4093 H   0  0  0  0  0  0  0  0  0  0  0  0
    0.3940   -2.2159   -0.4768 H   0  0  0  0  0  0  0  0  0  0  0  0
   -0.2505   -2.8647   -1.9857 H   0  0  0  0  0  0  0  0  0  0  0  0
   -1.6102   -1.0469    0.0501 H   0  0  0  0  0  0  0  0  0  0  0  0
   -0.7377    1.1177   -0.4280 H   0  0  0  0  0  0  0  0  0  0  0  0
   -1.5100   -1.4361   -3.7125 H   0  0  0  0  0  0  0  0  0  0  0  0
   -0.9505    0.3462   -5.2196 H   0  0  0  0  0  0  0  0  0  0  0  0
   -0.2837    2.5174   -4.3547 H   0  0  0  0  0  0  0  0  0  0  0  0
   -0.1723    2.8856   -1.9551 H   0  0  0  0  0  0  0  0  0  0  0  0
   -5.4682   -3.2245   -0.1519 H   0  0  0  0  0  0  0  0  0  0  0  0
   -5.7811   -5.0208    1.4348 H   0  0  0  0  0  0  0  0  0  0  0  0
   -3.8616   -6.2418    2.2706 H   0  0  0  0  0  0  0  0  0  0  0  0
   -1.6590   -5.6970    1.5389 H   0  0  0  0  0  0  0  0  0  0  0  0
    2.2280   -5.1125    6.2397 H   0  0  0  0  0  0  0  0  0  0  0  0
    5.7178   -5.7548    4.1523 H   0  0  0  0  0  0  0  0  0  0  0  0
    4.5912   -5.4451    2.0448 H   0  0  0  0  0  0  0  0  0  0  0  0
    0.9998   -4.7455    4.1854 H   0  0  0  0  0  0  0  0  0  0  0  0
  1  2  1  0  0  0  0
  2  3  2  0  0  0  0
  2  4  1  0  0  0  0
  4  5  1  0  0  0  0
  5  6  2  0  0  0  0
  6  7  1  0  0  0  0
  7  8  1  0  0  0  0
  8  9  1  0  0  0  0
 10 11  2  0  0  0  0
 11 12  1  0  0  0  0
 12 13  2  0  0  0  0
 13 14  1  0  0  0  0
 14 15  2  0  0  0  0
 10 15  1  0  0  0  0
  9 16  1  0  0  0  0
 16 17  2  0  0  0  0
 17 18  1  0  0  0  0
 18 19  2  0  0  0  0
 19 20  1  0  0  0  0
 20 21  2  0  0  0  0
  6 21  1  0  0  0  0
 16 21  1  0  0  0  0
  8 11  1  0  0  0  0
  1 22  1  0  0  0  0
 23 24  1  0  0  0  0
 24 25  2  0  0  0  0
 25 26  1  0  0  0  0
 23 27  2  0  0  0  0
 26 22  2  0  0  0  0
 22 27  1  0  0  0  0
  1 28  1  0  0  0  0
  4 29  1  0  0  0  0
  7 30  1  0  0  0  0
  7 31  1  0  0  0  0
  8 32  1  0  0  0  0
 10 33  1  0  0  0  0
 12 34  1  0  0  0  0
 13 35  1  0  0  0  0
 14 36  1  0  0  0  0
 15 37  1  0  0  0  0
 17 38  1  0  0  0  0
 18 39  1  0  0  0  0
 19 40  1  0  0  0  0
 20 41  1  0  0  0  0
 23 42  1  0  0  0  0
 25 43  1  0  0  0  0
 26 44  1  0  0  0  0
 27 45  1  0  0  0  0
M  END
$$$$
> 305_AKC_molecules23010070
>295.sdf
  Mrv1816 10102214213D              81.95000

 45 48  0  0  0  0            999 V2000
    3.4678   -0.7988   -1.4442 N   0  0  0  0  0  0  0  0  0  0  0  0
    2.9333   -1.5488   -2.4570 C   0  0  0  0  0  0  0  0  0  0  0  0
    3.1291   -1.3069   -3.6697 O   0  0  0  0  0  0  0  0  0  0  0  0
    2.1400   -2.6137   -2.1661 N   0  0  0  0  0  0  0  0  0  0  0  0
    1.7793   -2.8626   -0.9715 N   0  0  0  0  0  0  0  0  0  0  0  0
    0.6201   -2.7551   -0.4115 C   0  0  0  0  0  0  0  0  0  0  0  0
   -0.5584   -2.4506   -1.2467 C   0  0  1  0  0  0  0  0  0  0  0  0
   -1.8042   -1.8524   -0.5287 C   0  0  1  0  0  0  0  0  0  0  0  0
   -2.2220   -3.0248    0.8112 S   0  0  0  0  0  0  0  0  0  0  0  0
   -0.6466    0.4441   -0.3051 C   0  0  0  0  0  0  0  0  0  0  0  0
   -1.7363   -0.4291   -0.0437 C   0  0  0  0  0  0  0  0  0  0  0  0
   -2.8392    0.1023    0.6748 C   0  0  0  0  0  0  0  0  0  0  0  0
   -2.8437    1.4299    1.1390 C   0  0  0  0  0  0  0  0  0  0  0  0
   -1.7574    2.2741    0.8570 C   0  0  0  0  0  0  0  0  0  0  0  0
   -0.6639    1.7845    0.1238 C   0  0  0  0  0  0  0  0  0  0  0  0
   -0.6954   -3.1664    1.6619 C   0  0  0  0  0  0  0  0  0  0  0  0
   -0.7530   -3.4308    3.0456 C   0  0  0  0  0  0  0  0  0  0  0  0
    0.4272   -3.5148    3.7978 C   0  0  0  0  0  0  0  0  0  0  0  0
    1.6655   -3.3387    3.1656 C   0  0  0  0  0  0  0  0  0  0  0  0
    1.7209   -3.0800    1.7848 C   0  0  0  0  0  0  0  0  0  0  0  0
    0.5458   -2.9985    0.9842 C   0  0  0  0  0  0  0  0  0  0  0  0
    4.2841    0.2950   -1.4835 C   0  0  0  0  0  0  0  0  0  0  0  0
    5.0916    2.2576   -0.2788 C   0  0  0  0  0  0  0  0  0  0  0  0
    5.8416    2.6006   -1.3561 N   0  0  0  0  0  0  0  0  0  0  0  0
    5.8731    1.8505   -2.4857 C   0  0  0  0  0  0  0  0  0  0  0  0
    5.1038    0.6740   -2.5739 C   0  0  0  0  0  0  0  0  0  0  0  0
    4.3053    1.0920   -0.3173 C   0  0  0  0  0  0  0  0  0  0  0  0
    3.2122   -1.0814   -0.5515 H   0  0  0  0  0  0  0  0  0  0  0  0
    1.8475   -3.1987   -2.8851 H   0  0  0  0  0  0  0  0  0  0  0  0
   -0.3000   -1.7761   -2.0665 H   0  0  0  0  0  0  0  0  0  0  0  0
   -0.8528   -3.3942   -1.7160 H   0  0  0  0  0  0  0  0  0  0  0  0
   -2.6349   -1.8953   -1.2385 H   0  0  0  0  0  0  0  0  0  0  0  0
    0.1734    0.1291   -0.8218 H   0  0  0  0  0  0  0  0  0  0  0  0
   -3.6576   -0.4787    0.8683 H   0  0  0  0  0  0  0  0  0  0  0  0
   -3.6383    1.7825    1.6775 H   0  0  0  0  0  0  0  0  0  0  0  0
   -1.7630    3.2438    1.1826 H   0  0  0  0  0  0  0  0  0  0  0  0
    0.1190    2.4046   -0.0995 H   0  0  0  0  0  0  0  0  0  0  0  0
   -1.6530   -3.5534    3.5176 H   0  0  0  0  0  0  0  0  0  0  0  0
    0.3854   -3.7033    4.8006 H   0  0  0  0  0  0  0  0  0  0  0  0
    2.5288   -3.3973    3.7108 H   0  0  0  0  0  0  0  0  0  0  0  0
    2.6469   -2.9447    1.3737 H   0  0  0  0  0  0  0  0  0  0  0  0
    5.1010    2.8459    0.5556 H   0  0  0  0  0  0  0  0  0  0  0  0
    6.4641    2.1439   -3.2644 H   0  0  0  0  0  0  0  0  0  0  0  0
    5.1608    0.1097   -3.4224 H   0  0  0  0  0  0  0  0  0  0  0  0
    3.7469    0.8345    0.5016 H   0  0  0  0  0  0  0  0  0  0  0  0
  1  2  1  0  0  0  0
  2  3  2  0  0  0  0
  2  4  1  0  0  0  0
  4  5  1  0  0  0  0
  5  6  2  0  0  0  0
  6  7  1  0  0  0  0
  7  8  1  0  0  0  0
  8  9  1  0  0  0  0
 10 11  2  0  0  0  0
 11 12  1  0  0  0  0
 12 13  2  0  0  0  0
 13 14  1  0  0  0  0
 14 15  2  0  0  0  0
 10 15  1  0  0  0  0
  9 16  1  0  0  0  0
 16 17  2  0  0  0  0
 17 18  1  0  0  0  0
 18 19  2  0  0  0  0
 19 20  1  0  0  0  0
 20 21  2  0  0  0  0
  6 21  1  0  0  0  0
 16 21  1  0  0  0  0
  8 11  1  0  0  0  0
  1 22  1  0  0  0  0
 23 24  1  0  0  0  0
 24 25  2  0  0  0  0
 25 26  1  0  0  0  0
 23 27  2  0  0  0  0
 26 22  2  0  0  0  0
 22 27  1  0  0  0  0
  1 28  1  0  0  0  0
  4 29  1  0  0  0  0
  7 30  1  0  0  0  0
  7 31  1  0  0  0  0
  8 32  1  0  0  0  0
 10 33  1  0  0  0  0
 12 34  1  0  0  0  0
 13 35  1  0  0  0  0
 14 36  1  0  0  0  0
 15 37  1  0  0  0  0
 17 38  1  0  0  0  0
 18 39  1  0  0  0  0
 19 40  1  0  0  0  0
 20 41  1  0  0  0  0
 23 42  1  0  0  0  0
 25 43  1  0  0  0  0
 26 44  1  0  0  0  0
 27 45  1  0  0  0  0
M  END
$$$$
> 306_AKC_j.exppara.2017.11.009
>296.sdf
 OpenBabel10062212203D

 37 39  0  0  0  0  0  0  0  0999 V2000
    2.8674    0.8296    0.0981 C   0  0  0  0  0  0  0  0  0  0  0  0
    3.8123    1.5865   -0.5230 O   0  0  0  0  0  0  0  0  0  0  0  0
    3.7780    2.4728   -1.5538 C   0  0  0  0  0  0  0  0  0  0  0  0
    2.6587    2.8187   -2.4271 C   0  0  0  0  0  0  0  0  0  0  0  0
    1.1747    2.3772   -2.5197 C   0  0  0  0  0  0  0  0  0  0  0  0
    0.3465    1.6321   -1.5834 N   0  0  0  0  0  0  0  0  0  0  0  0
   -1.0008    1.3664   -1.9780 C   0  0  0  0  0  0  0  0  0  0  0  0
   -1.4819    1.7230   -3.1983 N   0  0  0  0  0  0  0  0  0  0  0  0
   -2.7608    1.3253   -3.1813 C   0  0  0  0  0  0  0  0  0  0  0  0
   -3.6980    1.4618   -4.1974 C   0  0  0  0  0  0  0  0  0  0  0  0
   -4.9943    0.9737   -3.9630 C   0  0  0  0  0  0  0  0  0  0  0  0
   -5.3134    0.3663   -2.7252 C   0  0  0  0  0  0  0  0  0  0  0  0
   -4.3350    0.2441   -1.7149 C   0  0  0  0  0  0  0  0  0  0  0  0
   -3.0542    0.7411   -1.9825 C   0  0  0  0  0  0  0  0  0  0  0  0
   -1.9470    0.7591   -1.2087 N   0  0  0  0  0  0  0  0  0  0  0  0
   -1.7928    0.2490    0.1542 C   0  0  0  0  0  0  0  0  0  0  0  0
    2.9434    3.7366   -3.4778 C   0  0  0  0  0  0  0  0  0  0  0  0
    4.1929    4.3030   -3.6722 C   0  0  0  0  0  0  0  0  0  0  0  0
    5.2339    3.9779   -2.8325 C   0  0  0  0  0  0  0  0  0  0  0  0
    5.0296    3.0781   -1.7968 C   0  0  0  0  0  0  0  0  0  0  0  0
    2.1963    1.4933    0.6781 H   0  0  0  0  0  0  0  0  0  0  0  0
    3.3798    0.1949    0.8499 H   0  0  0  0  0  0  0  0  0  0  0  0
    2.3895    0.1444   -0.6310 H   0  0  0  0  0  0  0  0  0  0  0  0
    0.6120    3.3320   -2.6397 H   0  0  0  0  0  0  0  0  0  0  0  0
    1.1234    1.8350   -3.4903 H   0  0  0  0  0  0  0  0  0  0  0  0
    0.6307    1.3751   -0.6473 H   0  0  0  0  0  0  0  0  0  0  0  0
   -3.4369    1.9304   -5.1380 H   0  0  0  0  0  0  0  0  0  0  0  0
   -5.7491    1.0647   -4.7334 H   0  0  0  0  0  0  0  0  0  0  0  0
   -6.3152   -0.0054   -2.5551 H   0  0  0  0  0  0  0  0  0  0  0  0
   -4.5841   -0.2195   -0.7714 H   0  0  0  0  0  0  0  0  0  0  0  0
   -1.5032    1.0766    0.8341 H   0  0  0  0  0  0  0  0  0  0  0  0
   -1.0114   -0.5385    0.1741 H   0  0  0  0  0  0  0  0  0  0  0  0
   -2.7384   -0.1920    0.5304 H   0  0  0  0  0  0  0  0  0  0  0  0
    2.1614    4.0250   -4.1729 H   0  0  0  0  0  0  0  0  0  0  0  0
    4.3488    4.9983   -4.4876 H   0  0  0  0  0  0  0  0  0  0  0  0
    6.2107    4.4176   -2.9901 H   0  0  0  0  0  0  0  0  0  0  0  0
    5.8733    2.8293   -1.1638 H   0  0  0  0  0  0  0  0  0  0  0  0
  1 21  1  0  0  0  0
  1 22  1  0  0  0  0
  1 23  1  0  0  0  0
  2  1  1  0  0  0  0
  3  2  1  0  0  0  0
  4  3  2  0  0  0  0
  5  4  1  0  0  0  0
  5 24  1  0  0  0  0
  5 25  1  0  0  0  0
  6  5  1  0  0  0  0
  6 26  1  0  0  0  0
  7  6  1  0  0  0  0
  8  7  2  0  0  0  0
  9  8  1  0  0  0  0
 10  9  2  0  0  0  0
 10 27  1  0  0  0  0
 11 10  1  0  0  0  0
 11 28  1  0  0  0  0
 12 11  2  0  0  0  0
 12 29  1  0  0  0  0
 13 12  1  0  0  0  0
 13 30  1  0  0  0  0
 14 13  2  0  0  0  0
 14  9  1  0  0  0  0
 15 14  1  0  0  0  0
 15  7  1  0  0  0  0
 16 15  1  0  0  0  0
 16 31  1  0  0  0  0
 16 32  1  0  0  0  0
 16 33  1  0  0  0  0
 17  4  1  0  0  0  0
 17 34  1  0  0  0  0
 18 17  2  0  0  0  0
 18 35  1  0  0  0  0
 19 18  1  0  0  0  0
 19 36  1  0  0  0  0
 20 19  2  0  0  0  0
 20  3  1  0  0  0  0
 20 37  1  0  0  0  0
M  END
>  <MOL Chiral Flag>
0

>  <energy>
10.861669649125304

$$$$
> 307_AKC_s00044-017-2019-2
>297.sdf
 OpenBabel10062212213D

 46 48  0  0  0  0  0  0  0  0999 V2000
    9.2081   -0.2794    1.7483 O   0  0  0  0  0  0  0  0  0  0  0  0
    8.0445    0.3974    1.6539 C   0  0  0  0  0  0  0  0  0  0  0  0
    7.1445    0.0961    0.6217 C   0  0  0  0  0  0  0  0  0  0  0  0
    7.4514   -0.8685   -0.2708 O   0  0  0  0  0  0  0  0  0  0  0  0
    5.9339    0.8030    0.5189 C   0  0  0  0  0  0  0  0  0  0  0  0
    5.6235    1.8154    1.4457 C   0  0  0  0  0  0  0  0  0  0  0  0
    4.3729    2.6005    1.3492 C   0  0  0  0  0  0  0  0  0  0  0  0
    3.5012    2.3692    0.4291 N   0  0  0  0  0  0  0  0  0  0  0  0
    2.3843    3.1661    0.3008 N   0  0  0  0  0  0  0  0  0  0  0  0
    1.4555    2.9137   -0.6555 C   0  0  0  0  0  0  0  0  0  0  0  0
    1.5672    1.9356   -1.3811 O   0  0  0  0  0  0  0  0  0  0  0  0
    0.3121    3.8727   -0.8686 C   0  0  0  0  0  0  0  0  0  0  0  0
   -0.9246    3.2643   -0.7761 O   0  0  0  0  0  0  0  0  0  0  0  0
   -1.5367    2.7863    0.3417 C   0  0  0  0  0  0  0  0  0  0  0  0
   -0.9213    2.7997    1.6091 C   0  0  0  0  0  0  0  0  0  0  0  0
   -1.6028    2.3074    2.7261 C   0  0  0  0  0  0  0  0  0  0  0  0
   -0.8325    2.3318    4.3024 Cl  0  0  0  0  0  0  0  0  0  0  0  0
   -2.8949    1.7933    2.5877 C   0  0  0  0  0  0  0  0  0  0  0  0
   -3.5159    1.7811    1.3353 C   0  0  0  0  0  0  0  0  0  0  0  0
   -2.8440    2.2939    0.2085 C   0  0  0  0  0  0  0  0  0  0  0  0
   -3.4004    2.3230   -1.0318 O   0  0  0  0  0  0  0  0  0  0  0  0
   -4.6803    2.5732   -1.4241 C   0  0  0  0  0  0  0  0  0  0  0  0
   -4.9951    2.4080   -2.7843 C   0  0  0  0  0  0  0  0  0  0  0  0
   -3.7684    1.8577   -3.9175 Cl  0  0  0  0  0  0  0  0  0  0  0  0
   -6.2789    2.6979   -3.2562 C   0  0  0  0  0  0  0  0  0  0  0  0
   -7.2635    3.1532   -2.3774 C   0  0  0  0  0  0  0  0  0  0  0  0
   -8.8692    3.5255   -2.9775 Cl  0  0  0  0  0  0  0  0  0  0  0  0
   -6.9639    3.3256   -1.0238 C   0  0  0  0  0  0  0  0  0  0  0  0
   -5.6796    3.0462   -0.5448 C   0  0  0  0  0  0  0  0  0  0  0  0
    6.5316    2.1073    2.4743 C   0  0  0  0  0  0  0  0  0  0  0  0
    7.7323    1.4028    2.5793 C   0  0  0  0  0  0  0  0  0  0  0  0
    9.8521   -0.0898    2.4459 H   0  0  0  0  0  0  0  0  0  0  0  0
    6.8579   -1.0963   -1.0004 H   0  0  0  0  0  0  0  0  0  0  0  0
    5.2470    0.5686   -0.2851 H   0  0  0  0  0  0  0  0  0  0  0  0
    4.2108    3.4128    2.0541 H   0  0  0  0  0  0  0  0  0  0  0  0
    2.2772    3.9999    0.9003 H   0  0  0  0  0  0  0  0  0  0  0  0
    0.4132    4.2693   -1.9005 H   0  0  0  0  0  0  0  0  0  0  0  0
    0.3559    4.7406   -0.1763 H   0  0  0  0  0  0  0  0  0  0  0  0
    0.0758    3.1921    1.7373 H   0  0  0  0  0  0  0  0  0  0  0  0
   -3.4188    1.4042    3.4519 H   0  0  0  0  0  0  0  0  0  0  0  0
   -4.5105    1.3659    1.2494 H   0  0  0  0  0  0  0  0  0  0  0  0
   -6.5073    2.5765   -4.3077 H   0  0  0  0  0  0  0  0  0  0  0  0
   -7.7238    3.6887   -0.3435 H   0  0  0  0  0  0  0  0  0  0  0  0
   -5.4786    3.2218    0.4996 H   0  0  0  0  0  0  0  0  0  0  0  0
    6.3102    2.8857    3.1945 H   0  0  0  0  0  0  0  0  0  0  0  0
    8.4227    1.6424    3.3783 H   0  0  0  0  0  0  0  0  0  0  0  0
  1 32  1  0  0  0  0
  2  1  1  0  0  0  0
  3  2  2  0  0  0  0
  4  3  1  0  0  0  0
  4 33  1  0  0  0  0
  5  3  1  0  0  0  0
  5 34  1  0  0  0  0
  6  5  2  0  0  0  0
  7  6  1  0  0  0  0
  7 35  1  0  0  0  0
  8  7  2  0  0  0  0
  9  8  1  0  0  0  0
  9 36  1  0  0  0  0
 10  9  1  0  0  0  0
 11 10  2  0  0  0  0
 12 10  1  0  0  0  0
 12 37  1  0  0  0  0
 12 38  1  0  0  0  0
 13 12  1  0  0  0  0
 14 13  1  0  0  0  0
 15 14  2  0  0  0  0
 15 39  1  0  0  0  0
 16 15  1  0  0  0  0
 17 16  1  0  0  0  0
 18 16  2  0  0  0  0
 18 40  1  0  0  0  0
 19 18  1  0  0  0  0
 19 41  1  0  0  0  0
 20 19  2  0  0  0  0
 20 14  1  0  0  0  0
 21 20  1  0  0  0  0
 22 21  1  0  0  0  0
 23 22  2  0  0  0  0
 24 23  1  0  0  0  0
 25 23  1  0  0  0  0
 25 42  1  0  0  0  0
 26 25  2  0  0  0  0
 27 26  1  0  0  0  0
 28 26  1  0  0  0  0
 28 43  1  0  0  0  0
 29 28  2  0  0  0  0
 29 22  1  0  0  0  0
 29 44  1  0  0  0  0
 30  6  1  0  0  0  0
 30 45  1  0  0  0  0
 31 30  2  0  0  0  0
 31  2  1  0  0  0  0
 31 46  1  0  0  0  0
M  END
>  <MOL Chiral Flag>
0

>  <energy>
136.97746125196966

$$$$
> 308_AKC_cbdd.13024
>298.sdf
 OpenBabel10062212213D

 34 35  0  0  0  0  0  0  0  0999 V2000
   -0.9821   -3.1223    0.5566 O   0  0  0  0  0  0  0  0  0  0  0  0
   -0.3743   -1.8739    0.7678 C   0  0  0  0  0  0  0  0  0  0  0  0
   -1.1650   -0.7598    0.0634 C   0  0  0  0  0  0  0  0  0  0  0  0
   -2.4584   -0.7107    0.5407 O   0  0  0  0  0  0  0  0  0  0  0  0
   -3.2146    0.3980    0.3919 C   0  0  0  0  0  0  0  0  0  0  0  0
   -3.0209    1.4944    1.2446 C   0  0  0  0  0  0  0  0  0  0  0  0
   -3.7969    2.6480    1.0920 C   0  0  0  0  0  0  0  0  0  0  0  0
   -3.5543    4.0155    2.1635 Cl  0  0  0  0  0  0  0  0  0  0  0  0
   -4.7648    2.7090    0.0835 C   0  0  0  0  0  0  0  0  0  0  0  0
   -4.9599    1.6156   -0.7673 C   0  0  0  0  0  0  0  0  0  0  0  0
   -4.1886    0.4584   -0.6115 C   0  0  0  0  0  0  0  0  0  0  0  0
    1.0698   -1.9390    0.2513 C   0  0  0  0  0  0  0  0  0  0  0  0
    1.6411   -0.6805    0.2795 O   0  0  0  0  0  0  0  0  0  0  0  0
    2.8951   -0.3801   -0.1442 C   0  0  0  0  0  0  0  0  0  0  0  0
    3.9336   -1.3326   -0.1590 C   0  0  0  0  0  0  0  0  0  0  0  0
    5.2074   -0.9731   -0.6174 C   0  0  0  0  0  0  0  0  0  0  0  0
    6.5033   -2.1549   -0.6216 Cl  0  0  0  0  0  0  0  0  0  0  0  0
    5.4467    0.3274   -1.0730 C   0  0  0  0  0  0  0  0  0  0  0  0
    4.4193    1.2729   -1.0604 C   0  0  0  0  0  0  0  0  0  0  0  0
    3.1509    0.9225   -0.5897 C   0  0  0  0  0  0  0  0  0  0  0  0
   -1.7861   -3.1580    1.1373 H   0  0  0  0  0  0  0  0  0  0  0  0
   -0.3353   -1.6460    1.8589 H   0  0  0  0  0  0  0  0  0  0  0  0
   -0.6581    0.2095    0.2726 H   0  0  0  0  0  0  0  0  0  0  0  0
   -1.1840   -0.9172   -1.0371 H   0  0  0  0  0  0  0  0  0  0  0  0
   -2.2703    1.4463    2.0241 H   0  0  0  0  0  0  0  0  0  0  0  0
   -5.3644    3.6017   -0.0403 H   0  0  0  0  0  0  0  0  0  0  0  0
   -5.7076    1.6656   -1.5479 H   0  0  0  0  0  0  0  0  0  0  0  0
   -4.3401   -0.3844   -1.2736 H   0  0  0  0  0  0  0  0  0  0  0  0
    1.6421   -2.6604    0.8730 H   0  0  0  0  0  0  0  0  0  0  0  0
    1.0599   -2.2929   -0.8037 H   0  0  0  0  0  0  0  0  0  0  0  0
    3.7668   -2.3421    0.1882 H   0  0  0  0  0  0  0  0  0  0  0  0
    6.4279    0.6052   -1.4363 H   0  0  0  0  0  0  0  0  0  0  0  0
    4.6036    2.2780   -1.4173 H   0  0  0  0  0  0  0  0  0  0  0  0
    2.3581    1.6601   -0.5882 H   0  0  0  0  0  0  0  0  0  0  0  0
  1 21  1  0  0  0  0
  2  1  1  0  0  0  0
  2 22  1  0  0  0  0
  3  2  1  0  0  0  0
  3 23  1  0  0  0  0
  3 24  1  0  0  0  0
  4  3  1  0  0  0  0
  5  4  1  0  0  0  0
  6  5  2  0  0  0  0
  6 25  1  0  0  0  0
  7  6  1  0  0  0  0
  8  7  1  0  0  0  0
  9  7  2  0  0  0  0
  9 26  1  0  0  0  0
 10  9  1  0  0  0  0
 10 27  1  0  0  0  0
 11 10  2  0  0  0  0
 11  5  1  0  0  0  0
 11 28  1  0  0  0  0
 12  2  1  0  0  0  0
 12 29  1  0  0  0  0
 12 30  1  0  0  0  0
 13 12  1  0  0  0  0
 14 13  1  0  0  0  0
 15 14  2  0  0  0  0
 15 31  1  0  0  0  0
 16 15  1  0  0  0  0
 17 16  1  0  0  0  0
 18 16  2  0  0  0  0
 18 32  1  0  0  0  0
 19 18  1  0  0  0  0
 19 33  1  0  0  0  0
 20 19  2  0  0  0  0
 20 14  1  0  0  0  0
 20 34  1  0  0  0  0
M  END
>  <MOL Chiral Flag>
0

>  <energy>
62.609379531240975

$$$$
> 309_AKC_cbdd.13024
>299.sdf
 OpenBabel10062212213D

 34 35  0  0  0  0  0  0  0  0999 V2000
   -2.1877    3.1284    0.0247 O   0  0  0  0  0  0  0  0  0  0  0  0
   -1.1627    2.3790   -0.5789 C   0  0  0  0  0  0  0  0  0  0  0  0
   -1.7647    1.0591   -1.0862 C   0  0  0  0  0  0  0  0  0  0  0  0
   -2.6121    0.5342   -0.1142 O   0  0  0  0  0  0  0  0  0  0  0  0
   -3.9736    0.4227   -0.2166 C   0  0  0  0  0  0  0  0  0  0  0  0
   -4.7442    0.4130    0.9625 C   0  0  0  0  0  0  0  0  0  0  0  0
   -3.9671    0.5139    2.5351 Cl  0  0  0  0  0  0  0  0  0  0  0  0
   -6.1434    0.3511    0.8956 C   0  0  0  0  0  0  0  0  0  0  0  0
   -6.7869    0.2877   -0.3411 C   0  0  0  0  0  0  0  0  0  0  0  0
   -6.0375    0.2761   -1.5163 C   0  0  0  0  0  0  0  0  0  0  0  0
   -4.6420    0.3407   -1.4631 C   0  0  0  0  0  0  0  0  0  0  0  0
    0.0150    2.2080    0.3945 C   0  0  0  0  0  0  0  0  0  0  0  0
    1.1662    1.9750   -0.3371 O   0  0  0  0  0  0  0  0  0  0  0  0
    2.4138    2.0325    0.1892 C   0  0  0  0  0  0  0  0  0  0  0  0
    3.3810    2.8389   -0.4374 C   0  0  0  0  0  0  0  0  0  0  0  0
    2.9724    3.7605   -1.8778 Cl  0  0  0  0  0  0  0  0  0  0  0  0
    4.6684    2.9415    0.1000 C   0  0  0  0  0  0  0  0  0  0  0  0
    5.0046    2.2287    1.2527 C   0  0  0  0  0  0  0  0  0  0  0  0
    4.0525    1.4150    1.8747 C   0  0  0  0  0  0  0  0  0  0  0  0
    2.7571    1.3200    1.3514 C   0  0  0  0  0  0  0  0  0  0  0  0
   -1.9670    4.0868   -0.1095 H   0  0  0  0  0  0  0  0  0  0  0  0
   -0.7697    2.9381   -1.4633 H   0  0  0  0  0  0  0  0  0  0  0  0
   -2.3217    1.3322   -1.9991 H   0  0  0  0  0  0  0  0  0  0  0  0
   -0.9834    0.3246   -1.3778 H   0  0  0  0  0  0  0  0  0  0  0  0
   -6.7340    0.3598    1.8033 H   0  0  0  0  0  0  0  0  0  0  0  0
   -7.8680    0.2460   -0.3895 H   0  0  0  0  0  0  0  0  0  0  0  0
   -6.5390    0.2214   -2.4744 H   0  0  0  0  0  0  0  0  0  0  0  0
   -4.1050    0.3222   -2.3981 H   0  0  0  0  0  0  0  0  0  0  0  0
   -0.1743    1.4377    1.1732 H   0  0  0  0  0  0  0  0  0  0  0  0
    0.1591    3.1888    0.9002 H   0  0  0  0  0  0  0  0  0  0  0  0
    5.4068    3.5771   -0.3738 H   0  0  0  0  0  0  0  0  0  0  0  0
    6.0028    2.3089    1.6643 H   0  0  0  0  0  0  0  0  0  0  0  0
    4.3193    0.8611    2.7653 H   0  0  0  0  0  0  0  0  0  0  0  0
    2.0292    0.6884    1.8423 H   0  0  0  0  0  0  0  0  0  0  0  0
  1 21  1  0  0  0  0
  2  1  1  0  0  0  0
  2 22  1  0  0  0  0
  3  2  1  0  0  0  0
  3 23  1  0  0  0  0
  3 24  1  0  0  0  0
  4  3  1  0  0  0  0
  5  4  1  0  0  0  0
  6  5  2  0  0  0  0
  7  6  1  0  0  0  0
  8  6  1  0  0  0  0
  8 25  1  0  0  0  0
  9  8  2  0  0  0  0
  9 26  1  0  0  0  0
 10  9  1  0  0  0  0
 10 27  1  0  0  0  0
 11 10  2  0  0  0  0
 11  5  1  0  0  0  0
 11 28  1  0  0  0  0
 12  2  1  0  0  0  0
 12 29  1  0  0  0  0
 12 30  1  0  0  0  0
 13 12  1  0  0  0  0
 14 13  1  0  0  0  0
 15 14  2  0  0  0  0
 16 15  1  0  0  0  0
 17 15  1  0  0  0  0
 17 31  1  0  0  0  0
 18 17  2  0  0  0  0
 18 32  1  0  0  0  0
 19 18  1  0  0  0  0
 19 33  1  0  0  0  0
 20 19  2  0  0  0  0
 20 14  1  0  0  0  0
 20 34  1  0  0  0  0
M  END
>  <MOL Chiral Flag>
0

>  <energy>
104.01882611307708

$$$$
> 310_AKC_cbdd.12986
>300.sdf
 OpenBabel10062212223D

 42 42  0  0  0  0  0  0  0  0999 V2000
   -5.6930   -4.9436    1.4491 C   0  0  0  0  0  0  0  0  0  0  0  0
   -4.8331   -4.3168    0.3534 C   0  0  0  0  0  0  0  0  0  0  0  0
   -3.4117   -4.0729    0.8675 C   0  0  0  0  0  0  0  0  0  0  0  0
   -2.5148   -3.4204   -0.1909 C   0  0  0  0  0  0  0  0  0  0  0  0
   -1.1523   -3.0789    0.4274 C   0  0  0  0  0  0  0  0  0  0  0  0
   -0.2011   -2.4513   -0.5927 C   0  0  0  0  0  0  0  0  0  0  0  0
    1.1387   -2.0817    0.0647 C   0  0  0  0  0  0  0  0  0  0  0  0
    2.1153   -1.5454   -0.9867 C   0  0  0  0  0  0  0  0  0  0  0  0
    3.4412   -1.2529   -0.4138 N   0  3  0  0  0  0  0  0  0  0  0  0
    4.3515   -0.8467   -1.4991 C   0  0  0  0  0  0  0  0  0  0  0  0
    5.7970   -0.6406   -1.0940 C   0  0  0  0  0  0  0  0  0  0  0  0
    6.2606   -0.7744    0.2328 C   0  0  0  0  0  0  0  0  0  0  0  0
    7.6184   -0.5869    0.5226 C   0  0  0  0  0  0  0  0  0  0  0  0
    8.5195   -0.2685   -0.4967 C   0  0  0  0  0  0  0  0  0  0  0  0
    8.0675   -0.1316   -1.8099 C   0  0  0  0  0  0  0  0  0  0  0  0
    6.7159   -0.3145   -2.1056 C   0  0  0  0  0  0  0  0  0  0  0  0
   -5.2788   -5.9307    1.7463 H   0  0  0  0  0  0  0  0  0  0  0  0
   -6.7302   -5.0862    1.0813 H   0  0  0  0  0  0  0  0  0  0  0  0
   -5.7220   -4.2811    2.3414 H   0  0  0  0  0  0  0  0  0  0  0  0
   -4.8149   -4.9911   -0.5302 H   0  0  0  0  0  0  0  0  0  0  0  0
   -5.2879   -3.3470    0.0545 H   0  0  0  0  0  0  0  0  0  0  0  0
   -3.4723   -3.4010    1.7512 H   0  0  0  0  0  0  0  0  0  0  0  0
   -2.9569   -5.0389    1.1822 H   0  0  0  0  0  0  0  0  0  0  0  0
   -2.3889   -4.1161   -1.0508 H   0  0  0  0  0  0  0  0  0  0  0  0
   -2.9875   -2.4827   -0.5580 H   0  0  0  0  0  0  0  0  0  0  0  0
   -0.6870   -4.0061    0.8289 H   0  0  0  0  0  0  0  0  0  0  0  0
   -1.3095   -2.3638    1.2645 H   0  0  0  0  0  0  0  0  0  0  0  0
   -0.6610   -1.5377   -1.0301 H   0  0  0  0  0  0  0  0  0  0  0  0
   -0.0245   -3.1870   -1.4088 H   0  0  0  0  0  0  0  0  0  0  0  0
    1.5770   -2.9898    0.5331 H   0  0  0  0  0  0  0  0  0  0  0  0
    0.9746   -1.3153    0.8544 H   0  0  0  0  0  0  0  0  0  0  0  0
    1.6884   -0.6274   -1.4511 H   0  0  0  0  0  0  0  0  0  0  0  0
    2.2193   -2.3268   -1.7740 H   0  0  0  0  0  0  0  0  0  0  0  0
    3.8079   -2.1232    0.0389 H   0  0  0  0  0  0  0  0  0  0  0  0
    3.3590   -0.4844    0.2937 H   0  0  0  0  0  0  0  0  0  0  0  0
    3.9812    0.0964   -1.9611 H   0  0  0  0  0  0  0  0  0  0  0  0
    4.3585   -1.6405   -2.2804 H   0  0  0  0  0  0  0  0  0  0  0  0
    5.5880   -1.0224    1.0411 H   0  0  0  0  0  0  0  0  0  0  0  0
    7.9743   -0.6916    1.5397 H   0  0  0  0  0  0  0  0  0  0  0  0
    9.5688   -0.1282   -0.2712 H   0  0  0  0  0  0  0  0  0  0  0  0
    8.7642    0.1133   -2.6010 H   0  0  0  0  0  0  0  0  0  0  0  0
    6.3795   -0.2101   -3.1307 H   0  0  0  0  0  0  0  0  0  0  0  0
  1 17  1  0  0  0  0
  1 18  1  0  0  0  0
  1 19  1  0  0  0  0
  2  1  1  0  0  0  0
  2 20  1  0  0  0  0
  2 21  1  0  0  0  0
  3  2  1  0  0  0  0
  3 22  1  0  0  0  0
  3 23  1  0  0  0  0
  4  3  1  0  0  0  0
  4 24  1  0  0  0  0
  4 25  1  0  0  0  0
  5  4  1  0  0  0  0
  5 26  1  0  0  0  0
  5 27  1  0  0  0  0
  6  5  1  0  0  0  0
  6 28  1  0  0  0  0
  6 29  1  0  0  0  0
  7  6  1  0  0  0  0
  7 30  1  0  0  0  0
  7 31  1  0  0  0  0
  8  7  1  0  0  0  0
  8 32  1  0  0  0  0
  8 33  1  0  0  0  0
  9  8  1  0  0  0  0
  9 34  1  0  0  0  0
  9 35  1  0  0  0  0
 10  9  1  0  0  0  0
 10 36  1  0  0  0  0
 10 37  1  0  0  0  0
 11 10  1  0  0  0  0
 12 11  2  0  0  0  0
 12 38  1  0  0  0  0
 13 12  1  0  0  0  0
 13 39  1  0  0  0  0
 14 13  2  0  0  0  0
 14 40  1  0  0  0  0
 15 14  1  0  0  0  0
 15 41  1  0  0  0  0
 16 15  2  0  0  0  0
 16 11  1  0  0  0  0
 16 42  1  0  0  0  0
M  CHG  1   9   1
M  END
>  <MOL Chiral Flag>
0

>  <energy>
20.728832890786176

$$$$
> 311_AKC_j.ejps.2017.05.005
>301.sdf
 OpenBabel10062212223D

 40 44  0  0  0  0  0  0  0  0999 V2000
    5.0540   -3.1130   -0.8766 O   0  0  0  0  0  0  0  0  0  0  0  0
    5.3901   -2.5493    0.1492 C   0  0  0  0  0  0  0  0  0  0  0  0
    4.5685   -1.8385    0.9693 N   0  0  0  0  0  0  0  0  0  0  0  0
    3.2126   -1.5704    0.8550 N   0  0  0  0  0  0  0  0  0  0  0  0
    2.2486   -2.1716   -0.0021 C   0  0  0  0  0  0  0  0  0  0  0  0
    1.0194   -1.6321   -0.0910 N   0  0  0  0  0  0  0  0  0  0  0  0
    0.1489   -2.3326   -0.8874 C   0  0  0  0  0  0  0  0  0  0  0  0
    0.6975   -3.5045   -1.4523 C   0  0  0  0  0  0  0  0  0  0  0  0
    2.2775   -3.5649   -0.9022 S   0  0  0  0  0  0  0  0  0  0  0  0
   -1.2280   -1.8040   -1.0696 C   0  0  0  0  0  0  0  0  0  0  0  0
   -1.5398   -0.5751   -0.4568 C   0  0  0  0  0  0  0  0  0  0  0  0
   -2.8010   -0.0030   -0.5864 C   0  0  0  0  0  0  0  0  0  0  0  0
   -3.0777    1.2270    0.0286 C   0  0  0  0  0  0  0  0  0  0  0  0
   -4.3385    1.8056   -0.1027 C   0  0  0  0  0  0  0  0  0  0  0  0
   -5.3305    1.1603   -0.8460 C   0  0  0  0  0  0  0  0  0  0  0  0
   -5.0644   -0.0701   -1.4634 C   0  0  0  0  0  0  0  0  0  0  0  0
   -3.7952   -0.6610   -1.3389 C   0  0  0  0  0  0  0  0  0  0  0  0
   -3.4984   -1.8928   -1.9521 C   0  0  0  0  0  0  0  0  0  0  0  0
   -2.2192   -2.4626   -1.8211 C   0  0  0  0  0  0  0  0  0  0  0  0
    5.3169   -1.2958    1.9585 C   0  0  0  0  0  0  0  0  0  0  0  0
    4.8744   -0.5800    2.8442 O   0  0  0  0  0  0  0  0  0  0  0  0
    6.7073   -1.6639    1.7847 C   0  0  0  0  0  0  0  0  0  0  0  0
    6.7691   -2.4463    0.6542 C   0  0  0  0  0  0  0  0  0  0  0  0
    7.9870   -2.9438    0.1924 C   0  0  0  0  0  0  0  0  0  0  0  0
    9.1532   -2.6241    0.9207 C   0  0  0  0  0  0  0  0  0  0  0  0
    9.0757   -1.8222    2.0837 C   0  0  0  0  0  0  0  0  0  0  0  0
    7.8359   -1.3336    2.5239 C   0  0  0  0  0  0  0  0  0  0  0  0
    2.8339   -0.8234    1.4569 H   0  0  0  0  0  0  0  0  0  0  0  0
    0.2092   -4.2165   -2.1048 H   0  0  0  0  0  0  0  0  0  0  0  0
   -0.7926   -0.0488    0.1248 H   0  0  0  0  0  0  0  0  0  0  0  0
   -2.3154    1.7373    0.6074 H   0  0  0  0  0  0  0  0  0  0  0  0
   -4.5446    2.7561    0.3729 H   0  0  0  0  0  0  0  0  0  0  0  0
   -6.3065    1.6165   -0.9435 H   0  0  0  0  0  0  0  0  0  0  0  0
   -5.8443   -0.5554   -2.0360 H   0  0  0  0  0  0  0  0  0  0  0  0
   -4.2541   -2.4088   -2.5323 H   0  0  0  0  0  0  0  0  0  0  0  0
   -2.0119   -3.4087   -2.3029 H   0  0  0  0  0  0  0  0  0  0  0  0
    8.0402   -3.5500   -0.7016 H   0  0  0  0  0  0  0  0  0  0  0  0
   10.1154   -2.9888    0.5874 H   0  0  0  0  0  0  0  0  0  0  0  0
    9.9736   -1.5764    2.6357 H   0  0  0  0  0  0  0  0  0  0  0  0
    7.7596   -0.7112    3.4067 H   0  0  0  0  0  0  0  0  0  0  0  0
  2  1  2  0  0  0  0
  3  2  1  0  0  0  0
  4  3  1  0  0  0  0
  4 28  1  0  0  0  0
  5  4  1  0  0  0  0
  6  5  2  0  0  0  0
  7  6  1  0  0  0  0
  8  7  2  0  0  0  0
  8 29  1  0  0  0  0
  9  8  1  0  0  0  0
  9  5  1  0  0  0  0
 10  7  1  0  0  0  0
 11 10  2  0  0  0  0
 11 30  1  0  0  0  0
 12 11  1  0  0  0  0
 13 12  2  0  0  0  0
 13 31  1  0  0  0  0
 14 13  1  0  0  0  0
 14 32  1  0  0  0  0
 15 14  2  0  0  0  0
 15 33  1  0  0  0  0
 16 15  1  0  0  0  0
 16 34  1  0  0  0  0
 17 16  2  0  0  0  0
 17 12  1  0  0  0  0
 18 17  1  0  0  0  0
 18 35  1  0  0  0  0
 19 18  2  0  0  0  0
 19 10  1  0  0  0  0
 19 36  1  0  0  0  0
 20  3  1  0  0  0  0
 21 20  2  0  0  0  0
 22 20  1  0  0  0  0
 23 22  2  0  0  0  0
 23  2  1  0  0  0  0
 24 23  1  0  0  0  0
 24 37  1  0  0  0  0
 25 24  2  0  0  0  0
 25 38  1  0  0  0  0
 26 25  1  0  0  0  0
 26 39  1  0  0  0  0
 27 26  2  0  0  0  0
 27 22  1  0  0  0  0
 27 40  1  0  0  0  0
M  END
>  <MOL Chiral Flag>
0

>  <energy>
79.081989043986781

$$$$
> 312_AKC_j.ejps.2017.05.005
>302.sdf
 OpenBabel10062212233D

 34 37  0  0  0  0  0  0  0  0999 V2000
   -6.0111    5.1221    1.4174 Cl  0  0  0  0  0  0  0  0  0  0  0  0
   -5.2088    3.9423    0.3968 C   0  0  0  0  0  0  0  0  0  0  0  0
   -3.9932    4.2565   -0.2060 C   0  0  0  0  0  0  0  0  0  0  0  0
   -3.3243    3.3170   -0.9996 C   0  0  0  0  0  0  0  0  0  0  0  0
   -1.7846    3.8326   -1.6928 Cl  0  0  0  0  0  0  0  0  0  0  0  0
   -3.8890    2.0185   -1.1966 C   0  0  0  0  0  0  0  0  0  0  0  0
   -5.1325    1.7349   -0.5908 C   0  0  0  0  0  0  0  0  0  0  0  0
   -5.7797    2.6877    0.1982 C   0  0  0  0  0  0  0  0  0  0  0  0
   -3.1639    0.9367   -1.9423 C   0  0  0  0  0  0  0  0  0  0  0  0
   -3.6657   -0.3697   -2.1686 C   0  0  0  0  0  0  0  0  0  0  0  0
   -2.3997   -1.2427   -2.8011 S   0  0  0  0  0  0  0  0  0  0  0  0
   -1.3047   -0.0172   -2.8451 C   0  0  0  0  0  0  0  0  0  0  0  0
    0.0820   -0.1100   -3.1160 N   0  0  0  0  0  0  0  0  0  0  0  0
    0.8011    1.0478   -3.3171 N   0  0  0  0  0  0  0  0  0  0  0  0
    1.9819    1.3663   -2.7384 C   0  0  0  0  0  0  0  0  0  0  0  0
    2.5733    0.6544   -1.9405 O   0  0  0  0  0  0  0  0  0  0  0  0
    2.3734    2.7148   -3.1687 C   0  0  0  0  0  0  0  0  0  0  0  0
    1.3954    3.1372   -4.0468 C   0  0  0  0  0  0  0  0  0  0  0  0
    1.4496    4.3747   -4.6745 C   0  0  0  0  0  0  0  0  0  0  0  0
    2.5322    5.2175   -4.3745 C   0  0  0  0  0  0  0  0  0  0  0  0
    3.5253    4.8046   -3.4547 C   0  0  0  0  0  0  0  0  0  0  0  0
    3.4509    3.5357   -2.8431 C   0  0  0  0  0  0  0  0  0  0  0  0
    0.4110    2.0717   -4.1135 C   0  0  0  0  0  0  0  0  0  0  0  0
   -0.6053    2.0711   -4.7927 O   0  0  0  0  0  0  0  0  0  0  0  0
   -1.8617    1.1084   -2.3449 N   0  0  0  0  0  0  0  0  0  0  0  0
   -3.5546    5.2343   -0.0459 H   0  0  0  0  0  0  0  0  0  0  0  0
   -5.5986    0.7680   -0.6958 H   0  0  0  0  0  0  0  0  0  0  0  0
   -6.7213    2.4412    0.6712 H   0  0  0  0  0  0  0  0  0  0  0  0
   -4.6405   -0.7656   -1.9272 H   0  0  0  0  0  0  0  0  0  0  0  0
    0.5645   -1.0016   -2.9255 H   0  0  0  0  0  0  0  0  0  0  0  0
    0.6771    4.6796   -5.3690 H   0  0  0  0  0  0  0  0  0  0  0  0
    2.5995    6.1895   -4.8451 H   0  0  0  0  0  0  0  0  0  0  0  0
    4.3468    5.4683   -3.2215 H   0  0  0  0  0  0  0  0  0  0  0  0
    4.2053    3.2136   -2.1379 H   0  0  0  0  0  0  0  0  0  0  0  0
  2  1  1  0  0  0  0
  3  2  2  0  0  0  0
  3 26  1  0  0  0  0
  4  3  1  0  0  0  0
  5  4  1  0  0  0  0
  6  4  2  0  0  0  0
  7  6  1  0  0  0  0
  7 27  1  0  0  0  0
  8  7  2  0  0  0  0
  8  2  1  0  0  0  0
  8 28  1  0  0  0  0
  9  6  1  0  0  0  0
 10  9  2  0  0  0  0
 10 29  1  0  0  0  0
 11 10  1  0  0  0  0
 12 11  1  0  0  0  0
 13 12  1  0  0  0  0
 13 30  1  0  0  0  0
 14 13  1  0  0  0  0
 15 14  1  0  0  0  0
 16 15  2  0  0  0  0
 17 15  1  0  0  0  0
 18 17  2  0  0  0  0
 19 18  1  0  0  0  0
 19 31  1  0  0  0  0
 20 19  2  0  0  0  0
 20 32  1  0  0  0  0
 21 20  1  0  0  0  0
 21 33  1  0  0  0  0
 22 21  2  0  0  0  0
 22 17  1  0  0  0  0
 22 34  1  0  0  0  0
 23 18  1  0  0  0  0
 23 14  1  0  0  0  0
 24 23  2  0  0  0  0
 25 12  2  0  0  0  0
 25  9  1  0  0  0  0
M  END
>  <MOL Chiral Flag>
0

>  <energy>
64.850663068599459

$$$$
> 313_AKC_s00044-017-1846-5
>303.sdf
 OpenBabel10062212253D

 61 64  0  0  0  0  0  0  0  0999 V2000
   12.8814    0.2536    1.6333 O   0  0  0  0  0  0  0  0  0  0  0  0
   12.4030    0.2025    0.5113 C   0  0  0  0  0  0  0  0  0  0  0  0
   13.2296   -0.0433   -0.5831 C   0  0  0  0  0  0  0  0  0  0  0  0
   12.6671   -0.0995   -1.8607 C   0  0  0  0  0  0  0  0  0  0  0  0
   11.3591    0.0789   -2.0347 O   0  0  0  0  0  0  0  0  0  0  0  0
   10.5297    0.3157   -1.0201 C   0  0  0  0  0  0  0  0  0  0  0  0
    9.1604    0.4918   -1.2647 C   0  0  0  0  0  0  0  0  0  0  0  0
    8.2718    0.7353   -0.2079 C   0  0  0  0  0  0  0  0  0  0  0  0
    6.9432    0.8897   -0.4821 O   0  0  0  0  0  0  0  0  0  0  0  0
    5.9794    1.0691    0.4931 C   0  0  0  0  0  0  0  0  0  0  0  0
    4.5648    1.1703   -0.0951 C   0  0  0  0  0  0  0  0  0  0  0  0
    3.5762    1.3007    1.0725 C   0  0  0  0  0  0  0  0  0  0  0  0
    2.0905    1.3670    0.6793 C   0  0  0  0  0  0  0  0  0  0  0  0
    1.2709    1.4016    1.9812 C   0  0  0  0  0  0  0  0  0  0  0  0
   -0.2532    1.3651    1.8379 C   0  0  0  0  0  0  0  0  0  0  0  0
   -0.8821    2.6261    1.2228 C   0  0  0  0  0  0  0  0  0  0  0  0
   -2.4026    2.5731    1.4458 C   0  0  0  0  0  0  0  0  0  0  0  0
   -3.1555    3.7900    0.9131 C   0  0  0  0  0  0  0  0  0  0  0  0
   -4.4712    3.6748    1.3224 O   0  0  0  0  0  0  0  0  0  0  0  0
   -5.4907    4.5287    1.0444 C   0  0  0  0  0  0  0  0  0  0  0  0
   -6.7190    4.3430    1.7014 C   0  0  0  0  0  0  0  0  0  0  0  0
   -6.8635    3.3348    2.6070 N   0  0  0  0  0  0  0  0  0  0  0  0
   -8.0337    3.1296    3.2692 C   0  0  0  0  0  0  0  0  0  0  0  0
   -9.1318    3.9584    3.0287 C   0  0  0  0  0  0  0  0  0  0  0  0
   -9.0192    4.9996    2.1058 C   0  0  0  0  0  0  0  0  0  0  0  0
   -7.8068    5.2041    1.4334 C   0  0  0  0  0  0  0  0  0  0  0  0
   -7.6602    6.2444    0.5072 C   0  0  0  0  0  0  0  0  0  0  0  0
   -6.4379    6.4327   -0.1436 C   0  0  0  0  0  0  0  0  0  0  0  0
   -5.3560    5.5854    0.1213 C   0  0  0  0  0  0  0  0  0  0  0  0
    8.7781    0.8056    1.1116 C   0  0  0  0  0  0  0  0  0  0  0  0
   10.1404    0.6339    1.3613 C   0  0  0  0  0  0  0  0  0  0  0  0
   11.0259    0.3864    0.3024 C   0  0  0  0  0  0  0  0  0  0  0  0
   14.2948   -0.1899   -0.4498 H   0  0  0  0  0  0  0  0  0  0  0  0
   13.3001   -0.2904   -2.7166 H   0  0  0  0  0  0  0  0  0  0  0  0
    8.7855    0.4339   -2.2793 H   0  0  0  0  0  0  0  0  0  0  0  0
    6.1986    1.9998    1.0626 H   0  0  0  0  0  0  0  0  0  0  0  0
    6.0105    0.1964    1.1841 H   0  0  0  0  0  0  0  0  0  0  0  0
    4.3380    0.2497   -0.6760 H   0  0  0  0  0  0  0  0  0  0  0  0
    4.4911    2.0523   -0.7675 H   0  0  0  0  0  0  0  0  0  0  0  0
    3.8301    2.2129    1.6575 H   0  0  0  0  0  0  0  0  0  0  0  0
    3.7171    0.4118    1.7282 H   0  0  0  0  0  0  0  0  0  0  0  0
    1.8921    2.2702    0.0631 H   0  0  0  0  0  0  0  0  0  0  0  0
    1.8199    0.4603    0.0953 H   0  0  0  0  0  0  0  0  0  0  0  0
    1.5429    0.4977    2.5712 H   0  0  0  0  0  0  0  0  0  0  0  0
    1.5531    2.2961    2.5795 H   0  0  0  0  0  0  0  0  0  0  0  0
   -0.6368    1.2709    2.8784 H   0  0  0  0  0  0  0  0  0  0  0  0
   -0.5716    0.4604    1.2749 H   0  0  0  0  0  0  0  0  0  0  0  0
   -0.4891    3.5271    1.7431 H   0  0  0  0  0  0  0  0  0  0  0  0
   -0.6324    2.6951    0.1421 H   0  0  0  0  0  0  0  0  0  0  0  0
   -2.8257    1.6579    0.9762 H   0  0  0  0  0  0  0  0  0  0  0  0
   -2.5855    2.5212    2.5431 H   0  0  0  0  0  0  0  0  0  0  0  0
   -3.0838    3.8138   -0.1959 H   0  0  0  0  0  0  0  0  0  0  0  0
   -2.7226    4.7217    1.3396 H   0  0  0  0  0  0  0  0  0  0  0  0
   -8.1120    2.3219    3.9848 H   0  0  0  0  0  0  0  0  0  0  0  0
  -10.0631    3.7946    3.5555 H   0  0  0  0  0  0  0  0  0  0  0  0
   -9.8709    5.6431    1.9199 H   0  0  0  0  0  0  0  0  0  0  0  0
   -8.4881    6.9094    0.2912 H   0  0  0  0  0  0  0  0  0  0  0  0
   -6.3286    7.2388   -0.8574 H   0  0  0  0  0  0  0  0  0  0  0  0
   -4.4226    5.7536   -0.3978 H   0  0  0  0  0  0  0  0  0  0  0  0
    8.1258    0.9914    1.9531 H   0  0  0  0  0  0  0  0  0  0  0  0
   10.4995    0.6919    2.3820 H   0  0  0  0  0  0  0  0  0  0  0  0
  2  1  2  0  0  0  0
  3  2  1  0  0  0  0
  3 33  1  0  0  0  0
  4  3  2  0  0  0  0
  4 34  1  0  0  0  0
  5  4  1  0  0  0  0
  6  5  1  0  0  0  0
  7  6  2  0  0  0  0
  7 35  1  0  0  0  0
  8  7  1  0  0  0  0
  9  8  1  0  0  0  0
 10  9  1  0  0  0  0
 10 36  1  0  0  0  0
 10 37  1  0  0  0  0
 11 10  1  0  0  0  0
 11 38  1  0  0  0  0
 11 39  1  0  0  0  0
 12 11  1  0  0  0  0
 12 40  1  0  0  0  0
 12 41  1  0  0  0  0
 13 12  1  0  0  0  0
 13 42  1  0  0  0  0
 13 43  1  0  0  0  0
 14 13  1  0  0  0  0
 14 44  1  0  0  0  0
 14 45  1  0  0  0  0
 15 14  1  0  0  0  0
 15 46  1  0  0  0  0
 15 47  1  0  0  0  0
 16 15  1  0  0  0  0
 16 48  1  0  0  0  0
 16 49  1  0  0  0  0
 17 16  1  0  0  0  0
 17 50  1  0  0  0  0
 17 51  1  0  0  0  0
 18 17  1  0  0  0  0
 18 52  1  0  0  0  0
 18 53  1  0  0  0  0
 19 18  1  0  0  0  0
 20 19  1  0  0  0  0
 21 20  2  0  0  0  0
 22 21  1  0  0  0  0
 23 22  2  0  0  0  0
 23 54  1  0  0  0  0
 24 23  1  0  0  0  0
 24 55  1  0  0  0  0
 25 24  2  0  0  0  0
 25 56  1  0  0  0  0
 26 25  1  0  0  0  0
 26 21  1  0  0  0  0
 27 26  2  0  0  0  0
 27 57  1  0  0  0  0
 28 27  1  0  0  0  0
 28 58  1  0  0  0  0
 29 28  2  0  0  0  0
 29 20  1  0  0  0  0
 29 59  1  0  0  0  0
 30  8  2  0  0  0  0
 30 60  1  0  0  0  0
 31 30  1  0  0  0  0
 31 61  1  0  0  0  0
 32 31  2  0  0  0  0
 32  2  1  0  0  0  0
 32  6  1  0  0  0  0
M  END
>  <MOL Chiral Flag>
0

>  <energy>
108.78292070975854

$$$$
> 314_AKC_IJBMS.2017.8828
>304.sdf
 OpenBabel10062212253D

 42 45  0  0  0  0  0  0  0  0999 V2000
   -5.7092    1.7522   -1.9950 C   0  0  0  0  0  0  0  0  0  0  0  0
   -5.6559    2.6001   -0.7966 N   0  0  0  0  0  0  0  0  0  0  0  0
   -6.6280    3.3455   -0.2098 C   0  0  0  0  0  0  0  0  0  0  0  0
   -6.1130    3.9179    0.9348 C   0  0  0  0  0  0  0  0  0  0  0  0
   -4.8259    3.5503    1.0647 N   0  0  0  0  0  0  0  0  0  0  0  0
   -4.5642    2.7684   -0.0058 C   0  0  0  0  0  0  0  0  0  0  0  0
   -3.2097    2.2453   -0.2699 C   0  0  0  0  0  0  0  0  0  0  0  0
   -2.7423    1.8175   -1.4776 N   0  0  0  0  0  0  0  0  0  0  0  0
   -1.4264    1.5087   -1.4754 N   0  0  0  0  0  0  0  0  0  0  0  0
   -0.8313    1.6787   -0.2622 C   0  0  0  0  0  0  0  0  0  0  0  0
   -1.9627    2.2369    0.8060 S   0  0  0  0  0  0  0  0  0  0  0  0
    0.5456    1.4095    0.0185 N   0  0  0  0  0  0  0  0  0  0  0  0
    1.4995    1.0968   -1.0352 C   0  0  0  0  0  0  0  0  0  0  0  0
    2.6578    2.1176   -0.9853 C   0  0  0  0  0  0  0  0  0  0  0  0
    3.1696    2.2087    0.3872 N   0  0  0  0  0  0  0  0  0  0  0  0
    2.1682    2.5121    1.4150 C   0  0  0  0  0  0  0  0  0  0  0  0
    1.0623    1.4679    1.3745 C   0  0  0  0  0  0  0  0  0  0  0  0
    4.4910    2.0138    0.7589 C   0  0  0  0  0  0  0  0  0  0  0  0
    4.7610    1.9587    1.9516 O   0  0  0  0  0  0  0  0  0  0  0  0
    5.6613    1.9209   -0.1748 C   0  0  0  0  0  0  0  0  0  0  0  0
    6.9544    1.5611    0.2501 C   0  0  0  0  0  0  0  0  0  0  0  0
    7.9396    1.6334   -0.7720 C   0  0  0  0  0  0  0  0  0  0  0  0
    7.4298    2.0614   -1.9946 C   0  0  0  0  0  0  0  0  0  0  0  0
    8.3333    2.3054   -3.4741 Cl  0  0  0  0  0  0  0  0  0  0  0  0
    5.8110    2.3323   -1.7845 S   0  0  0  0  0  0  0  0  0  0  0  0
   -7.9657    3.5456   -0.6712 N   0  0  0  0  0  0  0  0  0  0  0  0
   -8.6965    4.2695   -0.0676 O   0  0  0  0  0  0  0  0  0  0  0  0
   -8.3461    3.0546   -1.6894 O   0  0  0  0  0  0  0  0  0  0  0  0
   -6.6949    1.7302   -2.4826 H   0  0  0  0  0  0  0  0  0  0  0  0
   -5.4812    0.7038   -1.7008 H   0  0  0  0  0  0  0  0  0  0  0  0
   -4.9696    2.0918   -2.7451 H   0  0  0  0  0  0  0  0  0  0  0  0
   -6.6315    4.5689    1.6261 H   0  0  0  0  0  0  0  0  0  0  0  0
    1.9081    0.0794   -0.8497 H   0  0  0  0  0  0  0  0  0  0  0  0
    1.0334    1.1007   -2.0442 H   0  0  0  0  0  0  0  0  0  0  0  0
    2.2685    3.1136   -1.2876 H   0  0  0  0  0  0  0  0  0  0  0  0
    3.3882    1.7827   -1.7275 H   0  0  0  0  0  0  0  0  0  0  0  0
    2.5803    2.5593    2.4446 H   0  0  0  0  0  0  0  0  0  0  0  0
    1.7252    3.5086    1.1957 H   0  0  0  0  0  0  0  0  0  0  0  0
    1.4792    0.4739    1.6477 H   0  0  0  0  0  0  0  0  0  0  0  0
    0.2862    1.7247    2.1231 H   0  0  0  0  0  0  0  0  0  0  0  0
    7.1902    1.2660    1.2646 H   0  0  0  0  0  0  0  0  0  0  0  0
    8.9825    1.3943   -0.6100 H   0  0  0  0  0  0  0  0  0  0  0  0
  1 29  1  0  0  0  0
  1 30  1  0  0  0  0
  1 31  1  0  0  0  0
  2  1  1  0  0  0  0
  3  2  1  0  0  0  0
  4  3  2  0  0  0  0
  4 32  1  0  0  0  0
  5  4  1  0  0  0  0
  6  5  2  0  0  0  0
  6  2  1  0  0  0  0
  7  6  1  0  0  0  0
  8  7  2  0  0  0  0
  9  8  1  0  0  0  0
 10  9  2  0  0  0  0
 11 10  1  0  0  0  0
 11  7  1  0  0  0  0
 12 10  1  0  0  0  0
 13 12  1  0  0  0  0
 13 33  1  0  0  0  0
 13 34  1  0  0  0  0
 14 13  1  0  0  0  0
 14 35  1  0  0  0  0
 14 36  1  0  0  0  0
 15 14  1  0  0  0  0
 16 15  1  0  0  0  0
 16 37  1  0  0  0  0
 16 38  1  0  0  0  0
 17 16  1  0  0  0  0
 17 12  1  0  0  0  0
 17 39  1  0  0  0  0
 17 40  1  0  0  0  0
 18 15  1  0  0  0  0
 19 18  2  0  0  0  0
 20 18  1  0  0  0  0
 21 20  2  0  0  0  0
 21 41  1  0  0  0  0
 22 21  1  0  0  0  0
 22 42  1  0  0  0  0
 23 22  2  0  0  0  0
 24 23  1  0  0  0  0
 25 23  1  0  0  0  0
 25 20  1  0  0  0  0
 26  3  1  0  0  0  0
 27 26  2  0  0  0  0
 28 26  2  0  0  0  0
M  END
>  <MOL Chiral Flag>
0

>  <energy>
66.235060168142013

$$$$
> 315_akc_1570180813666160927113743
>305.sdf
 OpenBabel10062212263D

 43 46  0  0  0  0  0  0  0  0999 V2000
    7.3828    3.3618    1.6524 Cl  0  0  0  0  0  0  0  0  0  0  0  0
    6.1037    2.3209    1.0550 C   0  0  0  0  0  0  0  0  0  0  0  0
    5.5377    1.3575    1.8947 C   0  0  0  0  0  0  0  0  0  0  0  0
    4.5147    0.5267    1.4280 C   0  0  0  0  0  0  0  0  0  0  0  0
    4.0387    0.6606    0.1088 C   0  0  0  0  0  0  0  0  0  0  0  0
    2.9790   -0.1304   -0.3942 C   0  0  0  0  0  0  0  0  0  0  0  0
    2.3962   -1.1811    0.3831 N   0  0  0  0  0  0  0  0  0  0  0  0
    1.0145   -1.5217    0.3027 C   0  0  0  0  0  0  0  0  0  0  0  0
    0.6022   -2.8506    0.4906 C   0  0  0  0  0  0  0  0  0  0  0  0
   -0.7567   -3.1845    0.4151 C   0  0  0  0  0  0  0  0  0  0  0  0
   -1.7128   -2.1862    0.1872 C   0  0  0  0  0  0  0  0  0  0  0  0
   -1.3054   -0.8576    0.0303 C   0  0  0  0  0  0  0  0  0  0  0  0
    0.0472   -0.5270    0.0770 C   0  0  0  0  0  0  0  0  0  0  0  0
   -3.4544   -2.5914    0.0480 S   0  0  0  0  0  0  0  0  0  0  0  0
   -4.2300   -2.7948    1.3569 O   0  0  0  0  0  0  0  0  0  0  0  0
   -3.6475   -3.9414   -0.6587 O   0  0  0  0  0  0  0  0  0  0  0  0
   -4.3514   -1.4717   -0.9784 N   0  0  0  0  0  0  0  0  0  0  0  0
   -4.7837   -0.1847   -0.5434 C   0  0  0  0  0  0  0  0  0  0  0  0
   -5.1666    0.0755    0.7869 C   0  0  0  0  0  0  0  0  0  0  0  0
   -5.5709    1.3628    1.1466 C   0  0  0  0  0  0  0  0  0  0  0  0
   -5.5734    2.3820    0.1964 C   0  0  0  0  0  0  0  0  0  0  0  0
   -5.1872    2.0950   -1.1120 C   0  0  0  0  0  0  0  0  0  0  0  0
   -4.8187    0.8313   -1.4520 N   0  0  0  0  0  0  0  0  0  0  0  0
    2.5305    0.0959   -1.7088 C   0  0  0  0  0  0  0  0  0  0  0  0
    3.1389    1.0691   -2.4991 C   0  0  0  0  0  0  0  0  0  0  0  0
    4.1563    1.8162   -2.0015 N   0  0  0  0  0  0  0  0  0  0  0  0
    4.6121    1.6482   -0.7325 C   0  0  0  0  0  0  0  0  0  0  0  0
    5.6442    2.4636   -0.2564 C   0  0  0  0  0  0  0  0  0  0  0  0
    5.8862    1.2560    2.9143 H   0  0  0  0  0  0  0  0  0  0  0  0
    4.0898   -0.1971    2.1088 H   0  0  0  0  0  0  0  0  0  0  0  0
    3.0126   -1.7654    0.9664 H   0  0  0  0  0  0  0  0  0  0  0  0
    1.3356   -3.6279    0.6643 H   0  0  0  0  0  0  0  0  0  0  0  0
   -1.0627   -4.2166    0.5279 H   0  0  0  0  0  0  0  0  0  0  0  0
   -2.0343   -0.0764   -0.1350 H   0  0  0  0  0  0  0  0  0  0  0  0
    0.3393    0.5090   -0.0383 H   0  0  0  0  0  0  0  0  0  0  0  0
   -4.2182   -1.6017   -1.9918 H   0  0  0  0  0  0  0  0  0  0  0  0
   -5.1792   -0.6910    1.5393 H   0  0  0  0  0  0  0  0  0  0  0  0
   -5.8801    1.5700    2.1632 H   0  0  0  0  0  0  0  0  0  0  0  0
   -5.8742    3.3849    0.4704 H   0  0  0  0  0  0  0  0  0  0  0  0
   -5.1788    2.8774   -1.8589 H   0  0  0  0  0  0  0  0  0  0  0  0
    1.7356   -0.5043   -2.1332 H   0  0  0  0  0  0  0  0  0  0  0  0
    2.8071    1.2234   -3.5173 H   0  0  0  0  0  0  0  0  0  0  0  0
    6.0812    3.2155   -0.9026 H   0  0  0  0  0  0  0  0  0  0  0  0
  2  1  1  0  0  0  0
  3  2  2  0  0  0  0
  3 29  1  0  0  0  0
  4  3  1  0  0  0  0
  4 30  1  0  0  0  0
  5  4  2  0  0  0  0
  6  5  1  0  0  0  0
  7  6  1  0  0  0  0
  7 31  1  0  0  0  0
  8  7  1  0  0  0  0
  9  8  2  0  0  0  0
  9 32  1  0  0  0  0
 10  9  1  0  0  0  0
 10 33  1  0  0  0  0
 11 10  2  0  0  0  0
 12 11  1  0  0  0  0
 12 34  1  0  0  0  0
 13 12  2  0  0  0  0
 13  8  1  0  0  0  0
 13 35  1  0  0  0  0
 14 11  1  0  0  0  0
 15 14  2  0  0  0  0
 16 14  2  0  0  0  0
 17 14  1  0  0  0  0
 17 36  1  0  0  0  0
 18 17  1  0  0  0  0
 19 18  2  0  0  0  0
 19 37  1  0  0  0  0
 20 19  1  0  0  0  0
 20 38  1  0  0  0  0
 21 20  2  0  0  0  0
 21 39  1  0  0  0  0
 22 21  1  0  0  0  0
 22 40  1  0  0  0  0
 23 22  2  0  0  0  0
 23 18  1  0  0  0  0
 24  6  2  0  0  0  0
 24 41  1  0  0  0  0
 25 24  1  0  0  0  0
 25 42  1  0  0  0  0
 26 25  2  0  0  0  0
 27 26  1  0  0  0  0
 27  5  1  0  0  0  0
 28 27  2  0  0  0  0
 28  2  1  0  0  0  0
 28 43  1  0  0  0  0
M  END
>  <MOL Chiral Flag>
0

>  <energy>
-29.484372936784567

$$$$
> 316_AKC_j.exppara.2017.02.004
>306.sdf
 OpenBabel10062212263D

 46 48  0  0  0  0  0  0  0  0999 V2000
    3.6433   -3.6058    0.4779 C   0  0  0  0  0  0  0  0  0  0  0  0
    2.3066   -3.0340    0.7094 N   0  3  2  0  0  0  0  0  0  0  0  0
    1.7468   -2.5127   -0.5603 C   0  0  0  0  0  0  0  0  0  0  0  0
    0.3403   -1.9385   -0.3328 C   0  0  0  0  0  0  0  0  0  0  0  0
    0.4348   -0.9263    0.7064 N   0  0  0  0  0  0  0  0  0  0  0  0
    1.0123   -1.3342    1.9741 C   0  0  0  0  0  0  0  0  0  0  0  0
    2.3920   -1.9562    1.7233 C   0  0  0  0  0  0  0  0  0  0  0  0
    0.0912    0.4449    0.4355 C   0  0  0  0  0  0  0  0  0  0  0  0
   -1.1270    0.7729   -0.0929 C   0  0  0  0  0  0  0  0  0  0  0  0
   -2.1738   -0.2951   -0.2504 C   0  0  0  0  0  0  0  0  0  0  0  0
   -3.0916   -0.4197   -1.2452 C   0  0  0  0  0  0  0  0  0  0  0  0
   -4.0969   -1.5426   -1.1764 C   0  0  0  0  0  0  0  0  0  0  0  0
   -3.1419    0.4562   -2.4741 C   0  0  0  0  0  0  0  0  0  0  0  0
   -1.4491    2.2140   -0.3697 C   0  0  0  0  0  0  0  0  0  0  0  0
   -2.5891    2.5449   -0.6596 O   0  0  0  0  0  0  0  0  0  0  0  0
   -0.4127    3.2600   -0.2040 C   0  0  0  0  0  0  0  0  0  0  0  0
    0.8451    2.9114    0.3098 C   0  0  0  0  0  0  0  0  0  0  0  0
    1.8348    3.9001    0.4637 C   0  0  0  0  0  0  0  0  0  0  0  0
    1.5680    5.2233    0.1073 C   0  0  0  0  0  0  0  0  0  0  0  0
    0.3148    5.5725   -0.3973 C   0  0  0  0  0  0  0  0  0  0  0  0
   -0.6754    4.5987   -0.5505 C   0  0  0  0  0  0  0  0  0  0  0  0
    1.1156    1.5060    0.6815 C   0  0  0  0  0  0  0  0  0  0  0  0
    2.2097    1.2034    1.1309 O   0  0  0  0  0  0  0  0  0  0  0  0
    3.5934   -4.4235   -0.2737 H   0  0  0  0  0  0  0  0  0  0  0  0
    4.0462   -4.0400    1.4194 H   0  0  0  0  0  0  0  0  0  0  0  0
    4.3543   -2.8308    0.1128 H   0  0  0  0  0  0  0  0  0  0  0  0
    1.6856   -3.7990    1.0671 H   0  0  0  0  0  0  0  0  0  0  0  0
    1.6870   -3.3192   -1.3245 H   0  0  0  0  0  0  0  0  0  0  0  0
    2.4018   -1.7042   -0.9626 H   0  0  0  0  0  0  0  0  0  0  0  0
   -0.3471   -2.7481   -0.0058 H   0  0  0  0  0  0  0  0  0  0  0  0
   -0.0318   -1.5165   -1.2921 H   0  0  0  0  0  0  0  0  0  0  0  0
    0.3491   -2.1033    2.4280 H   0  0  0  0  0  0  0  0  0  0  0  0
    1.0840   -0.4901    2.6928 H   0  0  0  0  0  0  0  0  0  0  0  0
    2.7821   -2.3543    2.6867 H   0  0  0  0  0  0  0  0  0  0  0  0
    3.0887   -1.1630    1.3736 H   0  0  0  0  0  0  0  0  0  0  0  0
   -2.1735   -1.0629    0.5194 H   0  0  0  0  0  0  0  0  0  0  0  0
   -3.9941   -2.1553   -0.2549 H   0  0  0  0  0  0  0  0  0  0  0  0
   -3.9690   -2.2125   -2.0520 H   0  0  0  0  0  0  0  0  0  0  0  0
   -5.1232   -1.1193   -1.1923 H   0  0  0  0  0  0  0  0  0  0  0  0
   -2.3050    1.1707   -2.5609 H   0  0  0  0  0  0  0  0  0  0  0  0
   -4.1115    0.9952   -2.5151 H   0  0  0  0  0  0  0  0  0  0  0  0
   -3.0600   -0.1920   -3.3715 H   0  0  0  0  0  0  0  0  0  0  0  0
    2.8123    3.6467    0.8547 H   0  0  0  0  0  0  0  0  0  0  0  0
    2.3344    5.9786    0.2232 H   0  0  0  0  0  0  0  0  0  0  0  0
    0.1105    6.5990   -0.6721 H   0  0  0  0  0  0  0  0  0  0  0  0
   -1.6409    4.8870   -0.9461 H   0  0  0  0  0  0  0  0  0  0  0  0
  1 24  1  0  0  0  0
  1 25  1  0  0  0  0
  1 26  1  0  0  0  0
  2  1  1  0  0  0  0
  2 27  1  1  0  0  0
  3  2  1  0  0  0  0
  3 28  1  0  0  0  0
  3 29  1  0  0  0  0
  4  3  1  0  0  0  0
  4 30  1  0  0  0  0
  4 31  1  0  0  0  0
  5  4  1  0  0  0  0
  6  5  1  0  0  0  0
  6 32  1  0  0  0  0
  6 33  1  0  0  0  0
  7  6  1  0  0  0  0
  7  2  1  0  0  0  0
  7 34  1  0  0  0  0
  7 35  1  0  0  0  0
  8  5  1  0  0  0  0
  9  8  2  0  0  0  0
 10  9  1  0  0  0  0
 10 36  1  0  0  0  0
 11 10  2  0  0  0  0
 12 11  1  0  0  0  0
 12 37  1  0  0  0  0
 12 38  1  0  0  0  0
 12 39  1  0  0  0  0
 13 11  1  0  0  0  0
 13 40  1  0  0  0  0
 13 41  1  0  0  0  0
 13 42  1  0  0  0  0
 14  9  1  0  0  0  0
 15 14  2  0  0  0  0
 16 14  1  0  0  0  0
 17 16  2  0  0  0  0
 18 17  1  0  0  0  0
 18 43  1  0  0  0  0
 19 18  2  0  0  0  0
 19 44  1  0  0  0  0
 20 19  1  0  0  0  0
 20 45  1  0  0  0  0
 21 20  2  0  0  0  0
 21 16  1  0  0  0  0
 21 46  1  0  0  0  0
 22 17  1  0  0  0  0
 22  8  1  0  0  0  0
 23 22  2  0  0  0  0
M  CHG  1   2   1
M  END
>  <MOL Chiral Flag>
0

>  <energy>
199.42879872627358

$$$$
> 317_AKC_j.exppara.2017.02.015
>307.sdf
 OpenBabel10102214453D

117123  0  0  1  0  0  0  0  0999 V2000
   21.0496    8.7967   14.5080 C   0  0  0  0  0  0  0  0  0  0  0  0
   20.6693    7.3138   14.3397 C   0  0  0  0  0  0  0  0  0  0  0  0
   20.8694    6.5340   15.6495 C   0  0  1  0  0  0  0  0  0  0  0  0
   20.1784    7.1543   16.9419 C   0  0  0  0  0  0  0  0  0  0  0  0
   20.4862    8.7181   16.9727 C   0  0  2  0  0  0  0  0  0  0  0  0
   19.8507    9.4661   18.1858 C   0  0  0  0  0  0  0  0  0  0  0  0
   20.4919   10.8446   18.3788 C   0  0  0  0  0  0  0  0  0  0  0  0
   20.3434   11.7932   17.1571 C   0  0  2  0  0  0  0  0  0  0  0  0
   20.8285   11.0101   15.8296 C   0  0  1  0  0  0  0  0  0  0  0  0
   20.2311    9.5245   15.6273 C   0  0  1  0  0  0  0  0  0  0  0  0
   20.7698   11.8936   14.5647 C   0  0  0  0  0  0  0  0  0  0  0  0
   21.2936   13.0111   14.9542 C   0  0  0  0  0  0  0  0  0  0  0  0
   21.2550   13.8380   15.9750 C   0  0  0  0  0  0  0  0  0  0  0  0
   21.2469   13.1412   17.3396 C   0  0  1  0  0  0  0  0  0  0  0  0
   20.6961   14.1301   18.4305 C   0  0  0  0  0  0  0  0  0  0  0  0
   21.2722   15.5598   18.3175 C   0  0  0  0  0  0  0  0  0  0  0  0
   21.0173   16.1897   16.9086 C   0  0  2  0  0  0  0  0  0  0  0  0
   21.6933   15.3022   15.8200 C   0  0  1  0  0  0  0  0  0  0  0  0
   18.7299    9.5386   15.1762 C   0  0  0  0  0  0  0  0  0  0  0  0
   23.2384   15.4829   15.6529 C   0  0  0  0  0  0  0  0  0  0  0  0
   23.7720   16.9643   15.7558 C   0  0  2  0  0  0  0  0  0  0  0  0
   22.5516   17.9405   15.7116 C   0  0  0  0  0  0  0  0  0  0  0  0
   21.5508   17.6670   16.8551 C   0  0  0  0  0  0  0  0  0  0  0  0
   20.8529    6.4654   18.1642 C   0  0  0  0  0  0  0  0  0  0  0  0
   18.6598    6.8678   17.1068 C   0  0  0  0  0  0  0  0  0  0  0  0
   18.8432   12.2164   17.0252 C   0  0  0  0  0  0  0  0  0  0  0  0
   22.7175   12.8022   17.7480 C   0  0  0  0  0  0  0  0  0  0  0  0
   19.4881   16.2568   16.6075 C   0  0  0  0  0  0  0  0  0  0  0  0
   24.7861   17.2405   14.6492 C   0  0  0  0  0  0  0  0  0  0  0  0
   24.5295   17.1783   17.1016 C   0  0  0  0  0  0  0  0  0  0  0  0
   20.7260    5.1196   15.4839 O   0  0  0  0  0  0  0  0  0  0  0  0
   20.3516   11.5581   13.4940 O   0  0  0  0  0  0  0  0  0  0  0  0
   25.5964   16.3540   14.6395 O   0  0  0  0  0  0  0  0  0  0  0  0
   24.5773   18.2736   14.0772 O   0  0  0  0  0  0  0  0  0  0  0  0
   22.1335    8.8394   14.7582 H   0  0  0  0  0  0  0  0  0  0  0  0
   20.9274    9.2785   13.5199 H   0  0  0  0  0  0  0  0  0  0  0  0
   19.6437    7.2033   13.9707 H   0  0  0  0  0  0  0  0  0  0  0  0
   21.3270    6.8743   13.5572 H   0  0  0  0  0  0  0  0  0  0  0  0
   21.9610    6.6745   15.8236 H   0  0  0  0  0  0  0  0  0  0  0  0
   21.5898    8.7617   17.1287 H   0  0  0  0  0  0  0  0  0  0  0  0
   20.0466    8.9179   19.1264 H   0  0  0  0  0  0  0  0  0  0  0  0
   18.7524    9.5533   18.0897 H   0  0  0  0  0  0  0  0  0  0  0  0
   20.0864   11.3304   19.2925 H   0  0  0  0  0  0  0  0  0  0  0  0
   21.5567   10.6129   18.5642 H   0  0  0  0  0  0  0  0  0  0  0  0
   21.9075   10.8001   16.0000 H   0  0  0  0  0  0  0  0  0  0  0  0
   22.0068   13.2854   14.2179 H   0  0  0  0  0  0  0  0  0  0  0  0
   20.8598   13.7160   19.4487 H   0  0  0  0  0  0  0  0  0  0  0  0
   19.6168   14.2928   18.3539 H   0  0  0  0  0  0  0  0  0  0  0  0
   20.7954   16.1914   19.0993 H   0  0  0  0  0  0  0  0  0  0  0  0
   22.3520   15.5372   18.5405 H   0  0  0  0  0  0  0  0  0  0  0  0
   21.2807   15.6761   14.8537 H   0  0  0  0  0  0  0  0  0  0  0  0
   23.8594   14.8562   16.3057 H   0  0  0  0  0  0  0  0  0  0  0  0
   23.4445   15.0755   14.6382 H   0  0  0  0  0  0  0  0  0  0  0  0
   22.8895   18.9973   15.7957 H   0  0  0  0  0  0  0  0  0  0  0  0
   22.0283   17.8380   14.7355 H   0  0  0  0  0  0  0  0  0  0  0  0
   20.7201   18.4018   16.7590 H   0  0  0  0  0  0  0  0  0  0  0  0
   22.0106   17.9444   17.8244 H   0  0  0  0  0  0  0  0  0  0  0  0
   20.4362    6.8011   19.1338 H   0  0  0  0  0  0  0  0  0  0  0  0
   21.9480    6.6543   18.1793 H   0  0  0  0  0  0  0  0  0  0  0  0
   20.7038    5.3643   18.1231 H   0  0  0  0  0  0  0  0  0  0  0  0
   18.4730    5.7869   17.2751 H   0  0  0  0  0  0  0  0  0  0  0  0
   18.2603    7.3427   18.0250 H   0  0  0  0  0  0  0  0  0  0  0  0
   18.0361    7.1970   16.2665 H   0  0  0  0  0  0  0  0  0  0  0  0
   18.4532   12.6807   17.9463 H   0  0  0  0  0  0  0  0  0  0  0  0
   18.1347   11.4076   16.9318 H   0  0  0  0  0  0  0  0  0  0  0  0
   18.6823   12.8993   16.1664 H   0  0  0  0  0  0  0  0  0  0  0  0
   22.7681   12.3104   18.7375 H   0  0  0  0  0  0  0  0  0  0  0  0
   23.3364   13.6926   17.9123 H   0  0  0  0  0  0  0  0  0  0  0  0
   23.2403   12.1730   17.0025 H   0  0  0  0  0  0  0  0  0  0  0  0
   24.8850   18.2285   17.1839 H   0  0  0  0  0  0  0  0  0  0  0  0
   23.9215   16.9597   17.9938 H   0  0  0  0  0  0  0  0  0  0  0  0
   25.4150   16.5112   17.1739 H   0  0  0  0  0  0  0  0  0  0  0  0
   18.5446   10.2611   14.3610 H   0  0  0  0  0  0  0  0  0  0  0  0
   18.3713    8.5947   14.7588 H   0  0  0  0  0  0  0  0  0  0  0  0
   18.0061    9.6902   15.9779 H   0  0  0  0  0  0  0  0  0  0  0  0
   19.3077   16.7530   15.6288 H   0  0  0  0  0  0  0  0  0  0  0  0
   18.9596   16.8403   17.3915 H   0  0  0  0  0  0  0  0  0  0  0  0
   19.0089   15.2624   16.5320 H   0  0  0  0  0  0  0  0  0  0  0  0
   19.5055    4.6756   14.8964 C   0  0  2  0  0  0  0  0  0  0  0  0
   19.3072    3.2063   15.3073 C   0  0  1  0  0  0  0  0  0  0  0  0
   17.9102    2.7625   14.8054 C   0  0  2  0  0  0  0  0  0  0  0  0
   17.8256    2.9986   13.2794 C   0  0  1  0  0  0  0  0  0  0  0  0
   18.2831    4.4436   12.8890 C   0  0  1  0  0  0  0  0  0  0  0  0
   17.2770    5.5559   13.0767 C   0  0  0  0  0  0  0  0  0  0  0  0
   16.9101    3.4877   15.4742 O   0  0  0  0  0  0  0  0  0  0  0  0
   18.6764    2.0852   12.6323 O   0  0  0  0  0  0  0  0  0  0  0  0
   19.5531    4.7591   13.4736 O   0  0  0  0  0  0  0  0  0  0  0  0
   16.3022    5.2510   13.6979 O   0  0  0  0  0  0  0  0  0  0  0  0
   17.7473    6.5012   12.5058 O   0  0  0  0  0  0  0  0  0  0  0  0
   18.6617    5.2664   15.2612 H   0  0  0  0  0  0  0  0  0  0  0  0
   17.7190    1.6840   15.0013 H   0  0  0  0  0  0  0  0  0  0  0  0
   16.7900    2.8223   12.9034 H   0  0  0  0  0  0  0  0  0  0  0  0
   18.4197    4.3682   11.7841 H   0  0  0  0  0  0  0  0  0  0  0  0
   20.5277    1.1656   15.1971 C   0  0  1  0  0  0  0  0  0  0  0  0
   18.2319    1.1973   12.6719 H   0  0  0  0  0  0  0  0  0  0  0  0
   16.9132    3.1850   16.4204 H   0  0  0  0  0  0  0  0  0  0  0  0
   21.7444    1.1558   16.1642 C   0  0  1  0  0  0  0  0  0  0  0  0
   20.3567    2.4759   14.6934 O   0  0  0  0  0  0  0  0  0  0  0  0
   20.7352    0.3130   14.0735 O   0  0  0  0  0  0  0  0  0  0  0  0
   21.9751   -0.2904   16.6489 C   0  0  2  0  0  0  0  0  0  0  0  0
   21.5159    1.8092   17.0341 H   0  0  0  0  0  0  0  0  0  0  0  0
   22.9310    1.6523   15.5796 O   0  0  0  0  0  0  0  0  0  0  0  0
   22.1570   -1.2026   15.4200 C   0  0  1  0  0  0  0  0  0  0  0  0
   20.8874   -0.7401   17.4143 O   0  0  0  0  0  0  0  0  0  0  0  0
   20.9717   -1.0489   14.4161 C   0  0  1  0  0  0  0  0  0  0  0  0
   22.2197   -2.2669   15.7345 H   0  0  0  0  0  0  0  0  0  0  0  0
   23.3953   -0.9139   14.8027 O   0  0  0  0  0  0  0  0  0  0  0  0
   19.6930   -1.7860   14.7788 C   0  0  0  0  0  0  0  0  0  0  0  0
   21.3160   -1.5562   13.4876 H   0  0  0  0  0  0  0  0  0  0  0  0
   19.0318   -1.4778   15.7553 O   0  0  0  0  0  0  0  0  0  0  0  0
   19.2720   -2.8001   13.9978 O   0  0  0  0  0  0  0  0  0  0  0  0
   23.2591   -0.3096   14.0270 H   0  0  0  0  0  0  0  0  0  0  0  0
   22.7456    2.0322   14.6831 H   0  0  0  0  0  0  0  0  0  0  0  0
   19.3610    3.1288   16.4189 H   0  0  0  0  0  0  0  0  0  0  0  0
   19.6277    0.8280   15.7519 H   0  0  0  0  0  0  0  0  0  0  0  0
   22.8863   -0.3513   17.2867 H   0  0  0  0  0  0  0  0  0  0  0  0
   20.7920   -0.1235   18.1858 H   0  0  0  0  0  0  0  0  0  0  0  0
  1  2  1  0  0  0  0
  1 10  1  0  0  0  0
  2  3  1  0  0  0  0
  3  4  1  0  0  0  0
  3 31  1  0  0  0  0
  3 39  1  1  0  0  0
  4  5  1  0  0  0  0
  4 24  1  0  0  0  0
  4 25  1  0  0  0  0
  5  6  1  0  0  0  0
  5 10  1  0  0  0  0
  5 40  1  1  0  0  0
  6  7  1  0  0  0  0
  7  8  1  0  0  0  0
  8  9  1  0  0  0  0
  8 14  1  0  0  0  0
  8 26  1  6  0  0  0
  9 10  1  0  0  0  0
  9 11  1  0  0  0  0
  9 45  1  1  0  0  0
 10 19  1  6  0  0  0
 11 12  2  0  0  0  0
 11 32  2  0  0  0  0
 12 13  2  0  0  0  0
 13 14  1  0  0  0  0
 13 18  1  0  0  0  0
 14 15  1  0  0  0  0
 14 27  1  1  0  0  0
 15 16  1  0  0  0  0
 16 17  1  0  0  0  0
 17 18  1  0  0  0  0
 17 23  1  0  0  0  0
 17 28  1  6  0  0  0
 18 20  1  0  0  0  0
 18 51  1  6  0  0  0
 20 21  1  0  0  0  0
 21 22  1  0  0  0  0
 21 29  1  6  0  0  0
 21 30  1  0  0  0  0
 22 23  1  0  0  0  0
 29 33  2  0  0  0  0
 29 34  2  0  0  0  0
 31 79  1  0  0  0  0
 35  1  1  0  0  0  0
 36  1  1  0  0  0  0
 37  2  1  0  0  0  0
 38  2  1  0  0  0  0
 41  6  1  0  0  0  0
 42  6  1  0  0  0  0
 43  7  1  0  0  0  0
 44  7  1  0  0  0  0
 46 12  1  0  0  0  0
 47 15  1  0  0  0  0
 48 15  1  0  0  0  0
 49 16  1  0  0  0  0
 50 16  1  0  0  0  0
 52 20  1  0  0  0  0
 53 20  1  0  0  0  0
 54 22  1  0  0  0  0
 55 22  1  0  0  0  0
 56 23  1  0  0  0  0
 57 23  1  0  0  0  0
 58 24  1  0  0  0  0
 59 24  1  0  0  0  0
 60 24  1  0  0  0  0
 61 25  1  0  0  0  0
 62 25  1  0  0  0  0
 63 25  1  0  0  0  0
 64 26  1  0  0  0  0
 65 26  1  0  0  0  0
 66 26  1  0  0  0  0
 67 27  1  0  0  0  0
 68 27  1  0  0  0  0
 69 27  1  0  0  0  0
 70 30  1  0  0  0  0
 71 30  1  0  0  0  0
 72 30  1  0  0  0  0
 73 19  1  0  0  0  0
 74 19  1  0  0  0  0
 75 19  1  0  0  0  0
 76 28  1  0  0  0  0
 77 28  1  0  0  0  0
 78 28  1  0  0  0  0
 79 80  1  0  0  0  0
 79 87  1  0  0  0  0
 79 90  1  1  0  0  0
 80 81  1  0  0  0  0
 80114  1  1  0  0  0
 81 82  1  0  0  0  0
 81 85  1  0  0  0  0
 81 91  1  1  0  0  0
 82 83  1  0  0  0  0
 82 86  1  0  0  0  0
 82 92  1  6  0  0  0
 83 84  1  0  0  0  0
 83 87  1  0  0  0  0
 83 93  1  6  0  0  0
 84 88  2  0  0  0  0
 84 89  2  0  0  0  0
 94 97  1  0  0  0  0
 94 98  1  0  0  0  0
 94 99  1  0  0  0  0
 94115  1  1  0  0  0
 95 86  1  0  0  0  0
 96 85  1  0  0  0  0
 97100  1  0  0  0  0
 97101  1  1  0  0  0
 97102  1  0  0  0  0
 98 80  1  0  0  0  0
 99105  1  0  0  0  0
100103  1  0  0  0  0
100104  1  0  0  0  0
100116  1  1  0  0  0
102113  1  0  0  0  0
103105  1  0  0  0  0
103106  1  1  0  0  0
103107  1  0  0  0  0
104117  1  0  0  0  0
105108  1  0  0  0  0
105109  1  6  0  0  0
107112  1  0  0  0  0
108110  2  0  0  0  0
108111  1  0  0  0  0
M  END
$$$$
> 318_AKC_S0031182016002389
>308.sdf
 OpenBabel10062212313D

 48 49  0  0  0  0  0  0  0  0999 V2000
   -0.1910   -5.4701    1.7410 C   0  0  0  0  0  0  0  0  0  0  0  0
    0.3189   -4.5353    0.8623 O   0  0  0  0  0  0  0  0  0  0  0  0
   -0.3315   -3.4274    0.4052 C   0  0  0  0  0  0  0  0  0  0  0  0
   -1.6353   -3.1303    0.8333 C   0  0  0  0  0  0  0  0  0  0  0  0
   -2.3026   -1.9864    0.3938 C   0  0  0  0  0  0  0  0  0  0  0  0
   -3.5561   -1.7546    0.8373 O   0  0  0  0  0  0  0  0  0  0  0  0
   -1.6719   -1.1047   -0.5171 C   0  0  0  0  0  0  0  0  0  0  0  0
   -2.3386    0.1560   -1.0761 C   0  0  0  0  0  0  0  0  0  0  0  0
   -3.6954    0.5259   -0.5141 C   0  0  0  0  0  0  0  0  0  0  0  0
   -4.8317    0.6116   -1.2463 C   0  0  0  0  0  0  0  0  0  0  0  0
   -4.8549    0.3324   -2.7281 C   0  0  0  0  0  0  0  0  0  0  0  0
   -6.1256    0.9929   -0.5744 C   0  0  0  0  0  0  0  0  0  0  0  0
   -0.3641   -1.3997   -0.9714 C   0  0  0  0  0  0  0  0  0  0  0  0
    0.1674   -0.5799   -1.9096 O   0  0  0  0  0  0  0  0  0  0  0  0
    0.3322   -2.5540   -0.4929 C   0  0  0  0  0  0  0  0  0  0  0  0
    1.7508   -2.8771   -0.8939 C   0  0  0  0  0  0  0  0  0  0  0  0
    2.1193   -4.0437   -0.8913 O   0  0  0  0  0  0  0  0  0  0  0  0
    2.7615   -1.8148   -1.1704 C   0  0  0  0  0  0  0  0  0  0  0  0
    4.0081   -2.1173   -1.5896 C   0  0  0  0  0  0  0  0  0  0  0  0
    5.0745   -1.1101   -1.8697 C   0  0  0  0  0  0  0  0  0  0  0  0
    6.3292   -1.5754   -2.3026 C   0  0  0  0  0  0  0  0  0  0  0  0
    7.3651   -0.6797   -2.5815 C   0  0  0  0  0  0  0  0  0  0  0  0
    7.1665    0.6946   -2.4332 C   0  0  0  0  0  0  0  0  0  0  0  0
    8.1749    1.5473   -2.7063 O   0  0  0  0  0  0  0  0  0  0  0  0
    5.9221    1.1730   -2.0028 C   0  0  0  0  0  0  0  0  0  0  0  0
    4.8813    0.2819   -1.7221 C   0  0  0  0  0  0  0  0  0  0  0  0
   -1.0931   -5.9532    1.3087 H   0  0  0  0  0  0  0  0  0  0  0  0
   -0.4367   -4.9920    2.7131 H   0  0  0  0  0  0  0  0  0  0  0  0
    0.5747   -6.2526    1.9190 H   0  0  0  0  0  0  0  0  0  0  0  0
   -2.1448   -3.7883    1.5241 H   0  0  0  0  0  0  0  0  0  0  0  0
   -4.0047   -2.3502    1.4548 H   0  0  0  0  0  0  0  0  0  0  0  0
   -1.6760    1.0211   -0.8590 H   0  0  0  0  0  0  0  0  0  0  0  0
   -2.3746    0.0383   -2.1772 H   0  0  0  0  0  0  0  0  0  0  0  0
   -3.7403    0.7411    0.5506 H   0  0  0  0  0  0  0  0  0  0  0  0
   -4.1901    1.0441   -3.2617 H   0  0  0  0  0  0  0  0  0  0  0  0
   -5.8807    0.4517   -3.1370 H   0  0  0  0  0  0  0  0  0  0  0  0
   -4.5257   -0.7101   -2.9238 H   0  0  0  0  0  0  0  0  0  0  0  0
   -6.5234    1.9201   -1.0377 H   0  0  0  0  0  0  0  0  0  0  0  0
   -6.0002    1.1746    0.5146 H   0  0  0  0  0  0  0  0  0  0  0  0
   -6.8654    0.1759   -0.7068 H   0  0  0  0  0  0  0  0  0  0  0  0
    0.9163   -0.8079   -2.4708 H   0  0  0  0  0  0  0  0  0  0  0  0
    2.4823   -0.7877   -0.9987 H   0  0  0  0  0  0  0  0  0  0  0  0
    4.2642   -3.1628   -1.7405 H   0  0  0  0  0  0  0  0  0  0  0  0
    6.5061   -2.6371   -2.4251 H   0  0  0  0  0  0  0  0  0  0  0  0
    8.3246   -1.0556   -2.9140 H   0  0  0  0  0  0  0  0  0  0  0  0
    8.0705    2.5052   -2.6144 H   0  0  0  0  0  0  0  0  0  0  0  0
    5.7599    2.2372   -1.8854 H   0  0  0  0  0  0  0  0  0  0  0  0
    3.9410    0.6946   -1.3944 H   0  0  0  0  0  0  0  0  0  0  0  0
  1 27  1  0  0  0  0
  1 28  1  0  0  0  0
  1 29  1  0  0  0  0
  2  1  1  0  0  0  0
  3  2  1  0  0  0  0
  4  3  2  0  0  0  0
  4 30  1  0  0  0  0
  5  4  1  0  0  0  0
  6  5  1  0  0  0  0
  6 31  1  0  0  0  0
  7  5  2  0  0  0  0
  8  7  1  0  0  0  0
  8 32  1  0  0  0  0
  8 33  1  0  0  0  0
  9  8  1  0  0  0  0
  9 34  1  0  0  0  0
 10  9  2  0  0  0  0
 11 10  1  0  0  0  0
 11 35  1  0  0  0  0
 11 36  1  0  0  0  0
 11 37  1  0  0  0  0
 12 10  1  0  0  0  0
 12 38  1  0  0  0  0
 12 39  1  0  0  0  0
 12 40  1  0  0  0  0
 13  7  1  0  0  0  0
 14 13  1  0  0  0  0
 14 41  1  0  0  0  0
 15 13  2  0  0  0  0
 15  3  1  0  0  0  0
 16 15  1  0  0  0  0
 17 16  2  0  0  0  0
 18 16  1  0  0  0  0
 18 42  1  0  0  0  0
 19 18  2  0  0  0  0
 19 43  1  0  0  0  0
 20 19  1  0  0  0  0
 21 20  2  0  0  0  0
 21 44  1  0  0  0  0
 22 21  1  0  0  0  0
 22 45  1  0  0  0  0
 23 22  2  0  0  0  0
 24 23  1  0  0  0  0
 24 46  1  0  0  0  0
 25 23  1  0  0  0  0
 25 47  1  0  0  0  0
 26 25  2  0  0  0  0
 26 20  1  0  0  0  0
 26 48  1  0  0  0  0
M  END
>  <MOL Chiral Flag>
0

>  <energy>
72.808012946522751

$$$$
> 319_AKC_j.bcp.2016.12.012
>309.sdf
 OpenBabel10062212313D

 40 43  0  0  0  0  0  0  0  0999 V2000
    4.6149   -2.6958   -1.1025 C   0  0  0  0  0  0  0  0  0  0  0  0
    3.4760   -2.2586   -0.4575 O   0  0  0  0  0  0  0  0  0  0  0  0
    2.7367   -1.2089   -0.8989 C   0  0  0  0  0  0  0  0  0  0  0  0
    3.0798   -0.5819   -1.8932 O   0  0  0  0  0  0  0  0  0  0  0  0
    1.4935   -0.7974   -0.1496 C   0  0  2  0  0  0  0  0  0  0  0  0
    0.2511   -0.9438   -1.0780 C   0  0  0  0  0  0  0  0  0  0  0  0
   -0.8857   -0.1496   -0.5182 C   0  0  0  0  0  0  0  0  0  0  0  0
   -0.6770    1.1059    0.0010 C   0  0  0  0  0  0  0  0  0  0  0  0
   -1.8366    1.6436    0.4409 N   0  0  0  0  0  0  0  0  0  0  0  0
   -2.7861    0.7197    0.1858 C   0  0  0  0  0  0  0  0  0  0  0  0
   -2.2336   -0.4000   -0.3951 C   0  0  0  0  0  0  0  0  0  0  0  0
   -3.0118   -1.4981   -0.7526 C   0  0  0  0  0  0  0  0  0  0  0  0
   -4.3968   -1.4326   -0.5041 C   0  0  0  0  0  0  0  0  0  0  0  0
   -4.9643   -0.2805    0.0913 C   0  0  0  0  0  0  0  0  0  0  0  0
   -4.1506    0.8126    0.4451 C   0  0  0  0  0  0  0  0  0  0  0  0
    0.7117    1.6677    0.0984 C   0  0  1  0  0  0  0  0  0  0  0  0
    1.1109    2.3873   -1.2025 C   0  0  0  0  0  0  0  0  0  0  0  0
    0.9323    2.5740    1.3317 C   0  0  0  0  0  0  0  0  0  0  0  0
    2.4144    2.3671    1.7108 C   0  0  0  0  0  0  0  0  0  0  0  0
    2.5750    0.9566    1.2627 C   0  0  0  0  0  0  0  0  0  0  0  0
    3.4861    0.2279    1.6240 O   0  0  0  0  0  0  0  0  0  0  0  0
    1.6330    0.5772    0.3768 N   0  0  0  0  0  0  0  0  0  0  0  0
    5.3677   -1.8792   -1.1509 H   0  0  0  0  0  0  0  0  0  0  0  0
    5.0496   -3.5481   -0.5420 H   0  0  0  0  0  0  0  0  0  0  0  0
    4.3651   -3.0335   -2.1315 H   0  0  0  0  0  0  0  0  0  0  0  0
    1.3397   -1.4685    0.7248 H   0  0  0  0  0  0  0  0  0  0  0  0
   -0.0118   -1.9992   -1.3039 H   0  0  0  0  0  0  0  0  0  0  0  0
    0.4898   -0.4564   -2.0448 H   0  0  0  0  0  0  0  0  0  0  0  0
   -1.9696    2.5773    0.8896 H   0  0  0  0  0  0  0  0  0  0  0  0
   -2.5701   -2.3733   -1.2107 H   0  0  0  0  0  0  0  0  0  0  0  0
   -5.0316   -2.2669   -0.7724 H   0  0  0  0  0  0  0  0  0  0  0  0
   -6.0301   -0.2387    0.2749 H   0  0  0  0  0  0  0  0  0  0  0  0
   -4.5744    1.6989    0.8995 H   0  0  0  0  0  0  0  0  0  0  0  0
    1.0407    1.7151   -2.0798 H   0  0  0  0  0  0  0  0  0  0  0  0
    0.4377    3.2537   -1.3758 H   0  0  0  0  0  0  0  0  0  0  0  0
    2.1552    2.7598   -1.1451 H   0  0  0  0  0  0  0  0  0  0  0  0
    0.3640    2.1007    2.1681 H   0  0  0  0  0  0  0  0  0  0  0  0
    0.5792    3.6243    1.2569 H   0  0  0  0  0  0  0  0  0  0  0  0
    3.1068    3.0003    1.1167 H   0  0  0  0  0  0  0  0  0  0  0  0
    2.5518    2.5296    2.8016 H   0  0  0  0  0  0  0  0  0  0  0  0
  1 23  1  0  0  0  0
  1 24  1  0  0  0  0
  1 25  1  0  0  0  0
  2  1  1  0  0  0  0
  3  2  1  0  0  0  0
  4  3  2  0  0  0  0
  5  3  1  0  0  0  0
  5 26  1  1  0  0  0
  6  5  1  0  0  0  0
  6 27  1  0  0  0  0
  6 28  1  0  0  0  0
  7  6  1  0  0  0  0
  8  7  2  0  0  0  0
  9  8  1  0  0  0  0
  9 29  1  0  0  0  0
 10  9  1  0  0  0  0
 11 10  2  0  0  0  0
 11  7  1  0  0  0  0
 12 11  1  0  0  0  0
 12 30  1  0  0  0  0
 13 12  2  0  0  0  0
 13 31  1  0  0  0  0
 14 13  1  0  0  0  0
 14 32  1  0  0  0  0
 15 14  2  0  0  0  0
 15 10  1  0  0  0  0
 15 33  1  0  0  0  0
 16  8  1  0  0  0  0
 16 17  1  6  0  0  0
 17 34  1  0  0  0  0
 17 35  1  0  0  0  0
 17 36  1  0  0  0  0
 18 16  1  0  0  0  0
 18 37  1  0  0  0  0
 18 38  1  0  0  0  0
 19 18  1  0  0  0  0
 19 39  1  0  0  0  0
 19 40  1  0  0  0  0
 20 19  1  0  0  0  0
 21 20  2  0  0  0  0
 22 20  1  0  0  0  0
 22  5  1  0  0  0  0
 22 16  1  0  0  0  0
M  END
>  <MOL Chiral Flag>
0

>  <energy>
38.438329116732

$$$$
> 320_AKC_2210315507666161206123513
>310.sdf
 OpenBabel10062212323D

 50 53  0  0  0  0  0  0  0  0999 V2000
    4.1757    5.1334    0.1553 F   0  0  0  0  0  0  0  0  0  0  0  0
    3.1561    4.9861    1.0783 C   0  0  0  0  0  0  0  0  0  0  0  0
    2.3465    6.1068    1.0367 F   0  0  0  0  0  0  0  0  0  0  0  0
    3.7167    4.8962    2.3410 F   0  0  0  0  0  0  0  0  0  0  0  0
    2.3396    3.7630    0.7351 C   0  0  0  0  0  0  0  0  0  0  0  0
    1.6967    3.6913   -0.5061 C   0  0  0  0  0  0  0  0  0  0  0  0
    0.9324    2.5710   -0.8528 C   0  0  0  0  0  0  0  0  0  0  0  0
    0.7982    1.4788    0.0461 C   0  0  0  0  0  0  0  0  0  0  0  0
    1.4503    1.5682    1.3011 C   0  0  0  0  0  0  0  0  0  0  0  0
    2.2081    2.6954    1.6350 C   0  0  0  0  0  0  0  0  0  0  0  0
    0.0117    0.3473   -0.3539 C   0  0  0  0  0  0  0  0  0  0  0  0
   -0.1114   -0.8139    0.4953 N   0  0  0  0  0  0  0  0  0  0  0  0
   -0.9488   -1.9841    0.2305 C   0  0  0  0  0  0  0  0  0  0  0  0
   -1.7615   -2.4479    1.4672 C   0  0  0  0  0  0  0  0  0  0  0  0
   -0.8474   -2.6908    2.6759 C   0  0  0  0  0  0  0  0  0  0  0  0
   -1.4613   -3.4276    3.7785 N   0  0  0  0  0  0  0  0  0  0  0  0
   -1.6890   -2.8030    5.0609 C   0  0  2  0  0  0  0  0  0  0  0  0
   -1.9376   -4.1326    6.3033 S   0  0  0  0  0  0  0  0  0  0  0  0
   -1.9293   -5.4456    5.0255 C   0  0  0  0  0  0  0  0  0  0  0  0
   -1.6108   -4.7691    3.7424 C   0  0  0  0  0  0  0  0  0  0  0  0
   -1.4164   -5.4117    2.7202 O   0  0  0  0  0  0  0  0  0  0  0  0
   -2.8660   -1.8112    5.0233 C   0  0  0  0  0  0  0  0  0  0  0  0
   -2.6104   -0.4120    5.0646 C   0  0  0  0  0  0  0  0  0  0  0  0
   -0.9770    0.2501    5.0957 Cl  0  0  0  0  0  0  0  0  0  0  0  0
   -3.6708    0.5024    5.0568 C   0  0  0  0  0  0  0  0  0  0  0  0
   -4.9885    0.0616    5.0285 C   0  0  0  0  0  0  0  0  0  0  0  0
   -5.2658   -1.2972    4.9824 C   0  0  0  0  0  0  0  0  0  0  0  0
   -4.2319   -2.2388    4.9620 C   0  0  0  0  0  0  0  0  0  0  0  0
   -4.7368   -3.9208    4.8835 Cl  0  0  0  0  0  0  0  0  0  0  0  0
   -0.5953    0.3842   -1.6301 C   0  0  0  0  0  0  0  0  0  0  0  0
   -0.4260    1.4880   -2.4624 C   0  0  0  0  0  0  0  0  0  0  0  0
    0.3235    2.5413   -2.0641 N   0  0  0  0  0  0  0  0  0  0  0  0
    1.7908    4.5123   -1.2082 H   0  0  0  0  0  0  0  0  0  0  0  0
    1.3882    0.7921    2.0434 H   0  0  0  0  0  0  0  0  0  0  0  0
    2.6921    2.7293    2.6028 H   0  0  0  0  0  0  0  0  0  0  0  0
    0.5394   -0.9056    1.2791 H   0  0  0  0  0  0  0  0  0  0  0  0
   -1.6628   -1.8385   -0.5959 H   0  0  0  0  0  0  0  0  0  0  0  0
   -0.2730   -2.8204   -0.0517 H   0  0  0  0  0  0  0  0  0  0  0  0
   -2.5400   -1.7031    1.7415 H   0  0  0  0  0  0  0  0  0  0  0  0
   -2.2683   -3.3942    1.1822 H   0  0  0  0  0  0  0  0  0  0  0  0
   -0.4999   -1.7022    3.0381 H   0  0  0  0  0  0  0  0  0  0  0  0
    0.0607   -3.2527    2.3612 H   0  0  0  0  0  0  0  0  0  0  0  0
   -0.7352   -2.3177    5.3471 H   0  0  0  0  0  0  0  0  0  0  0  0
   -2.9034   -5.9708    4.9575 H   0  0  0  0  0  0  0  0  0  0  0  0
   -1.1139   -6.1629    5.2552 H   0  0  0  0  0  0  0  0  0  0  0  0
   -3.4704    1.5658    5.0772 H   0  0  0  0  0  0  0  0  0  0  0  0
   -5.8014    0.7767    5.0373 H   0  0  0  0  0  0  0  0  0  0  0  0
   -6.2982   -1.6265    4.9623 H   0  0  0  0  0  0  0  0  0  0  0  0
   -1.1808   -0.4304   -2.0159 H   0  0  0  0  0  0  0  0  0  0  0  0
   -0.8861    1.5006   -3.4416 H   0  0  0  0  0  0  0  0  0  0  0  0
  2  1  1  0  0  0  0
  3  2  1  0  0  0  0
  4  2  1  0  0  0  0
  5  2  1  0  0  0  0
  6  5  2  0  0  0  0
  6 33  1  0  0  0  0
  7  6  1  0  0  0  0
  8  7  2  0  0  0  0
  9  8  1  0  0  0  0
  9 34  1  0  0  0  0
 10  9  2  0  0  0  0
 10  5  1  0  0  0  0
 10 35  1  0  0  0  0
 11  8  1  0  0  0  0
 12 11  1  0  0  0  0
 12 36  1  0  0  0  0
 13 12  1  0  0  0  0
 13 37  1  0  0  0  0
 13 38  1  0  0  0  0
 14 13  1  0  0  0  0
 14 39  1  0  0  0  0
 14 40  1  0  0  0  0
 15 14  1  0  0  0  0
 15 41  1  0  0  0  0
 15 42  1  0  0  0  0
 16 15  1  0  0  0  0
 17 16  1  0  0  0  0
 17 43  1  1  0  0  0
 18 17  1  0  0  0  0
 19 18  1  0  0  0  0
 19 44  1  0  0  0  0
 19 45  1  0  0  0  0
 20 19  1  0  0  0  0
 20 16  1  0  0  0  0
 21 20  2  0  0  0  0
 22 17  1  0  0  0  0
 23 22  2  0  0  0  0
 24 23  1  0  0  0  0
 25 23  1  0  0  0  0
 25 46  1  0  0  0  0
 26 25  2  0  0  0  0
 26 47  1  0  0  0  0
 27 26  1  0  0  0  0
 27 48  1  0  0  0  0
 28 27  2  0  0  0  0
 28 22  1  0  0  0  0
 29 28  1  0  0  0  0
 30 11  2  0  0  0  0
 30 49  1  0  0  0  0
 31 30  1  0  0  0  0
 31 50  1  0  0  0  0
 32 31  2  0  0  0  0
 32  7  1  0  0  0  0
M  END
>  <MOL Chiral Flag>
0

>  <energy>
48.138744673892845

$$$$
> 321_AKC_2210315507666161206123513
>310_2.sdf
 OpenBabel10102214243D

 50 53  0  0  0  0  0  0  0  0999 V2000
    4.0751    5.2277    0.2064 F   0  0  0  0  0  0  0  0  0  0  0  0
    3.0854    4.9834    1.1414 C   0  0  0  0  0  0  0  0  0  0  0  0
    2.2557    6.0873    1.2172 F   0  0  0  0  0  0  0  0  0  0  0  0
    3.6843    4.7979    2.3757 F   0  0  0  0  0  0  0  0  0  0  0  0
    2.2825    3.7773    0.7173 C   0  0  0  0  0  0  0  0  0  0  0  0
    1.6017    3.8004   -0.5054 C   0  0  0  0  0  0  0  0  0  0  0  0
    0.8532    2.6962   -0.9281 C   0  0  0  0  0  0  0  0  0  0  0  0
    0.7766    1.5245   -0.1283 C   0  0  0  0  0  0  0  0  0  0  0  0
    1.4625    1.5188    1.1106 C   0  0  0  0  0  0  0  0  0  0  0  0
    2.2025    2.6317    1.5228 C   0  0  0  0  0  0  0  0  0  0  0  0
    0.0100    0.4120   -0.6057 C   0  0  0  0  0  0  0  0  0  0  0  0
   -0.0510   -0.8257    0.1342 N   0  0  0  0  0  0  0  0  0  0  0  0
   -0.9030   -1.9666   -0.1955 C   0  0  0  0  0  0  0  0  0  0  0  0
   -1.6395   -2.5475    1.0365 C   0  0  0  0  0  0  0  0  0  0  0  0
   -0.6576   -3.0049    2.1204 C   0  0  0  0  0  0  0  0  0  0  0  0
   -1.2587   -3.8442    3.1636 N   0  0  0  0  0  0  0  0  0  0  0  0
   -2.4386   -3.5504    3.9717 C   0  0  1  0  0  0  0  0  0  0  0  0
   -2.3273   -4.5420    5.4886 S   0  0  0  0  0  0  0  0  0  0  0  0
   -1.4083   -5.8205    4.5572 C   0  0  0  0  0  0  0  0  0  0  0  0
   -0.8013   -5.1005    3.4024 C   0  0  0  0  0  0  0  0  0  0  0  0
    0.0699   -5.6234    2.7191 O   0  0  0  0  0  0  0  0  0  0  0  0
   -3.0958   -2.1779    4.1959 C   0  0  0  0  0  0  0  0  0  0  0  0
   -2.3802   -0.9921    4.5259 C   0  0  0  0  0  0  0  0  0  0  0  0
   -0.6364   -0.9431    4.7081 Cl  0  0  0  0  0  0  0  0  0  0  0  0
   -3.0767    0.2032    4.7745 C   0  0  0  0  0  0  0  0  0  0  0  0
   -4.4681    0.2385    4.7506 C   0  0  0  0  0  0  0  0  0  0  0  0
   -5.1863   -0.9156    4.4825 C   0  0  0  0  0  0  0  0  0  0  0  0
   -4.5284   -2.1130    4.2047 C   0  0  0  0  0  0  0  0  0  0  0  0
   -5.5629   -3.5251    3.9436 Cl  0  0  0  0  0  0  0  0  0  0  0  0
   -0.6403    0.5455   -1.8543 C   0  0  0  0  0  0  0  0  0  0  0  0
   -0.5302    1.7245   -2.5866 C   0  0  0  0  0  0  0  0  0  0  0  0
    0.2049    2.7588   -2.1176 N   0  0  0  0  0  0  0  0  0  0  0  0
    1.6542    4.6825   -1.1338 H   0  0  0  0  0  0  0  0  0  0  0  0
    1.4393    0.6769    1.7806 H   0  0  0  0  0  0  0  0  0  0  0  0
    2.7147    2.5923    2.4756 H   0  0  0  0  0  0  0  0  0  0  0  0
    0.6437   -0.9842    0.8691 H   0  0  0  0  0  0  0  0  0  0  0  0
   -1.6739   -1.7292   -0.9455 H   0  0  0  0  0  0  0  0  0  0  0  0
   -0.2559   -2.7679   -0.6149 H   0  0  0  0  0  0  0  0  0  0  0  0
   -2.3505   -1.8070    1.4589 H   0  0  0  0  0  0  0  0  0  0  0  0
   -2.2122   -3.4324    0.6845 H   0  0  0  0  0  0  0  0  0  0  0  0
   -0.1571   -2.1353    2.5590 H   0  0  0  0  0  0  0  0  0  0  0  0
    0.1554   -3.5686    1.6111 H   0  0  0  0  0  0  0  0  0  0  0  0
   -3.2100   -4.1368    3.4438 H   0  0  0  0  0  0  0  0  0  0  0  0
   -2.0680   -6.6456    4.2117 H   0  0  0  0  0  0  0  0  0  0  0  0
   -0.5966   -6.1984    5.2109 H   0  0  0  0  0  0  0  0  0  0  0  0
   -2.5365    1.1102    5.0143 H   0  0  0  0  0  0  0  0  0  0  0  0
   -4.9962    1.1588    4.9674 H   0  0  0  0  0  0  0  0  0  0  0  0
   -6.2696   -0.8883    4.5044 H   0  0  0  0  0  0  0  0  0  0  0  0
   -1.2133   -0.2497   -2.2962 H   0  0  0  0  0  0  0  0  0  0  0  0
   -1.0233    1.8113   -3.5457 H   0  0  0  0  0  0  0  0  0  0  0  0
  2  1  1  0  0  0  0
  3  2  1  0  0  0  0
  4  2  1  0  0  0  0
  5  2  1  0  0  0  0
  6  5  2  0  0  0  0
  6 33  1  0  0  0  0
  7  6  1  0  0  0  0
  8  7  2  0  0  0  0
  9  8  1  0  0  0  0
  9 34  1  0  0  0  0
 10  9  2  0  0  0  0
 10  5  1  0  0  0  0
 10 35  1  0  0  0  0
 11  8  1  0  0  0  0
 12 11  1  0  0  0  0
 12 36  1  0  0  0  0
 13 12  1  0  0  0  0
 13 37  1  0  0  0  0
 13 38  1  0  0  0  0
 14 13  1  0  0  0  0
 14 39  1  0  0  0  0
 14 40  1  0  0  0  0
 15 14  1  0  0  0  0
 15 41  1  0  0  0  0
 15 42  1  0  0  0  0
 16 15  1  0  0  0  0
 17 16  1  0  0  0  0
 17 43  1  6  0  0  0
 18 17  1  0  0  0  0
 19 18  1  0  0  0  0
 19 44  1  0  0  0  0
 19 45  1  0  0  0  0
 20 19  1  0  0  0  0
 20 16  1  0  0  0  0
 21 20  2  0  0  0  0
 22 17  1  0  0  0  0
 23 22  2  0  0  0  0
 24 23  1  0  0  0  0
 25 23  1  0  0  0  0
 25 46  1  0  0  0  0
 26 25  2  0  0  0  0
 26 47  1  0  0  0  0
 27 26  1  0  0  0  0
 27 48  1  0  0  0  0
 28 27  2  0  0  0  0
 28 22  1  0  0  0  0
 29 28  1  0  0  0  0
 30 11  2  0  0  0  0
 30 49  1  0  0  0  0
 31 30  1  0  0  0  0
 31 50  1  0  0  0  0
 32 31  2  0  0  0  0
 32  7  1  0  0  0  0
M  END
>  <MOL Chiral Flag>
0

>  <energy>
48.138744673892845

$$$$
> 322_AKC_j.exppara.2017.01.002
>311.sdf
 OpenBabel10062212333D

 66 69  0  0  0  0  0  0  0  0999 V2000
    1.7111   -0.7510   -1.8275 H   0  0  0  0  0  0  0  0  0  0  0  0
    2.0132    0.0095   -1.0880 C   0  0  1  0  0  0  0  0  0  0  0  0
    3.1552    0.9018   -1.6291 C   0  0  0  0  0  0  0  0  0  0  0  0
    4.4174    0.2605   -1.0759 C   0  0  0  0  0  0  0  0  0  0  0  0
    3.9750   -0.0514    0.3548 C   0  0  0  0  0  0  0  0  0  0  0  0
    2.6478   -0.7506    0.0920 C   0  0  1  0  0  0  0  0  0  0  0  0
    2.9422   -1.7541   -0.3007 H   0  0  0  0  0  0  0  0  0  0  0  0
    1.7462   -0.9901    1.2811 C   0  0  0  0  0  0  0  0  0  0  0  0
    2.1898   -1.6315    2.2215 O   0  0  0  0  0  0  0  0  0  0  0  0
    0.2851   -0.6235    1.2429 C   0  0  0  0  0  0  0  0  0  0  0  0
   -0.6296   -1.2385    2.3086 C   0  0  0  0  0  0  0  0  0  0  0  0
   -0.7698   -0.4102    3.6294 C   0  0  0  0  0  0  0  0  0  0  0  0
   -1.3905    0.9819    3.3910 C   0  0  0  0  0  0  0  0  0  0  0  0
    0.5937   -0.2147    4.3130 C   0  0  0  0  0  0  0  0  0  0  0  0
   -1.5826   -1.1259    4.5291 O   0  0  0  0  0  0  0  0  0  0  0  0
   -0.1907    0.1277    0.1955 C   0  0  0  0  0  0  0  0  0  0  0  0
   -1.6710    0.4565   -0.0177 C   0  0  0  0  0  0  0  0  0  0  0  0
   -2.4225   -0.2384   -1.2044 C   0  0  2  0  0  0  0  0  0  0  0  0
   -3.8179    0.4128   -1.2921 C   0  0  0  0  0  0  0  0  0  0  0  0
   -2.6311   -1.7603   -1.0020 C   0  0  0  0  0  0  0  0  0  0  0  0
   -1.3409   -2.5675   -1.1613 C   0  0  0  0  0  0  0  0  0  0  0  0
   -0.5747   -2.1073   -2.3707 C   0  0  0  0  0  0  0  0  0  0  0  0
   -0.8618   -0.8604   -2.9695 C   0  0  0  0  0  0  0  0  0  0  0  0
   -1.7857   -0.0193   -2.4205 O   0  0  0  0  0  0  0  0  0  0  0  0
   -0.1589   -0.4596   -4.1176 C   0  0  0  0  0  0  0  0  0  0  0  0
   -0.4924    0.8425   -4.7900 C   0  0  0  0  0  0  0  0  0  0  0  0
    0.8670   -1.2734   -4.6267 C   0  0  0  0  0  0  0  0  0  0  0  0
    1.1964   -2.4901   -3.9939 C   0  0  0  0  0  0  0  0  0  0  0  0
    2.2103   -3.2886   -4.4251 O   0  0  0  0  0  0  0  0  0  0  0  0
    3.2974   -2.8991   -5.1873 C   0  0  0  0  0  0  0  0  0  0  0  0
    0.4572   -2.9051   -2.8821 C   0  0  0  0  0  0  0  0  0  0  0  0
    0.8119    0.8594   -0.6735 C   0  0  0  0  0  0  0  0  0  0  0  0
    3.1189    1.8982   -1.1272 H   0  0  0  0  0  0  0  0  0  0  0  0
    3.1226    1.0942   -2.7214 H   0  0  0  0  0  0  0  0  0  0  0  0
    4.6259   -0.6843   -1.6290 H   0  0  0  0  0  0  0  0  0  0  0  0
    5.3120    0.9165   -1.1356 H   0  0  0  0  0  0  0  0  0  0  0  0
    4.6981   -0.6813    0.9180 H   0  0  0  0  0  0  0  0  0  0  0  0
    3.8082    0.8976    0.9122 H   0  0  0  0  0  0  0  0  0  0  0  0
   -0.2358   -2.2465    2.5624 H   0  0  0  0  0  0  0  0  0  0  0  0
   -1.6257   -1.4786    1.8914 H   0  0  0  0  0  0  0  0  0  0  0  0
   -1.4725    1.5367    4.3504 H   0  0  0  0  0  0  0  0  0  0  0  0
   -2.4169    0.8941    2.9820 H   0  0  0  0  0  0  0  0  0  0  0  0
   -0.7677    1.5838    2.6952 H   0  0  0  0  0  0  0  0  0  0  0  0
    0.4679    0.3264    5.2759 H   0  0  0  0  0  0  0  0  0  0  0  0
    1.0581   -1.1979    4.5392 H   0  0  0  0  0  0  0  0  0  0  0  0
    1.2826    0.3827    3.6795 H   0  0  0  0  0  0  0  0  0  0  0  0
   -2.4794   -1.2341    4.1155 H   0  0  0  0  0  0  0  0  0  0  0  0
   -2.2703    0.2565    0.8812 H   0  0  0  0  0  0  0  0  0  0  0  0
   -1.7212    1.5611   -0.1380 H   0  0  0  0  0  0  0  0  0  0  0  0
   -4.3881    0.2614   -0.3495 H   0  0  0  0  0  0  0  0  0  0  0  0
   -3.7264    1.5052   -1.4759 H   0  0  0  0  0  0  0  0  0  0  0  0
   -4.4056   -0.0197   -2.1304 H   0  0  0  0  0  0  0  0  0  0  0  0
   -3.1374   -2.0004   -0.0421 H   0  0  0  0  0  0  0  0  0  0  0  0
   -3.3015   -2.1042   -1.8235 H   0  0  0  0  0  0  0  0  0  0  0  0
   -0.6793   -2.5102   -0.2798 H   0  0  0  0  0  0  0  0  0  0  0  0
   -1.6424   -3.6320   -1.2746 H   0  0  0  0  0  0  0  0  0  0  0  0
    0.1447    1.0216   -5.6820 H   0  0  0  0  0  0  0  0  0  0  0  0
   -1.5524    0.8236   -5.1230 H   0  0  0  0  0  0  0  0  0  0  0  0
   -0.3490    1.6834   -4.0805 H   0  0  0  0  0  0  0  0  0  0  0  0
    1.4014   -0.9471   -5.5067 H   0  0  0  0  0  0  0  0  0  0  0  0
    3.2668   -3.4121   -6.1696 H   0  0  0  0  0  0  0  0  0  0  0  0
    3.3648   -1.8034   -5.3363 H   0  0  0  0  0  0  0  0  0  0  0  0
    4.2247   -3.2006   -4.6572 H   0  0  0  0  0  0  0  0  0  0  0  0
    0.6973   -3.8465   -2.4027 H   0  0  0  0  0  0  0  0  0  0  0  0
    0.3416    1.3615   -1.5453 H   0  0  0  0  0  0  0  0  0  0  0  0
    1.1932    1.6669   -0.0104 H   0  0  0  0  0  0  0  0  0  0  0  0
  2  1  1  6  0  0  0
  3  2  1  0  0  0  0
  3 33  1  0  0  0  0
  3 34  1  0  0  0  0
  4  3  1  0  0  0  0
  4 35  1  0  0  0  0
  4 36  1  0  0  0  0
  5  4  1  0  0  0  0
  5 37  1  0  0  0  0
  5 38  1  0  0  0  0
  6  5  1  0  0  0  0
  6  2  1  0  0  0  0
  6  7  1  6  0  0  0
  8  6  1  0  0  0  0
  9  8  2  0  0  0  0
 10  8  1  0  0  0  0
 11 10  1  0  0  0  0
 11 39  1  0  0  0  0
 11 40  1  0  0  0  0
 12 11  1  0  0  0  0
 13 12  1  0  0  0  0
 13 41  1  0  0  0  0
 13 42  1  0  0  0  0
 13 43  1  0  0  0  0
 14 12  1  0  0  0  0
 14 44  1  0  0  0  0
 14 45  1  0  0  0  0
 14 46  1  0  0  0  0
 15 12  1  0  0  0  0
 15 47  1  0  0  0  0
 16 10  2  0  0  0  0
 17 16  1  0  0  0  0
 17 48  1  0  0  0  0
 17 49  1  0  0  0  0
 18 17  1  1  0  0  0
 19 18  1  0  0  0  0
 19 50  1  0  0  0  0
 19 51  1  0  0  0  0
 19 52  1  0  0  0  0
 20 18  1  0  0  0  0
 20 53  1  0  0  0  0
 20 54  1  0  0  0  0
 21 20  1  0  0  0  0
 21 55  1  0  0  0  0
 21 56  1  0  0  0  0
 22 21  1  0  0  0  0
 23 22  2  0  0  0  0
 24 23  1  0  0  0  0
 24 18  1  0  0  0  0
 25 23  1  0  0  0  0
 26 25  1  0  0  0  0
 26 57  1  0  0  0  0
 26 58  1  0  0  0  0
 26 59  1  0  0  0  0
 27 25  2  0  0  0  0
 27 60  1  0  0  0  0
 28 27  1  0  0  0  0
 29 28  1  0  0  0  0
 30 29  1  0  0  0  0
 30 61  1  0  0  0  0
 30 62  1  0  0  0  0
 30 63  1  0  0  0  0
 31 28  2  0  0  0  0
 31 22  1  0  0  0  0
 31 64  1  0  0  0  0
 32 16  1  0  0  0  0
 32  2  1  0  0  0  0
 32 65  1  0  0  0  0
 32 66  1  0  0  0  0
M  END
>  <MOL Chiral Flag>
0

>  <energy>
102.07278667842449

$$$$
> 323_AKC_j.bcp.2016.12.018
>312.sdf
 OpenBabel10062212343D

 80 83  0  0  0  0  0  0  0  0999 V2000
   -2.2154    1.0822    5.6243 C   0  0  0  0  0  0  0  0  0  0  0  0
   -1.7071    2.4720    5.2083 C   0  0  2  0  0  0  0  0  0  0  0  0
   -0.7099    2.3955    4.1923 O   0  0  0  0  0  0  0  0  0  0  0  0
    0.5602    1.9476    4.6611 C   0  0  1  0  0  0  0  0  0  0  0  0
    1.4924    2.1545    3.6237 O   0  0  0  0  0  0  0  0  0  0  0  0
    1.7692    1.0482    2.7795 C   0  0  2  0  0  0  0  0  0  0  0  0
    3.2655    0.7325    2.9435 C   0  0  1  0  0  0  0  0  0  0  0  0
    3.4737    0.0899    4.1759 O   0  0  0  0  0  0  0  0  0  0  0  0
    3.7756   -0.1432    1.7881 C   0  0  2  0  0  0  0  0  0  0  0  0
    5.1604   -0.3905    1.9824 O   0  0  0  0  0  0  0  0  0  0  0  0
    5.4356   -1.7041    2.4496 C   0  0  0  0  0  0  0  0  0  0  0  0
    6.3904   -1.6502    3.6483 C   0  0  0  0  0  0  0  0  0  0  0  0
    7.7664   -1.0571    3.4164 C   0  0  0  0  0  0  0  0  0  0  0  0
    8.2069   -0.5946    2.1595 C   0  0  0  0  0  0  0  0  0  0  0  0
    9.4916   -0.0612    2.0158 C   0  0  0  0  0  0  0  0  0  0  0  0
   10.3541    0.0186    3.1185 C   0  0  0  0  0  0  0  0  0  0  0  0
   11.5943    0.5326    2.9821 O   0  0  0  0  0  0  0  0  0  0  0  0
    9.9262   -0.4393    4.3703 C   0  0  0  0  0  0  0  0  0  0  0  0
   10.7566   -0.3628    5.4314 O   0  0  0  0  0  0  0  0  0  0  0  0
    8.6385   -0.9750    4.5146 C   0  0  0  0  0  0  0  0  0  0  0  0
    3.6296    0.5829    0.5756 O   0  0  0  0  0  0  0  0  0  0  0  0
    2.2586    0.6872    0.2328 C   0  0  2  0  0  0  0  0  0  0  0  0
    2.1266    1.3917   -1.1257 C   0  0  0  0  0  0  0  0  0  0  0  0
    2.8003    0.6720   -2.1231 O   0  0  0  0  0  0  0  0  0  0  0  0
    1.4861    1.4977    1.3287 C   0  0  1  0  0  0  0  0  0  0  0  0
    0.1160    1.5916    1.0835 O   0  0  0  0  0  0  0  0  0  0  0  0
   -0.7937    0.5895    0.8511 C   0  0  0  0  0  0  0  0  0  0  0  0
   -1.9222    0.9074    0.5112 O   0  0  0  0  0  0  0  0  0  0  0  0
   -0.4219   -0.8600    0.8567 C   0  0  0  0  0  0  0  0  0  0  0  0
   -1.1521   -1.7785    0.1874 C   0  0  0  0  0  0  0  0  0  0  0  0
   -0.7396   -3.2062    0.0023 C   0  0  0  0  0  0  0  0  0  0  0  0
    0.4101   -3.7653    0.6038 C   0  0  0  0  0  0  0  0  0  0  0  0
    0.7779   -5.0865    0.3374 C   0  0  0  0  0  0  0  0  0  0  0  0
    0.0149   -5.8772   -0.5349 C   0  0  0  0  0  0  0  0  0  0  0  0
    0.3847   -7.1458   -0.8019 O   0  0  0  0  0  0  0  0  0  0  0  0
   -1.1336   -5.3328   -1.1336 C   0  0  0  0  0  0  0  0  0  0  0  0
   -1.8846   -6.0668   -1.9869 O   0  0  0  0  0  0  0  0  0  0  0  0
   -1.5058   -4.0121   -0.8622 C   0  0  0  0  0  0  0  0  0  0  0  0
    1.0758    2.8199    5.8388 C   0  0  2  0  0  0  0  0  0  0  0  0
    2.3253    2.3774    6.3069 O   0  0  0  0  0  0  0  0  0  0  0  0
    0.0560    2.9209    6.9809 C   0  0  2  0  0  0  0  0  0  0  0  0
   -0.1049    1.6825    7.6254 O   0  0  0  0  0  0  0  0  0  0  0  0
   -1.2757    3.3881    6.3803 C   0  0  1  0  0  0  0  0  0  0  0  0
   -1.1237    4.6955    5.8776 O   0  0  0  0  0  0  0  0  0  0  0  0
   -1.4315    0.4447    6.0716 H   0  0  0  0  0  0  0  0  0  0  0  0
   -2.6103    0.5538    4.7318 H   0  0  0  0  0  0  0  0  0  0  0  0
   -3.0414    1.1914    6.3596 H   0  0  0  0  0  0  0  0  0  0  0  0
   -2.5938    2.9695    4.7568 H   0  0  0  0  0  0  0  0  0  0  0  0
    0.5120    0.8817    4.9793 H   0  0  0  0  0  0  0  0  0  0  0  0
    1.1895    0.1266    3.0039 H   0  0  0  0  0  0  0  0  0  0  0  0
    3.8495    1.6851    2.8843 H   0  0  0  0  0  0  0  0  0  0  0  0
    3.9589    0.7237    4.7652 H   0  0  0  0  0  0  0  0  0  0  0  0
    3.1831   -1.0908    1.7233 H   0  0  0  0  0  0  0  0  0  0  0  0
    4.5368   -2.2496    2.8199 H   0  0  0  0  0  0  0  0  0  0  0  0
    5.8747   -2.3073    1.6265 H   0  0  0  0  0  0  0  0  0  0  0  0
    5.8918   -1.0671    4.4519 H   0  0  0  0  0  0  0  0  0  0  0  0
    6.5323   -2.6898    4.0168 H   0  0  0  0  0  0  0  0  0  0  0  0
    7.5718   -0.6443    1.2874 H   0  0  0  0  0  0  0  0  0  0  0  0
    9.8177    0.2897    1.0448 H   0  0  0  0  0  0  0  0  0  0  0  0
   11.9212    0.8565    2.1307 H   0  0  0  0  0  0  0  0  0  0  0  0
   10.4904   -0.6702    6.3099 H   0  0  0  0  0  0  0  0  0  0  0  0
    8.3130   -1.3285    5.4862 H   0  0  0  0  0  0  0  0  0  0  0  0
    1.8829   -0.3320    0.0558 H   0  0  0  0  0  0  0  0  0  0  0  0
    1.0553    1.4554   -1.4140 H   0  0  0  0  0  0  0  0  0  0  0  0
    2.5093    2.4373   -1.0748 H   0  0  0  0  0  0  0  0  0  0  0  0
    3.7499    0.9590   -2.0918 H   0  0  0  0  0  0  0  0  0  0  0  0
    1.9120    2.5252    1.2685 H   0  0  0  0  0  0  0  0  0  0  0  0
    0.4891   -1.1587    1.3373 H   0  0  0  0  0  0  0  0  0  0  0  0
   -2.0515   -1.4504   -0.3267 H   0  0  0  0  0  0  0  0  0  0  0  0
    1.0383   -3.1954    1.2698 H   0  0  0  0  0  0  0  0  0  0  0  0
    1.6665   -5.4972    0.8012 H   0  0  0  0  0  0  0  0  0  0  0  0
    1.1790   -7.5407   -0.4138 H   0  0  0  0  0  0  0  0  0  0  0  0
   -1.6606   -6.9776   -2.2214 H   0  0  0  0  0  0  0  0  0  0  0  0
   -2.3852   -3.6033   -1.3453 H   0  0  0  0  0  0  0  0  0  0  0  0
    1.2208    3.8489    5.4391 H   0  0  0  0  0  0  0  0  0  0  0  0
    2.2260    1.4287    6.5815 H   0  0  0  0  0  0  0  0  0  0  0  0
    0.3937    3.6856    7.7231 H   0  0  0  0  0  0  0  0  0  0  0  0
    0.4434    1.7029    8.4532 H   0  0  0  0  0  0  0  0  0  0  0  0
   -2.0720    3.3835    7.1633 H   0  0  0  0  0  0  0  0  0  0  0  0
   -1.4737    5.3248    6.5612 H   0  0  0  0  0  0  0  0  0  0  0  0
  1 45  1  0  0  0  0
  1 46  1  0  0  0  0
  1 47  1  0  0  0  0
  2  1  1  0  0  0  0
  2 48  1  6  0  0  0
  3  2  1  0  0  0  0
  4  3  1  0  0  0  0
  4 49  1  1  0  0  0
  5  4  1  0  0  0  0
  6  5  1  0  0  0  0
  6 50  1  1  0  0  0
  7  6  1  0  0  0  0
  7 51  1  6  0  0  0
  8  7  1  0  0  0  0
  8 52  1  0  0  0  0
  9  7  1  0  0  0  0
  9 53  1  6  0  0  0
 10  9  1  0  0  0  0
 11 10  1  0  0  0  0
 11 54  1  0  0  0  0
 11 55  1  0  0  0  0
 12 11  1  0  0  0  0
 12 56  1  0  0  0  0
 12 57  1  0  0  0  0
 13 12  1  0  0  0  0
 14 13  2  0  0  0  0
 14 58  1  0  0  0  0
 15 14  1  0  0  0  0
 15 59  1  0  0  0  0
 16 15  2  0  0  0  0
 17 16  1  0  0  0  0
 17 60  1  0  0  0  0
 18 16  1  0  0  0  0
 19 18  1  0  0  0  0
 19 61  1  0  0  0  0
 20 18  2  0  0  0  0
 20 13  1  0  0  0  0
 20 62  1  0  0  0  0
 21  9  1  0  0  0  0
 22 21  1  0  0  0  0
 22 63  1  6  0  0  0
 23 22  1  0  0  0  0
 23 64  1  0  0  0  0
 23 65  1  0  0  0  0
 24 23  1  0  0  0  0
 24 66  1  0  0  0  0
 25 22  1  0  0  0  0
 25  6  1  0  0  0  0
 25 67  1  6  0  0  0
 26 25  1  0  0  0  0
 27 26  1  0  0  0  0
 28 27  2  0  0  0  0
 29 27  1  0  0  0  0
 29 68  1  0  0  0  0
 30 29  2  0  0  0  0
 30 69  1  0  0  0  0
 31 30  1  0  0  0  0
 32 31  2  0  0  0  0
 32 70  1  0  0  0  0
 33 32  1  0  0  0  0
 33 71  1  0  0  0  0
 34 33  2  0  0  0  0
 35 34  1  0  0  0  0
 35 72  1  0  0  0  0
 36 34  1  0  0  0  0
 37 36  1  0  0  0  0
 37 73  1  0  0  0  0
 38 36  2  0  0  0  0
 38 31  1  0  0  0  0
 38 74  1  0  0  0  0
 39  4  1  0  0  0  0
 39 75  1  6  0  0  0
 40 39  1  0  0  0  0
 40 76  1  0  0  0  0
 41 39  1  0  0  0  0
 41 77  1  1  0  0  0
 42 41  1  0  0  0  0
 42 78  1  0  0  0  0
 43 41  1  0  0  0  0
 43  2  1  0  0  0  0
 43 79  1  1  0  0  0
 44 43  1  0  0  0  0
 44 80  1  0  0  0  0
M  END
>  <MOL Chiral Flag>
0

>  <energy>
254.31887633009751

$$$$
> 324_AKC_j.actatropica.2016.12.027
>313.sdf
 OpenBabel10062212343D

 36 39  0  0  0  0  0  0  0  0999 V2000
    0.8341   -6.1160   -0.8132 Cl  0  0  0  0  0  0  0  0  0  0  0  0
    0.5053   -4.4258   -0.4788 C   0  0  0  0  0  0  0  0  0  0  0  0
    0.0874   -3.5772   -1.5085 C   0  0  0  0  0  0  0  0  0  0  0  0
   -0.1751   -2.2298   -1.2443 C   0  0  0  0  0  0  0  0  0  0  0  0
   -0.0200   -1.7189    0.0574 C   0  0  0  0  0  0  0  0  0  0  0  0
    0.3984   -2.5794    1.0872 C   0  0  0  0  0  0  0  0  0  0  0  0
    0.6600   -3.9262    0.8180 C   0  0  0  0  0  0  0  0  0  0  0  0
   -0.3003   -0.2622    0.3502 C   0  0  2  0  0  0  0  0  0  0  0  0
   -1.6222    0.0322    0.0299 O   0  0  0  0  0  0  0  0  0  0  0  0
   -2.1006    1.3066    0.0293 C   0  0  0  0  0  0  0  0  0  0  0  0
   -3.4790    1.5367    0.0867 C   0  0  0  0  0  0  0  0  0  0  0  0
   -3.9692    2.8464    0.1229 C   0  0  0  0  0  0  0  0  0  0  0  0
   -3.0838    3.9299    0.1021 C   0  0  0  0  0  0  0  0  0  0  0  0
   -1.7042    3.7095    0.0336 C   0  0  0  0  0  0  0  0  0  0  0  0
   -1.2084    2.3976   -0.0161 C   0  0  0  0  0  0  0  0  0  0  0  0
    0.2370    2.1047   -0.1144 C   0  0  0  0  0  0  0  0  0  0  0  0
    1.0723    2.9841    0.0407 O   0  0  0  0  0  0  0  0  0  0  0  0
    0.6448    0.6821   -0.4250 C   0  0  1  0  0  0  0  0  0  0  0  0
    2.0549    0.4304   -0.1052 N   0  0  0  0  0  0  0  0  0  0  0  0
    2.6483    0.5243    1.0977 C   0  0  0  0  0  0  0  0  0  0  0  0
    3.9756    0.1960    0.9445 C   0  0  0  0  0  0  0  0  0  0  0  0
    4.2084   -0.1026   -0.3507 N   0  0  0  0  0  0  0  0  0  0  0  0
    3.0172    0.0491   -0.9668 C   0  0  0  0  0  0  0  0  0  0  0  0
   -0.0346   -3.9613   -2.5133 H   0  0  0  0  0  0  0  0  0  0  0  0
   -0.5004   -1.5860   -2.0514 H   0  0  0  0  0  0  0  0  0  0  0  0
    0.5241   -2.2075    2.0964 H   0  0  0  0  0  0  0  0  0  0  0  0
    0.9830   -4.5807    1.6175 H   0  0  0  0  0  0  0  0  0  0  0  0
   -0.1558   -0.0629    1.4370 H   0  0  0  0  0  0  0  0  0  0  0  0
   -4.1680    0.7022    0.1165 H   0  0  0  0  0  0  0  0  0  0  0  0
   -5.0359    3.0221    0.1741 H   0  0  0  0  0  0  0  0  0  0  0  0
   -3.4678    4.9413    0.1345 H   0  0  0  0  0  0  0  0  0  0  0  0
   -1.0290    4.5555    0.0077 H   0  0  0  0  0  0  0  0  0  0  0  0
    0.4650    0.5201   -1.5110 H   0  0  0  0  0  0  0  0  0  0  0  0
    2.1525    0.8099    2.0165 H   0  0  0  0  0  0  0  0  0  0  0  0
    4.7267    0.1740    1.7226 H   0  0  0  0  0  0  0  0  0  0  0  0
    2.8589   -0.1186   -2.0244 H   0  0  0  0  0  0  0  0  0  0  0  0
  2  1  1  0  0  0  0
  3  2  2  0  0  0  0
  3 24  1  0  0  0  0
  4  3  1  0  0  0  0
  4 25  1  0  0  0  0
  5  4  2  0  0  0  0
  6  5  1  0  0  0  0
  6 26  1  0  0  0  0
  7  6  2  0  0  0  0
  7  2  1  0  0  0  0
  7 27  1  0  0  0  0
  8  5  1  0  0  0  0
  8 28  1  1  0  0  0
  9  8  1  0  0  0  0
 10  9  1  0  0  0  0
 11 10  2  0  0  0  0
 11 29  1  0  0  0  0
 12 11  1  0  0  0  0
 12 30  1  0  0  0  0
 13 12  2  0  0  0  0
 13 31  1  0  0  0  0
 14 13  1  0  0  0  0
 14 32  1  0  0  0  0
 15 14  2  0  0  0  0
 15 10  1  0  0  0  0
 16 15  1  0  0  0  0
 17 16  2  0  0  0  0
 18 16  1  0  0  0  0
 18  8  1  0  0  0  0
 18 33  1  6  0  0  0
 19 18  1  0  0  0  0
 20 19  1  0  0  0  0
 20 34  1  0  0  0  0
 21 20  2  0  0  0  0
 21 35  1  0  0  0  0
 22 21  1  0  0  0  0
 23 22  2  0  0  0  0
 23 19  1  0  0  0  0
 23 36  1  0  0  0  0
M  END
>  <MOL Chiral Flag>
0

>  <energy>
62.235690940479415

$$$$
> 325_AKC_j.actatropica.2016.12.027
>313_2.sdf
 OpenBabel10102214263D

 36 39  0  0  0  0  0  0  0  0999 V2000
    1.3974   -6.3453   -0.7277 Cl  0  0  0  0  0  0  0  0  0  0  0  0
    0.8643   -4.6746   -0.7629 C   0  0  0  0  0  0  0  0  0  0  0  0
    0.9117   -3.9504   -1.9570 C   0  0  0  0  0  0  0  0  0  0  0  0
    0.4883   -2.6188   -1.9877 C   0  0  0  0  0  0  0  0  0  0  0  0
    0.0118   -1.9948   -0.8200 C   0  0  0  0  0  0  0  0  0  0  0  0
   -0.0346   -2.7352    0.3788 C   0  0  0  0  0  0  0  0  0  0  0  0
    0.3912   -4.0666    0.4031 C   0  0  0  0  0  0  0  0  0  0  0  0
   -0.4408   -0.5456   -0.8727 C   0  0  1  0  0  0  0  0  0  0  0  0
   -1.0054   -0.1351    0.3261 O   0  0  0  0  0  0  0  0  0  0  0  0
   -1.4201    1.1435    0.5085 C   0  0  0  0  0  0  0  0  0  0  0  0
   -2.4075    1.4302    1.4566 C   0  0  0  0  0  0  0  0  0  0  0  0
   -2.8395    2.7474    1.6407 C   0  0  0  0  0  0  0  0  0  0  0  0
   -2.2797    3.7822    0.8842 C   0  0  0  0  0  0  0  0  0  0  0  0
   -1.2810    3.5052   -0.0551 C   0  0  0  0  0  0  0  0  0  0  0  0
   -0.8471    2.1834   -0.2479 C   0  0  0  0  0  0  0  0  0  0  0  0
    0.2499    1.8489   -1.1868 C   0  0  0  0  0  0  0  0  0  0  0  0
    0.8788    2.7341   -1.7477 O   0  0  0  0  0  0  0  0  0  0  0  0
    0.7020    0.4117   -1.3092 C   0  0  1  0  0  0  0  0  0  0  0  0
    1.9217    0.2076   -0.5172 N   0  0  0  0  0  0  0  0  0  0  0  0
    2.0779    0.3664    0.8092 C   0  0  0  0  0  0  0  0  0  0  0  0
    3.3827    0.0634    1.1240 C   0  0  0  0  0  0  0  0  0  0  0  0
    4.0382   -0.2832   -0.0029 N   0  0  0  0  0  0  0  0  0  0  0  0
    3.1212   -0.1857   -0.9882 C   0  0  0  0  0  0  0  0  0  0  0  0
    1.2763   -4.4189   -2.8623 H   0  0  0  0  0  0  0  0  0  0  0  0
    0.5297   -2.0743   -2.9222 H   0  0  0  0  0  0  0  0  0  0  0  0
   -0.3941   -2.2871    1.2957 H   0  0  0  0  0  0  0  0  0  0  0  0
    0.3535   -4.6254    1.3296 H   0  0  0  0  0  0  0  0  0  0  0  0
   -1.2475   -0.4713   -1.6379 H   0  0  0  0  0  0  0  0  0  0  0  0
   -2.8442    0.6325    2.0439 H   0  0  0  0  0  0  0  0  0  0  0  0
   -3.6076    2.9667    2.3709 H   0  0  0  0  0  0  0  0  0  0  0  0
   -2.6138    4.8009    1.0326 H   0  0  0  0  0  0  0  0  0  0  0  0
   -0.8439    4.3175   -0.6221 H   0  0  0  0  0  0  0  0  0  0  0  0
    0.9149    0.1966   -2.3799 H   0  0  0  0  0  0  0  0  0  0  0  0
    1.3044    0.6787    1.4977 H   0  0  0  0  0  0  0  0  0  0  0  0
    3.8302    0.0921    2.1083 H   0  0  0  0  0  0  0  0  0  0  0  0
    3.3284   -0.4006   -2.0285 H   0  0  0  0  0  0  0  0  0  0  0  0
  2  1  1  0  0  0  0
  3  2  2  0  0  0  0
  3 24  1  0  0  0  0
  4  3  1  0  0  0  0
  4 25  1  0  0  0  0
  5  4  2  0  0  0  0
  6  5  1  0  0  0  0
  6 26  1  0  0  0  0
  7  6  2  0  0  0  0
  7  2  1  0  0  0  0
  7 27  1  0  0  0  0
  8  5  1  0  0  0  0
  8 28  1  6  0  0  0
  9  8  1  0  0  0  0
 10  9  1  0  0  0  0
 11 10  2  0  0  0  0
 11 29  1  0  0  0  0
 12 11  1  0  0  0  0
 12 30  1  0  0  0  0
 13 12  2  0  0  0  0
 13 31  1  0  0  0  0
 14 13  1  0  0  0  0
 14 32  1  0  0  0  0
 15 14  2  0  0  0  0
 15 10  1  0  0  0  0
 16 15  1  0  0  0  0
 17 16  2  0  0  0  0
 18 16  1  0  0  0  0
 18  8  1  0  0  0  0
 18 33  1  6  0  0  0
 19 18  1  0  0  0  0
 20 19  1  0  0  0  0
 20 34  1  0  0  0  0
 21 20  2  0  0  0  0
 21 35  1  0  0  0  0
 22 21  1  0  0  0  0
 23 22  2  0  0  0  0
 23 19  1  0  0  0  0
 23 36  1  0  0  0  0
M  END
>  <MOL Chiral Flag>
0

>  <energy>
62.235690940479415

$$$$
> 326_AKC_j.actatropica.2016.12.027
>313_3.sdf
 OpenBabel10102214263D

 36 39  0  0  0  0  0  0  0  0999 V2000
    0.7368   -5.0843   -1.9535 Cl  0  0  0  0  0  0  0  0  0  0  0  0
    0.3419   -3.6121   -1.0856 C   0  0  0  0  0  0  0  0  0  0  0  0
   -0.1496   -2.4986   -1.7759 C   0  0  0  0  0  0  0  0  0  0  0  0
   -0.4604   -1.3214   -1.0845 C   0  0  0  0  0  0  0  0  0  0  0  0
   -0.2743   -1.2501    0.3075 C   0  0  0  0  0  0  0  0  0  0  0  0
    0.2132   -2.3806    0.9920 C   0  0  0  0  0  0  0  0  0  0  0  0
    0.5198   -3.5518    0.2981 C   0  0  0  0  0  0  0  0  0  0  0  0
   -0.5839    0.0137    1.0857 C   0  0  2  0  0  0  0  0  0  0  0  0
   -1.9359    0.3225    0.9493 O   0  0  0  0  0  0  0  0  0  0  0  0
   -2.4444    1.3012    0.1478 C   0  0  0  0  0  0  0  0  0  0  0  0
   -3.8325    1.4159    0.0022 C   0  0  0  0  0  0  0  0  0  0  0  0
   -4.3756    2.3922   -0.8393 C   0  0  0  0  0  0  0  0  0  0  0  0
   -3.5348    3.2583   -1.5434 C   0  0  0  0  0  0  0  0  0  0  0  0
   -2.1479    3.1518   -1.4091 C   0  0  0  0  0  0  0  0  0  0  0  0
   -1.5967    2.1768   -0.5603 C   0  0  0  0  0  0  0  0  0  0  0  0
   -0.1429    2.0458   -0.3780 C   0  0  0  0  0  0  0  0  0  0  0  0
    0.6365    2.7321   -1.0239 O   0  0  0  0  0  0  0  0  0  0  0  0
    0.3393    1.2322    0.7881 C   0  0  2  0  0  0  0  0  0  0  0  0
    1.7602    0.8735    0.6739 N   0  0  0  0  0  0  0  0  0  0  0  0
    2.7293    1.1430    1.5656 C   0  0  0  0  0  0  0  0  0  0  0  0
    3.9147    0.6427    1.0764 C   0  0  0  0  0  0  0  0  0  0  0  0
    3.6892    0.0694   -0.1239 N   0  0  0  0  0  0  0  0  0  0  0  0
    2.3699    0.2254   -0.3435 C   0  0  0  0  0  0  0  0  0  0  0  0
   -0.2873   -2.5448   -2.8482 H   0  0  0  0  0  0  0  0  0  0  0  0
   -0.8352   -0.4681   -1.6330 H   0  0  0  0  0  0  0  0  0  0  0  0
    0.3630   -2.3528    2.0645 H   0  0  0  0  0  0  0  0  0  0  0  0
    0.8989   -4.4109    0.8377 H   0  0  0  0  0  0  0  0  0  0  0  0
   -0.3993   -0.2118    2.1596 H   0  0  0  0  0  0  0  0  0  0  0  0
   -4.4907    0.7419    0.5356 H   0  0  0  0  0  0  0  0  0  0  0  0
   -5.4492    2.4751   -0.9491 H   0  0  0  0  0  0  0  0  0  0  0  0
   -3.9584    4.0137   -2.1928 H   0  0  0  0  0  0  0  0  0  0  0  0
   -1.5082    3.8336   -1.9556 H   0  0  0  0  0  0  0  0  0  0  0  0
    0.1956    1.9019    1.6674 H   0  0  0  0  0  0  0  0  0  0  0  0
    2.5828    1.6590    2.5054 H   0  0  0  0  0  0  0  0  0  0  0  0
    4.8824    0.6901    1.5554 H   0  0  0  0  0  0  0  0  0  0  0  0
    1.8719   -0.1130   -1.2417 H   0  0  0  0  0  0  0  0  0  0  0  0
  2  1  1  0  0  0  0
  3  2  2  0  0  0  0
  3 24  1  0  0  0  0
  4  3  1  0  0  0  0
  4 25  1  0  0  0  0
  5  4  2  0  0  0  0
  6  5  1  0  0  0  0
  6 26  1  0  0  0  0
  7  6  2  0  0  0  0
  7  2  1  0  0  0  0
  7 27  1  0  0  0  0
  8  5  1  0  0  0  0
  8 28  1  1  0  0  0
  9  8  1  0  0  0  0
 10  9  1  0  0  0  0
 11 10  2  0  0  0  0
 11 29  1  0  0  0  0
 12 11  1  0  0  0  0
 12 30  1  0  0  0  0
 13 12  2  0  0  0  0
 13 31  1  0  0  0  0
 14 13  1  0  0  0  0
 14 32  1  0  0  0  0
 15 14  2  0  0  0  0
 15 10  1  0  0  0  0
 16 15  1  0  0  0  0
 17 16  2  0  0  0  0
 18 16  1  0  0  0  0
 18  8  1  0  0  0  0
 18 33  1  1  0  0  0
 19 18  1  0  0  0  0
 20 19  1  0  0  0  0
 20 34  1  0  0  0  0
 21 20  2  0  0  0  0
 21 35  1  0  0  0  0
 22 21  1  0  0  0  0
 23 22  2  0  0  0  0
 23 19  1  0  0  0  0
 23 36  1  0  0  0  0
M  END
>  <MOL Chiral Flag>
0

>  <energy>
62.235690940479415

$$$$
> 327_AKC_j.actatropica.2016.12.027
>313_4.sdf
 OpenBabel10102214263D

 36 39  0  0  0  0  0  0  0  0999 V2000
    0.8789   -6.1874   -0.0506 Cl  0  0  0  0  0  0  0  0  0  0  0  0
    0.5444   -4.4678   -0.1414 C   0  0  0  0  0  0  0  0  0  0  0  0
    0.5308   -3.8248   -1.3818 C   0  0  0  0  0  0  0  0  0  0  0  0
    0.2693   -2.4550   -1.4576 C   0  0  0  0  0  0  0  0  0  0  0  0
    0.0073   -1.7138   -0.2907 C   0  0  0  0  0  0  0  0  0  0  0  0
    0.0143   -2.3693    0.9537 C   0  0  0  0  0  0  0  0  0  0  0  0
    0.2890   -3.7397    1.0254 C   0  0  0  0  0  0  0  0  0  0  0  0
   -0.2861   -0.2336   -0.3954 C   0  0  1  0  0  0  0  0  0  0  0  0
   -1.6039    0.0176   -0.0230 O   0  0  0  0  0  0  0  0  0  0  0  0
   -2.0931    1.2869    0.0599 C   0  0  0  0  0  0  0  0  0  0  0  0
   -3.4733    1.5100    0.0357 C   0  0  0  0  0  0  0  0  0  0  0  0
   -3.9711    2.8172    0.0684 C   0  0  0  0  0  0  0  0  0  0  0  0
   -3.0914    3.9046    0.1241 C   0  0  0  0  0  0  0  0  0  0  0  0
   -1.7094    3.6905    0.1631 C   0  0  0  0  0  0  0  0  0  0  0  0
   -1.2062    2.3812    0.1468 C   0  0  0  0  0  0  0  0  0  0  0  0
    0.2419    2.0881    0.2128 C   0  0  0  0  0  0  0  0  0  0  0  0
    1.0758    2.9702    0.0665 O   0  0  0  0  0  0  0  0  0  0  0  0
    0.6471    0.6519    0.4595 C   0  0  2  0  0  0  0  0  0  0  0  0
    2.0708    0.4163    0.2004 N   0  0  0  0  0  0  0  0  0  0  0  0
    2.9833    0.0266    1.1056 C   0  0  0  0  0  0  0  0  0  0  0  0
    4.1983   -0.0781    0.4697 C   0  0  0  0  0  0  0  0  0  0  0  0
    4.0426    0.2438   -0.8319 N   0  0  0  0  0  0  0  0  0  0  0  0
    2.7329    0.5415   -0.9669 C   0  0  0  0  0  0  0  0  0  0  0  0
    0.7220   -4.3855   -2.2881 H   0  0  0  0  0  0  0  0  0  0  0  0
    0.2604   -1.9738   -2.4279 H   0  0  0  0  0  0  0  0  0  0  0  0
   -0.1844   -1.8215    1.8652 H   0  0  0  0  0  0  0  0  0  0  0  0
    0.3014   -4.2361    1.9872 H   0  0  0  0  0  0  0  0  0  0  0  0
   -0.1697    0.0773   -1.4597 H   0  0  0  0  0  0  0  0  0  0  0  0
   -4.1578    0.6735   -0.0248 H   0  0  0  0  0  0  0  0  0  0  0  0
   -5.0394    2.9884    0.0411 H   0  0  0  0  0  0  0  0  0  0  0  0
   -3.4818    4.9139    0.1417 H   0  0  0  0  0  0  0  0  0  0  0  0
   -1.0382    4.5385    0.2167 H   0  0  0  0  0  0  0  0  0  0  0  0
    0.4250    0.4301    1.5273 H   0  0  0  0  0  0  0  0  0  0  0  0
    2.7802   -0.1635    2.1523 H   0  0  0  0  0  0  0  0  0  0  0  0
    5.1370   -0.3679    0.9226 H   0  0  0  0  0  0  0  0  0  0  0  0
    2.2750    0.8423   -1.8999 H   0  0  0  0  0  0  0  0  0  0  0  0
  2  1  1  0  0  0  0
  3  2  2  0  0  0  0
  3 24  1  0  0  0  0
  4  3  1  0  0  0  0
  4 25  1  0  0  0  0
  5  4  2  0  0  0  0
  6  5  1  0  0  0  0
  6 26  1  0  0  0  0
  7  6  2  0  0  0  0
  7  2  1  0  0  0  0
  7 27  1  0  0  0  0
  8  5  1  0  0  0  0
  8 28  1  6  0  0  0
  9  8  1  0  0  0  0
 10  9  1  0  0  0  0
 11 10  2  0  0  0  0
 11 29  1  0  0  0  0
 12 11  1  0  0  0  0
 12 30  1  0  0  0  0
 13 12  2  0  0  0  0
 13 31  1  0  0  0  0
 14 13  1  0  0  0  0
 14 32  1  0  0  0  0
 15 14  2  0  0  0  0
 15 10  1  0  0  0  0
 16 15  1  0  0  0  0
 17 16  2  0  0  0  0
 18 16  1  0  0  0  0
 18  8  1  0  0  0  0
 18 33  1  1  0  0  0
 19 18  1  0  0  0  0
 20 19  1  0  0  0  0
 20 34  1  0  0  0  0
 21 20  2  0  0  0  0
 21 35  1  0  0  0  0
 22 21  1  0  0  0  0
 23 22  2  0  0  0  0
 23 19  1  0  0  0  0
 23 36  1  0  0  0  0
M  END
>  <MOL Chiral Flag>
0

>  <energy>
62.235690940479415

$$$$
> 328_AKC_tjpr.v16i2.11
>314.sdf
 OpenBabel10062212353D

 31 33  0  0  0  0  0  0  0  0999 V2000
   -4.9434    2.2783    0.1874 O   0  0  0  0  0  0  0  0  0  0  0  0
   -4.0717    1.2647    0.3663 C   0  0  0  0  0  0  0  0  0  0  0  0
   -4.5000    0.0859    0.9744 C   0  0  0  0  0  0  0  0  0  0  0  0
   -3.6218   -0.9864    1.1855 C   0  0  0  0  0  0  0  0  0  0  0  0
   -4.1349   -2.0859    1.7852 O   0  0  0  0  0  0  0  0  0  0  0  0
   -2.2548   -0.8665    0.7694 C   0  0  0  0  0  0  0  0  0  0  0  0
   -1.2615   -1.8695    0.9438 C   0  0  0  0  0  0  0  0  0  0  0  0
   -1.5066   -2.9387    1.4667 O   0  0  0  0  0  0  0  0  0  0  0  0
    0.0415   -1.6260    0.5129 C   0  0  0  0  0  0  0  0  0  0  0  0
    0.3425   -0.4145   -0.1032 C   0  0  0  0  0  0  0  0  0  0  0  0
   -0.5940    0.5067   -0.2700 O   0  0  0  0  0  0  0  0  0  0  0  0
   -1.8455    0.3424    0.1406 C   0  0  0  0  0  0  0  0  0  0  0  0
   -2.7477    1.3881   -0.0516 C   0  0  0  0  0  0  0  0  0  0  0  0
    1.7006   -0.1289   -0.5554 C   0  0  0  0  0  0  0  0  0  0  0  0
    2.0189   -0.2116   -1.9146 C   0  0  0  0  0  0  0  0  0  0  0  0
    3.3131    0.0841   -2.3472 C   0  0  0  0  0  0  0  0  0  0  0  0
    4.2912    0.4839   -1.4274 C   0  0  0  0  0  0  0  0  0  0  0  0
    5.5293    0.7840   -1.8715 O   0  0  0  0  0  0  0  0  0  0  0  0
    3.9697    0.5743   -0.0589 C   0  0  0  0  0  0  0  0  0  0  0  0
    4.9016    0.9715    0.8325 O   0  0  0  0  0  0  0  0  0  0  0  0
    2.6743    0.2576    0.3718 C   0  0  0  0  0  0  0  0  0  0  0  0
   -4.6764    3.1118   -0.2264 H   0  0  0  0  0  0  0  0  0  0  0  0
   -5.5316   -0.0007    1.2928 H   0  0  0  0  0  0  0  0  0  0  0  0
   -3.6643   -2.8986    1.9876 H   0  0  0  0  0  0  0  0  0  0  0  0
    0.8123   -2.3779    0.6450 H   0  0  0  0  0  0  0  0  0  0  0  0
   -2.4126    2.3038   -0.5242 H   0  0  0  0  0  0  0  0  0  0  0  0
    1.2667   -0.5131   -2.6341 H   0  0  0  0  0  0  0  0  0  0  0  0
    3.5546    0.0102   -3.3999 H   0  0  0  0  0  0  0  0  0  0  0  0
    6.2313    1.0801   -1.2755 H   0  0  0  0  0  0  0  0  0  0  0  0
    4.6996    1.0580    1.7753 H   0  0  0  0  0  0  0  0  0  0  0  0
    2.4194    0.3331    1.4228 H   0  0  0  0  0  0  0  0  0  0  0  0
  1 22  1  0  0  0  0
  2  1  1  0  0  0  0
  3  2  2  0  0  0  0
  3 23  1  0  0  0  0
  4  3  1  0  0  0  0
  5  4  1  0  0  0  0
  5 24  1  0  0  0  0
  6  4  2  0  0  0  0
  7  6  1  0  0  0  0
  8  7  2  0  0  0  0
  9  7  1  0  0  0  0
  9 25  1  0  0  0  0
 10  9  2  0  0  0  0
 11 10  1  0  0  0  0
 12 11  1  0  0  0  0
 12  6  1  0  0  0  0
 13 12  2  0  0  0  0
 13  2  1  0  0  0  0
 13 26  1  0  0  0  0
 14 10  1  0  0  0  0
 15 14  2  0  0  0  0
 15 27  1  0  0  0  0
 16 15  1  0  0  0  0
 16 28  1  0  0  0  0
 17 16  2  0  0  0  0
 18 17  1  0  0  0  0
 18 29  1  0  0  0  0
 19 17  1  0  0  0  0
 20 19  1  0  0  0  0
 20 30  1  0  0  0  0
 21 19  2  0  0  0  0
 21 14  1  0  0  0  0
 21 31  1  0  0  0  0
M  END
>  <MOL Chiral Flag>
0

>  <energy>
20.413725743971852

$$$$
> 329_AKC_j.bioorg.2016.11.013
>315.sdf
 OpenBabel10062212353D

 58 63  0  0  0  0  0  0  0  0999 V2000
   -3.6898    5.2480   -3.4865 C   0  0  0  0  0  0  0  0  0  0  0  0
   -3.4144    4.2057   -2.6187 O   0  0  0  0  0  0  0  0  0  0  0  0
   -4.1768    3.1014   -2.3837 C   0  0  0  0  0  0  0  0  0  0  0  0
   -3.9631    2.3667   -1.1909 C   0  0  0  0  0  0  0  0  0  0  0  0
   -4.7909    1.2544   -0.9137 C   0  0  0  0  0  0  0  0  0  0  0  0
   -5.7802    0.8612   -1.8129 C   0  0  0  0  0  0  0  0  0  0  0  0
   -5.9728    1.5690   -2.9948 C   0  0  0  0  0  0  0  0  0  0  0  0
   -5.1852    2.6835   -3.2824 C   0  0  0  0  0  0  0  0  0  0  0  0
   -2.9238    2.7575   -0.2749 N   0  0  0  0  0  0  0  0  0  0  0  0
   -1.5515    2.6685   -0.7872 C   0  0  0  0  0  0  0  0  0  0  0  0
   -0.5651    3.3932    0.1323 C   0  0  0  0  0  0  0  0  0  0  0  0
   -0.7790    2.9433    1.5038 N   0  0  0  0  0  0  0  0  0  0  0  0
   -2.1194    3.2105    2.0111 C   0  0  0  0  0  0  0  0  0  0  0  0
   -3.1049    2.4281    1.1393 C   0  0  0  0  0  0  0  0  0  0  0  0
    0.1435    2.2806    2.3007 C   0  0  0  0  0  0  0  0  0  0  0  0
   -0.1546    2.0544    3.4670 O   0  0  0  0  0  0  0  0  0  0  0  0
    1.4701    1.7328    1.8372 C   0  0  0  0  0  0  0  0  0  0  0  0
    2.3239    1.1246    2.7820 C   0  0  0  0  0  0  0  0  0  0  0  0
    3.4989    0.5545    2.3236 C   0  0  0  0  0  0  0  0  0  0  0  0
    3.8528    0.5585    0.9894 C   0  0  0  0  0  0  0  0  0  0  0  0
    5.0503   -0.0635    0.8305 N   0  0  0  0  0  0  0  0  0  0  0  0
    5.4284   -0.4636    2.0636 C   0  0  0  0  0  0  0  0  0  0  0  0
    6.5863   -1.1559    2.4119 C   0  0  0  0  0  0  0  0  0  0  0  0
    6.7797   -1.4787    3.7689 C   0  0  0  0  0  0  0  0  0  0  0  0
    5.8192   -1.1023    4.7372 C   0  0  0  0  0  0  0  0  0  0  0  0
    4.6601   -0.4017    4.3539 C   0  0  0  0  0  0  0  0  0  0  0  0
    4.4976   -0.0995    3.0030 C   0  0  0  0  0  0  0  0  0  0  0  0
    2.9942    1.1613    0.0407 C   0  0  0  0  0  0  0  0  0  0  0  0
    1.8370    1.7210    0.5180 N   0  0  0  0  0  0  0  0  0  0  0  0
    3.2194    1.2268   -1.4327 C   0  0  0  0  0  0  0  0  0  0  0  0
    4.1918    0.6286   -2.2558 C   0  0  0  0  0  0  0  0  0  0  0  0
    4.0383    0.9415   -3.6351 C   0  0  0  0  0  0  0  0  0  0  0  0
    2.9556    1.7756   -3.9066 C   0  0  0  0  0  0  0  0  0  0  0  0
    2.2285    2.0907   -2.4551 S   0  0  0  0  0  0  0  0  0  0  0  0
   -4.6996    5.2024   -3.9364 H   0  0  0  0  0  0  0  0  0  0  0  0
   -3.6428    6.2002   -2.9186 H   0  0  0  0  0  0  0  0  0  0  0  0
   -2.9233    5.2757   -4.2871 H   0  0  0  0  0  0  0  0  0  0  0  0
   -4.6606    0.6712   -0.0135 H   0  0  0  0  0  0  0  0  0  0  0  0
   -6.3955   -0.0022   -1.5943 H   0  0  0  0  0  0  0  0  0  0  0  0
   -6.7392    1.2546   -3.6916 H   0  0  0  0  0  0  0  0  0  0  0  0
   -5.3679    3.2038   -4.2098 H   0  0  0  0  0  0  0  0  0  0  0  0
   -1.4535    3.0890   -1.8079 H   0  0  0  0  0  0  0  0  0  0  0  0
   -1.2624    1.5954   -0.8376 H   0  0  0  0  0  0  0  0  0  0  0  0
    0.4523    3.3013   -0.2552 H   0  0  0  0  0  0  0  0  0  0  0  0
   -0.7754    4.4848    0.0890 H   0  0  0  0  0  0  0  0  0  0  0  0
   -2.2728    2.9029    3.0670 H   0  0  0  0  0  0  0  0  0  0  0  0
   -2.3291    4.3016    1.9517 H   0  0  0  0  0  0  0  0  0  0  0  0
   -2.9211    1.3419    1.2942 H   0  0  0  0  0  0  0  0  0  0  0  0
   -4.1387    2.6757    1.4668 H   0  0  0  0  0  0  0  0  0  0  0  0
    2.0762    1.0861    3.8353 H   0  0  0  0  0  0  0  0  0  0  0  0
    5.6092   -0.2270   -0.0250 H   0  0  0  0  0  0  0  0  0  0  0  0
    7.3142   -1.4403    1.6631 H   0  0  0  0  0  0  0  0  0  0  0  0
    7.6672   -2.0181    4.0727 H   0  0  0  0  0  0  0  0  0  0  0  0
    5.9756   -1.3548    5.7778 H   0  0  0  0  0  0  0  0  0  0  0  0
    3.9196   -0.1106    5.0875 H   0  0  0  0  0  0  0  0  0  0  0  0
    4.9796   -0.0194   -1.9374 H   0  0  0  0  0  0  0  0  0  0  0  0
    4.6980    0.5617   -4.4039 H   0  0  0  0  0  0  0  0  0  0  0  0
    2.6504    2.1377   -4.8789 H   0  0  0  0  0  0  0  0  0  0  0  0
  1 35  1  0  0  0  0
  1 36  1  0  0  0  0
  1 37  1  0  0  0  0
  2  1  1  0  0  0  0
  3  2  1  0  0  0  0
  4  3  2  0  0  0  0
  5  4  1  0  0  0  0
  5 38  1  0  0  0  0
  6  5  2  0  0  0  0
  6 39  1  0  0  0  0
  7  6  1  0  0  0  0
  7 40  1  0  0  0  0
  8  7  2  0  0  0  0
  8  3  1  0  0  0  0
  8 41  1  0  0  0  0
  9  4  1  0  0  0  0
 10  9  1  0  0  0  0
 10 42  1  0  0  0  0
 10 43  1  0  0  0  0
 11 10  1  0  0  0  0
 11 44  1  0  0  0  0
 11 45  1  0  0  0  0
 12 11  1  0  0  0  0
 13 12  1  0  0  0  0
 13 46  1  0  0  0  0
 13 47  1  0  0  0  0
 14 13  1  0  0  0  0
 14  9  1  0  0  0  0
 14 48  1  0  0  0  0
 14 49  1  0  0  0  0
 15 12  1  0  0  0  0
 16 15  2  0  0  0  0
 17 15  1  0  0  0  0
 18 17  2  0  0  0  0
 18 50  1  0  0  0  0
 19 18  1  0  0  0  0
 20 19  2  0  0  0  0
 21 20  1  0  0  0  0
 21 51  1  0  0  0  0
 22 21  1  0  0  0  0
 23 22  2  0  0  0  0
 23 52  1  0  0  0  0
 24 23  1  0  0  0  0
 24 53  1  0  0  0  0
 25 24  2  0  0  0  0
 25 54  1  0  0  0  0
 26 25  1  0  0  0  0
 26 55  1  0  0  0  0
 27 26  2  0  0  0  0
 27 19  1  0  0  0  0
 27 22  1  0  0  0  0
 28 20  1  0  0  0  0
 29 28  2  0  0  0  0
 29 17  1  0  0  0  0
 30 28  1  0  0  0  0
 31 30  2  0  0  0  0
 31 56  1  0  0  0  0
 32 31  1  0  0  0  0
 32 57  1  0  0  0  0
 33 32  2  0  0  0  0
 33 58  1  0  0  0  0
 34 33  1  0  0  0  0
 34 30  1  0  0  0  0
M  END
>  <MOL Chiral Flag>
0

>  <energy>
175.63651188948469

$$$$
> 330_AKC_journal.pntd.0006157
>316.sdf
 OpenBabel10062212363D

 74 78  0  0  0  0  0  0  0  0999 V2000
   -1.7313    5.7474   -0.0785 C   0  0  0  0  0  0  0  0  0  0  0  0
   -0.5710    4.7486   -0.1042 C   0  0  0  0  0  0  0  0  0  0  0  0
   -0.9962    3.2671    0.1372 C   0  0  1  0  0  0  0  0  0  0  0  0
   -1.9369    2.7969   -1.0083 C   0  0  0  0  0  0  0  0  0  0  0  0
   -2.4217    1.4215   -0.7842 N   0  3  1  0  0  0  0  0  0  0  0  0
   -3.3542    1.0284   -1.8555 C   0  0  0  0  0  0  0  0  0  0  0  0
   -4.1294   -0.2185   -1.4296 C   0  0  0  0  0  0  0  0  0  0  0  0
   -3.2398   -1.2541   -0.7895 C   0  0  0  0  0  0  0  0  0  0  0  0
   -3.7924   -2.5002   -0.4720 C   0  0  0  0  0  0  0  0  0  0  0  0
   -3.0118   -3.5122    0.1080 C   0  0  0  0  0  0  0  0  0  0  0  0
   -3.5746   -4.6978    0.4528 O   0  0  0  0  0  0  0  0  0  0  0  0
   -4.7749   -4.8005    1.1316 C   0  0  0  0  0  0  0  0  0  0  0  0
   -1.6342   -3.2792    0.3451 C   0  0  0  0  0  0  0  0  0  0  0  0
   -0.7904   -4.2058    0.8783 O   0  0  0  0  0  0  0  0  0  0  0  0
   -0.9786   -5.5717    0.9506 C   0  0  0  0  0  0  0  0  0  0  0  0
   -1.0952   -2.0188    0.0539 C   0  0  0  0  0  0  0  0  0  0  0  0
   -1.8834   -0.9833   -0.4874 C   0  0  0  0  0  0  0  0  0  0  0  0
   -1.3107    0.4299   -0.7278 C   0  0  2  0  0  0  0  0  0  0  0  0
   -0.3044    0.8526    0.3652 C   0  0  0  0  0  0  0  0  0  0  0  0
    0.2259    2.2988    0.1684 C   0  0  2  0  0  0  0  0  0  0  0  0
    1.2732    2.5837    1.2906 C   0  0  0  0  0  0  0  0  0  0  0  0
    2.7733    2.2266    0.9761 C   0  0  1  0  0  0  0  0  0  0  0  0
    3.6292    2.5055    2.1573 N   0  3  0  0  0  0  0  0  0  0  0  0
    3.5493    1.4202    3.1433 C   0  0  0  0  0  0  0  0  0  0  0  0
    4.1800    0.1421    2.5866 C   0  0  0  0  0  0  0  0  0  0  0  0
    3.7673   -0.1286    1.1631 C   0  0  0  0  0  0  0  0  0  0  0  0
    4.1221   -1.3519    0.5778 C   0  0  0  0  0  0  0  0  0  0  0  0
    3.8006   -1.6345   -0.7577 C   0  0  0  0  0  0  0  0  0  0  0  0
    4.1601   -2.8223   -1.2878 O   0  0  0  0  0  0  0  0  0  0  0  0
    3.1207   -0.6647   -1.5341 C   0  0  0  0  0  0  0  0  0  0  0  0
    2.7879   -0.8384   -2.8444 O   0  0  0  0  0  0  0  0  0  0  0  0
    3.0413   -1.9400   -3.6336 C   0  0  0  0  0  0  0  0  0  0  0  0
    2.7811    0.5569   -0.9464 C   0  0  0  0  0  0  0  0  0  0  0  0
    3.0813    0.8413    0.3993 C   0  0  0  0  0  0  0  0  0  0  0  0
   -1.3284    6.7759   -0.1946 H   0  0  0  0  0  0  0  0  0  0  0  0
   -2.2666    5.6866    0.8930 H   0  0  0  0  0  0  0  0  0  0  0  0
   -2.4452    5.5847   -0.9084 H   0  0  0  0  0  0  0  0  0  0  0  0
    0.1065    5.0986    0.6931 H   0  0  0  0  0  0  0  0  0  0  0  0
   -0.0347    4.8364   -1.0741 H   0  0  0  0  0  0  0  0  0  0  0  0
   -1.5353    3.2073    1.1096 H   0  0  0  0  0  0  0  0  0  0  0  0
   -1.4085    2.8662   -1.9874 H   0  0  0  0  0  0  0  0  0  0  0  0
   -2.8213    3.4646   -1.0495 H   0  0  0  0  0  0  0  0  0  0  0  0
   -2.9419    1.4279    0.1281 H   0  0  0  0  0  0  0  0  0  0  0  0
   -2.7816    0.8210   -2.7905 H   0  0  0  0  0  0  0  0  0  0  0  0
   -4.0938    1.8258   -2.0924 H   0  0  0  0  0  0  0  0  0  0  0  0
   -4.6339   -0.6280   -2.3333 H   0  0  0  0  0  0  0  0  0  0  0  0
   -4.9072    0.0542   -0.6852 H   0  0  0  0  0  0  0  0  0  0  0  0
   -4.8375   -2.6768   -0.6907 H   0  0  0  0  0  0  0  0  0  0  0  0
   -5.0256   -5.8715    1.2709 H   0  0  0  0  0  0  0  0  0  0  0  0
   -5.6102   -4.3120    0.5921 H   0  0  0  0  0  0  0  0  0  0  0  0
   -4.6657   -4.3387    2.1382 H   0  0  0  0  0  0  0  0  0  0  0  0
   -0.0946   -6.0240    1.4441 H   0  0  0  0  0  0  0  0  0  0  0  0
   -1.0573   -5.9893   -0.0759 H   0  0  0  0  0  0  0  0  0  0  0  0
   -1.8606   -5.8423    1.5631 H   0  0  0  0  0  0  0  0  0  0  0  0
   -0.0522   -1.8634    0.2779 H   0  0  0  0  0  0  0  0  0  0  0  0
   -0.7437    0.4147   -1.6871 H   0  0  0  0  0  0  0  0  0  0  0  0
    0.5507    0.1605    0.3766 H   0  0  0  0  0  0  0  0  0  0  0  0
   -0.8102    0.7824    1.3547 H   0  0  0  0  0  0  0  0  0  0  0  0
    0.7107    2.4408   -0.8138 H   0  0  0  0  0  0  0  0  0  0  0  0
    0.9043    2.1305    2.2330 H   0  0  0  0  0  0  0  0  0  0  0  0
    1.3273    3.6600    1.5100 H   0  0  0  0  0  0  0  0  0  0  0  0
    3.0907    2.9461    0.1858 H   0  0  0  0  0  0  0  0  0  0  0  0
    3.3462    3.4080    2.6058 H   0  0  0  0  0  0  0  0  0  0  0  0
    4.6270    2.6110    1.8544 H   0  0  0  0  0  0  0  0  0  0  0  0
    2.4907    1.2196    3.4059 H   0  0  0  0  0  0  0  0  0  0  0  0
    4.0694    1.6991    4.0860 H   0  0  0  0  0  0  0  0  0  0  0  0
    3.8954   -0.6985    3.2558 H   0  0  0  0  0  0  0  0  0  0  0  0
    5.2882    0.2322    2.5882 H   0  0  0  0  0  0  0  0  0  0  0  0
    4.6582   -2.0884    1.1646 H   0  0  0  0  0  0  0  0  0  0  0  0
    4.6364   -3.4905   -0.7748 H   0  0  0  0  0  0  0  0  0  0  0  0
    2.6405   -1.7495   -4.6505 H   0  0  0  0  0  0  0  0  0  0  0  0
    2.5297   -2.8358   -3.2233 H   0  0  0  0  0  0  0  0  0  0  0  0
    4.1354   -2.1092   -3.7218 H   0  0  0  0  0  0  0  0  0  0  0  0
    2.3050    1.2968   -1.5676 H   0  0  0  0  0  0  0  0  0  0  0  0
  1 35  1  0  0  0  0
  1 36  1  0  0  0  0
  1 37  1  0  0  0  0
  2  1  1  0  0  0  0
  2 38  1  0  0  0  0
  2 39  1  0  0  0  0
  3  2  1  0  0  0  0
  3 40  1  1  0  0  0
  4  3  1  0  0  0  0
  4 41  1  0  0  0  0
  4 42  1  0  0  0  0
  5  4  1  0  0  0  0
  5 43  1  1  0  0  0
  6  5  1  0  0  0  0
  6 44  1  0  0  0  0
  6 45  1  0  0  0  0
  7  6  1  0  0  0  0
  7 46  1  0  0  0  0
  7 47  1  0  0  0  0
  8  7  1  0  0  0  0
  9  8  2  0  0  0  0
  9 48  1  0  0  0  0
 10  9  1  0  0  0  0
 11 10  1  0  0  0  0
 12 11  1  0  0  0  0
 12 49  1  0  0  0  0
 12 50  1  0  0  0  0
 12 51  1  0  0  0  0
 13 10  2  0  0  0  0
 14 13  1  0  0  0  0
 15 14  1  0  0  0  0
 15 52  1  0  0  0  0
 15 53  1  0  0  0  0
 15 54  1  0  0  0  0
 16 13  1  0  0  0  0
 16 55  1  0  0  0  0
 17 16  2  0  0  0  0
 17  8  1  0  0  0  0
 18 17  1  0  0  0  0
 18  5  1  0  0  0  0
 18 56  1  6  0  0  0
 19 18  1  0  0  0  0
 19 57  1  0  0  0  0
 19 58  1  0  0  0  0
 20 19  1  0  0  0  0
 20  3  1  0  0  0  0
 20 59  1  6  0  0  0
 21 20  1  0  0  0  0
 21 60  1  0  0  0  0
 21 61  1  0  0  0  0
 22 21  1  0  0  0  0
 22 62  1  6  0  0  0
 23 22  1  0  0  0  0
 23 63  1  0  0  0  0
 23 64  1  0  0  0  0
 24 23  1  0  0  0  0
 24 65  1  0  0  0  0
 24 66  1  0  0  0  0
 25 24  1  0  0  0  0
 25 67  1  0  0  0  0
 25 68  1  0  0  0  0
 26 25  1  0  0  0  0
 27 26  2  0  0  0  0
 27 69  1  0  0  0  0
 28 27  1  0  0  0  0
 29 28  1  0  0  0  0
 29 70  1  0  0  0  0
 30 28  2  0  0  0  0
 31 30  1  0  0  0  0
 32 31  1  0  0  0  0
 32 71  1  0  0  0  0
 32 72  1  0  0  0  0
 32 73  1  0  0  0  0
 33 30  1  0  0  0  0
 33 74  1  0  0  0  0
 34 33  2  0  0  0  0
 34 22  1  0  0  0  0
 34 26  1  0  0  0  0
M  CHG  2   5   1  23   1
M  END
>  <MOL Chiral Flag>
0

>  <energy>
129.90959620787163

$$$$
> 331_AKC_journal.pntd.0006157
>317.sdf
 OpenBabel10062212363D

 43 46  0  0  0  0  0  0  0  0999 V2000
    0.7378    4.4286    1.2903 F   0  0  0  0  0  0  0  0  0  0  0  0
    1.9118    3.9580    0.7977 C   0  0  0  0  0  0  0  0  0  0  0  0
    2.0342    2.6034    0.4093 C   0  0  0  0  0  0  0  0  0  0  0  0
    0.8807    1.7447    0.5503 N   0  0  0  0  0  0  0  0  0  0  0  0
    0.7777    0.3496    0.2478 C   0  0  0  0  0  0  0  0  0  0  0  0
   -0.4236   -0.2758    0.3985 N   0  0  0  0  0  0  0  0  0  0  0  0
   -0.6034   -1.5902    0.0822 C   0  0  0  0  0  0  0  0  0  0  0  0
   -1.8915   -2.1858    0.2499 N   0  0  0  0  0  0  0  0  0  0  0  0
   -2.7975   -1.7661    1.3037 C   0  0  0  0  0  0  0  0  0  0  0  0
   -4.1433   -1.3136    0.7939 C   0  0  0  0  0  0  0  0  0  0  0  0
   -4.6681   -0.0801    1.2194 C   0  0  0  0  0  0  0  0  0  0  0  0
   -5.9395    0.3271    0.8065 C   0  0  0  0  0  0  0  0  0  0  0  0
   -6.6933   -0.4850   -0.0432 C   0  0  0  0  0  0  0  0  0  0  0  0
   -6.1781   -1.7091   -0.4793 C   0  0  0  0  0  0  0  0  0  0  0  0
   -4.9106   -2.1289   -0.0580 C   0  0  0  0  0  0  0  0  0  0  0  0
    0.5049   -2.3402   -0.3869 C   0  0  0  0  0  0  0  0  0  0  0  0
    0.4372   -3.7161   -0.7014 C   0  0  0  0  0  0  0  0  0  0  0  0
    1.5863   -4.4021   -1.1086 C   0  0  0  0  0  0  0  0  0  0  0  0
    2.8079   -3.7350   -1.2084 C   0  0  0  0  0  0  0  0  0  0  0  0
    2.8885   -2.3758   -0.9062 C   0  0  0  0  0  0  0  0  0  0  0  0
    1.7468   -1.6782   -0.4960 C   0  0  0  0  0  0  0  0  0  0  0  0
    1.8434   -0.3638   -0.1883 N   0  0  0  0  0  0  0  0  0  0  0  0
    3.2870    2.1725   -0.1040 C   0  0  0  0  0  0  0  0  0  0  0  0
    4.3579    3.0657   -0.2110 C   0  0  0  0  0  0  0  0  0  0  0  0
    4.2126    4.3928    0.1824 C   0  0  0  0  0  0  0  0  0  0  0  0
    2.9928    4.8384    0.6843 C   0  0  0  0  0  0  0  0  0  0  0  0
    0.0148    2.1836    0.8991 H   0  0  0  0  0  0  0  0  0  0  0  0
   -2.1415   -3.0333   -0.2748 H   0  0  0  0  0  0  0  0  0  0  0  0
   -2.3373   -0.9755    1.9347 H   0  0  0  0  0  0  0  0  0  0  0  0
   -2.9619   -2.6453    1.9624 H   0  0  0  0  0  0  0  0  0  0  0  0
   -4.1024    0.5547    1.8900 H   0  0  0  0  0  0  0  0  0  0  0  0
   -6.3430    1.2700    1.1529 H   0  0  0  0  0  0  0  0  0  0  0  0
   -7.6790   -0.1678   -0.3591 H   0  0  0  0  0  0  0  0  0  0  0  0
   -6.7660   -2.3367   -1.1367 H   0  0  0  0  0  0  0  0  0  0  0  0
   -4.5320   -3.0859   -0.3929 H   0  0  0  0  0  0  0  0  0  0  0  0
   -0.4793   -4.2779   -0.6228 H   0  0  0  0  0  0  0  0  0  0  0  0
    1.5302   -5.4582   -1.3386 H   0  0  0  0  0  0  0  0  0  0  0  0
    3.6950   -4.2739   -1.5153 H   0  0  0  0  0  0  0  0  0  0  0  0
    3.8414   -1.8656   -0.9794 H   0  0  0  0  0  0  0  0  0  0  0  0
    3.4777    1.1732   -0.4320 H   0  0  0  0  0  0  0  0  0  0  0  0
    5.3074    2.7235   -0.6037 H   0  0  0  0  0  0  0  0  0  0  0  0
    5.0469    5.0773    0.0965 H   0  0  0  0  0  0  0  0  0  0  0  0
    2.8830    5.8717    0.9873 H   0  0  0  0  0  0  0  0  0  0  0  0
  2  1  1  0  0  0  0
  3  2  2  0  0  0  0
  4  3  1  0  0  0  0
  4 27  1  0  0  0  0
  5  4  1  0  0  0  0
  6  5  2  0  0  0  0
  7  6  1  0  0  0  0
  8  7  1  0  0  0  0
  8 28  1  0  0  0  0
  9  8  1  0  0  0  0
  9 29  1  0  0  0  0
  9 30  1  0  0  0  0
 10  9  1  0  0  0  0
 11 10  2  0  0  0  0
 11 31  1  0  0  0  0
 12 11  1  0  0  0  0
 12 32  1  0  0  0  0
 13 12  2  0  0  0  0
 13 33  1  0  0  0  0
 14 13  1  0  0  0  0
 14 34  1  0  0  0  0
 15 14  2  0  0  0  0
 15 10  1  0  0  0  0
 15 35  1  0  0  0  0
 16  7  2  0  0  0  0
 17 16  1  0  0  0  0
 17 36  1  0  0  0  0
 18 17  2  0  0  0  0
 18 37  1  0  0  0  0
 19 18  1  0  0  0  0
 19 38  1  0  0  0  0
 20 19  2  0  0  0  0
 20 39  1  0  0  0  0
 21 20  1  0  0  0  0
 21 16  1  0  0  0  0
 22 21  2  0  0  0  0
 22  5  1  0  0  0  0
 23  3  1  0  0  0  0
 23 40  1  0  0  0  0
 24 23  2  0  0  0  0
 24 41  1  0  0  0  0
 25 24  1  0  0  0  0
 25 42  1  0  0  0  0
 26 25  2  0  0  0  0
 26  2  1  0  0  0  0
 26 43  1  0  0  0  0
M  END
>  <MOL Chiral Flag>
0

>  <energy>
-11.583762500900377

$$$$
> 332_AKC_journal.pntd.0006157
>318.sdf
 OpenBabel10062212373D

 53 56  0  0  0  0  0  0  0  0999 V2000
    3.4169    5.1371    1.2556 C   0  0  0  0  0  0  0  0  0  0  0  0
    4.4288    4.5864    0.4930 O   0  0  0  0  0  0  0  0  0  0  0  0
    4.4200    3.3273   -0.0225 C   0  0  0  0  0  0  0  0  0  0  0  0
    5.5120    2.9029   -0.7839 C   0  0  0  0  0  0  0  0  0  0  0  0
    5.5382    1.6174   -1.3370 C   0  0  0  0  0  0  0  0  0  0  0  0
    4.4704    0.7189   -1.1388 C   0  0  0  0  0  0  0  0  0  0  0  0
    4.5408   -0.5782   -1.7661 N   0  0  0  0  0  0  0  0  0  0  0  0
    3.5772   -1.6374   -1.6629 C   0  0  0  0  0  0  0  0  0  0  0  0
    2.6293   -1.6485   -0.6913 N   0  0  0  0  0  0  0  0  0  0  0  0
    1.6600   -2.6017   -0.6298 C   0  0  0  0  0  0  0  0  0  0  0  0
    0.7063   -2.5430    0.4304 N   0  0  0  0  0  0  0  0  0  0  0  0
   -0.6674   -2.9612    0.3773 C   0  0  0  0  0  0  0  0  0  0  0  0
   -1.3060   -3.3545   -0.8154 C   0  0  0  0  0  0  0  0  0  0  0  0
   -2.6857   -3.6287   -0.8292 C   0  0  0  0  0  0  0  0  0  0  0  0
   -3.4593   -3.5324    0.3512 C   0  0  0  0  0  0  0  0  0  0  0  0
   -4.8826   -3.7628    0.3727 N   0  0  0  0  0  0  0  0  0  0  0  0
   -5.8705   -3.9893   -1.0824 S   0  0  0  0  0  0  0  0  0  0  0  0
   -5.1581   -5.0949   -1.8744 O   0  0  0  0  0  0  0  0  0  0  0  0
   -5.5688   -2.7664   -1.9622 O   0  0  0  0  0  0  0  0  0  0  0  0
   -7.6480   -4.3492   -1.0783 C   0  0  0  0  0  0  0  0  0  0  0  0
   -8.0833   -5.6823   -1.1316 C   0  0  0  0  0  0  0  0  0  0  0  0
   -9.4468   -5.9804   -1.2360 C   0  0  0  0  0  0  0  0  0  0  0  0
  -10.3889   -4.9493   -1.2868 C   0  0  0  0  0  0  0  0  0  0  0  0
  -12.0954   -5.3287   -1.4551 Cl  0  0  0  0  0  0  0  0  0  0  0  0
   -9.9669   -3.6167   -1.2196 C   0  0  0  0  0  0  0  0  0  0  0  0
   -8.5999   -3.3143   -1.1159 C   0  0  0  0  0  0  0  0  0  0  0  0
   -2.8067   -3.1717    1.5416 C   0  0  0  0  0  0  0  0  0  0  0  0
   -1.4366   -2.8821    1.5509 C   0  0  0  0  0  0  0  0  0  0  0  0
    1.6523   -3.6081   -1.5470 N   0  0  0  0  0  0  0  0  0  0  0  0
    2.6126   -3.6738   -2.5105 C   0  0  0  0  0  0  0  0  0  0  0  0
    3.5990   -2.6872   -2.5878 C   0  0  0  0  0  0  0  0  0  0  0  0
    3.3661    1.1603   -0.3712 C   0  0  0  0  0  0  0  0  0  0  0  0
    3.3458    2.4435    0.1794 C   0  0  0  0  0  0  0  0  0  0  0  0
    3.6939    6.1738    1.5359 H   0  0  0  0  0  0  0  0  0  0  0  0
    2.4701    5.1715    0.6746 H   0  0  0  0  0  0  0  0  0  0  0  0
    3.2717    4.5476    2.1863 H   0  0  0  0  0  0  0  0  0  0  0  0
    6.3439    3.5758   -0.9533 H   0  0  0  0  0  0  0  0  0  0  0  0
    6.3951    1.3216   -1.9296 H   0  0  0  0  0  0  0  0  0  0  0  0
    5.3247   -0.7306   -2.4203 H   0  0  0  0  0  0  0  0  0  0  0  0
    0.9932   -2.0104    1.2661 H   0  0  0  0  0  0  0  0  0  0  0  0
   -0.7665   -3.4101   -1.7474 H   0  0  0  0  0  0  0  0  0  0  0  0
   -3.1316   -3.8927   -1.7713 H   0  0  0  0  0  0  0  0  0  0  0  0
   -5.3827   -3.6768    1.2706 H   0  0  0  0  0  0  0  0  0  0  0  0
   -7.3643   -6.4898   -1.1166 H   0  0  0  0  0  0  0  0  0  0  0  0
   -9.7694   -7.0126   -1.2950 H   0  0  0  0  0  0  0  0  0  0  0  0
  -10.6977   -2.8179   -1.2658 H   0  0  0  0  0  0  0  0  0  0  0  0
   -8.2866   -2.2791   -1.0891 H   0  0  0  0  0  0  0  0  0  0  0  0
   -3.3668   -3.0840    2.4640 H   0  0  0  0  0  0  0  0  0  0  0  0
   -0.9710   -2.5731    2.4791 H   0  0  0  0  0  0  0  0  0  0  0  0
    2.6077   -4.4864   -3.2254 H   0  0  0  0  0  0  0  0  0  0  0  0
    4.3506   -2.7260   -3.3676 H   0  0  0  0  0  0  0  0  0  0  0  0
    2.5011    0.5573   -0.1922 H   0  0  0  0  0  0  0  0  0  0  0  0
    2.4814    2.7426    0.7563 H   0  0  0  0  0  0  0  0  0  0  0  0
  1 34  1  0  0  0  0
  1 35  1  0  0  0  0
  1 36  1  0  0  0  0
  2  1  1  0  0  0  0
  3  2  1  0  0  0  0
  4  3  2  0  0  0  0
  4 37  1  0  0  0  0
  5  4  1  0  0  0  0
  5 38  1  0  0  0  0
  6  5  2  0  0  0  0
  7  6  1  0  0  0  0
  7 39  1  0  0  0  0
  8  7  1  0  0  0  0
  9  8  2  0  0  0  0
 10  9  1  0  0  0  0
 11 10  1  0  0  0  0
 11 40  1  0  0  0  0
 12 11  1  0  0  0  0
 13 12  2  0  0  0  0
 13 41  1  0  0  0  0
 14 13  1  0  0  0  0
 14 42  1  0  0  0  0
 15 14  2  0  0  0  0
 16 15  1  0  0  0  0
 16 43  1  0  0  0  0
 17 16  1  0  0  0  0
 18 17  2  0  0  0  0
 19 17  2  0  0  0  0
 20 17  1  0  0  0  0
 21 20  2  0  0  0  0
 21 44  1  0  0  0  0
 22 21  1  0  0  0  0
 22 45  1  0  0  0  0
 23 22  2  0  0  0  0
 24 23  1  0  0  0  0
 25 23  1  0  0  0  0
 25 46  1  0  0  0  0
 26 25  2  0  0  0  0
 26 20  1  0  0  0  0
 26 47  1  0  0  0  0
 27 15  1  0  0  0  0
 27 48  1  0  0  0  0
 28 27  2  0  0  0  0
 28 12  1  0  0  0  0
 28 49  1  0  0  0  0
 29 10  2  0  0  0  0
 30 29  1  0  0  0  0
 30 50  1  0  0  0  0
 31 30  2  0  0  0  0
 31  8  1  0  0  0  0
 31 51  1  0  0  0  0
 32  6  1  0  0  0  0
 32 52  1  0  0  0  0
 33 32  2  0  0  0  0
 33  3  1  0  0  0  0
 33 53  1  0  0  0  0
M  END
>  <MOL Chiral Flag>
0

>  <energy>
-63.404797137831054

$$$$
> 333_AKC_journal.pntd.0006157
>319.sdf
 OpenBabel10062212373D

 61 64  0  0  0  0  0  0  0  0999 V2000
   -7.5217    1.0778    0.3329 C   0  0  0  0  0  0  0  0  0  0  0  0
   -6.2952    1.1954    0.9503 O   0  0  0  0  0  0  0  0  0  0  0  0
   -5.1594    0.5554    0.5678 C   0  0  0  0  0  0  0  0  0  0  0  0
   -5.1798   -0.6320   -0.2045 C   0  0  0  0  0  0  0  0  0  0  0  0
   -3.9789   -1.2449   -0.5969 C   0  0  0  0  0  0  0  0  0  0  0  0
   -2.7543   -0.6496   -0.2677 C   0  0  0  0  0  0  0  0  0  0  0  0
   -2.7432    0.5203    0.5054 C   0  0  0  0  0  0  0  0  0  0  0  0
   -3.9227    1.1065    0.9416 C   0  0  0  0  0  0  0  0  0  0  0  0
   -3.8426    2.2144    1.7137 O   0  0  0  0  0  0  0  0  0  0  0  0
   -4.2369    2.2164    3.0355 C   0  0  0  0  0  0  0  0  0  0  0  0
   -1.4391   -1.2316   -0.6269 C   0  0  0  0  0  0  0  0  0  0  0  0
   -0.4425   -0.4566   -1.2753 C   0  0  0  0  0  0  0  0  0  0  0  0
    0.7915   -0.9241   -1.3587 O   0  0  0  0  0  0  0  0  0  0  0  0
    1.1864   -2.0836   -0.8599 C   0  0  0  0  0  0  0  0  0  0  0  0
    0.2447   -2.9492   -0.2727 C   0  0  0  0  0  0  0  0  0  0  0  0
    0.6715   -4.1784    0.2567 C   0  0  0  0  0  0  0  0  0  0  0  0
    2.0253   -4.5168    0.2345 C   0  0  0  0  0  0  0  0  0  0  0  0
    2.9760   -3.6353   -0.3030 C   0  0  0  0  0  0  0  0  0  0  0  0
    4.2845   -3.9695   -0.2832 O   0  0  0  0  0  0  0  0  0  0  0  0
    2.5640   -2.4041   -0.8632 C   0  0  0  0  0  0  0  0  0  0  0  0
    3.5997   -1.4175   -1.4257 C   0  0  0  0  0  0  0  0  0  0  0  0
    3.4643   -0.0261   -0.9087 N   0  3  2  0  0  0  0  0  0  0  0  0
    4.5447    0.8438   -1.4148 C   0  0  0  0  0  0  0  0  0  0  0  0
    4.2551    2.3074   -1.0267 C   0  0  0  0  0  0  0  0  0  0  0  0
    4.1257    2.4515    0.4404 N   0  3  1  0  0  0  0  0  0  0  0  0
    3.7604    3.8392    0.7763 C   0  0  0  0  0  0  0  0  0  0  0  0
    3.1092    1.5213    0.9784 C   0  0  0  0  0  0  0  0  0  0  0  0
    3.4169    0.0691    0.5671 C   0  0  0  0  0  0  0  0  0  0  0  0
   -1.0936   -2.5206   -0.1675 C   0  0  0  0  0  0  0  0  0  0  0  0
   -1.9211   -3.2152    0.3974 O   0  0  0  0  0  0  0  0  0  0  0  0
   -0.6759    0.9024   -1.9065 C   0  0  0  0  0  0  0  0  0  0  0  0
    0.0587    1.8530   -1.2238 F   0  0  0  0  0  0  0  0  0  0  0  0
   -0.2243    0.8534   -3.2124 F   0  0  0  0  0  0  0  0  0  0  0  0
   -1.9981    1.2979   -1.9515 F   0  0  0  0  0  0  0  0  0  0  0  0
   -8.2535    1.7139    0.8719 H   0  0  0  0  0  0  0  0  0  0  0  0
   -7.8877    0.0322    0.3471 H   0  0  0  0  0  0  0  0  0  0  0  0
   -7.4438    1.4492   -0.7122 H   0  0  0  0  0  0  0  0  0  0  0  0
   -6.1142   -1.0903   -0.4949 H   0  0  0  0  0  0  0  0  0  0  0  0
   -4.0051   -2.1599   -1.1758 H   0  0  0  0  0  0  0  0  0  0  0  0
   -1.7990    0.9655    0.7983 H   0  0  0  0  0  0  0  0  0  0  0  0
   -4.0735    3.2267    3.4622 H   0  0  0  0  0  0  0  0  0  0  0  0
   -3.6180    1.4916    3.6098 H   0  0  0  0  0  0  0  0  0  0  0  0
   -5.3072    1.9484    3.1418 H   0  0  0  0  0  0  0  0  0  0  0  0
   -0.0338   -4.8623    0.7121 H   0  0  0  0  0  0  0  0  0  0  0  0
    2.3413   -5.4612    0.6607 H   0  0  0  0  0  0  0  0  0  0  0  0
    4.5935   -4.8031    0.1000 H   0  0  0  0  0  0  0  0  0  0  0  0
    3.4611   -1.3911   -2.5294 H   0  0  0  0  0  0  0  0  0  0  0  0
    4.6317   -1.7876   -1.2419 H   0  0  0  0  0  0  0  0  0  0  0  0
    2.5864    0.3777   -1.2969 H   0  0  0  0  0  0  0  0  0  0  0  0
    4.6057    0.7835   -2.5245 H   0  0  0  0  0  0  0  0  0  0  0  0
    5.5278    0.5298   -0.9958 H   0  0  0  0  0  0  0  0  0  0  0  0
    3.3113    2.6245   -1.5289 H   0  0  0  0  0  0  0  0  0  0  0  0
    5.0773    2.9535   -1.4069 H   0  0  0  0  0  0  0  0  0  0  0  0
    5.0495    2.2356    0.8853 H   0  0  0  0  0  0  0  0  0  0  0  0
    2.7812    4.1177    0.3229 H   0  0  0  0  0  0  0  0  0  0  0  0
    4.5323    4.5475    0.4040 H   0  0  0  0  0  0  0  0  0  0  0  0
    3.6844    3.9684    1.8780 H   0  0  0  0  0  0  0  0  0  0  0  0
    2.0985    1.7895    0.5916 H   0  0  0  0  0  0  0  0  0  0  0  0
    3.0752    1.5857    2.0889 H   0  0  0  0  0  0  0  0  0  0  0  0
    2.6091   -0.5680    0.9858 H   0  0  0  0  0  0  0  0  0  0  0  0
    4.3823   -0.2613    1.0117 H   0  0  0  0  0  0  0  0  0  0  0  0
  1 35  1  0  0  0  0
  1 36  1  0  0  0  0
  1 37  1  0  0  0  0
  2  1  1  0  0  0  0
  3  2  1  0  0  0  0
  4  3  2  0  0  0  0
  4 38  1  0  0  0  0
  5  4  1  0  0  0  0
  5 39  1  0  0  0  0
  6  5  2  0  0  0  0
  7  6  1  0  0  0  0
  7 40  1  0  0  0  0
  8  7  2  0  0  0  0
  8  3  1  0  0  0  0
  9  8  1  0  0  0  0
 10  9  1  0  0  0  0
 10 41  1  0  0  0  0
 10 42  1  0  0  0  0
 10 43  1  0  0  0  0
 11  6  1  0  0  0  0
 12 11  2  0  0  0  0
 13 12  1  0  0  0  0
 14 13  1  0  0  0  0
 15 14  2  0  0  0  0
 16 15  1  0  0  0  0
 16 44  1  0  0  0  0
 17 16  2  0  0  0  0
 17 45  1  0  0  0  0
 18 17  1  0  0  0  0
 19 18  1  0  0  0  0
 19 46  1  0  0  0  0
 20 18  2  0  0  0  0
 20 14  1  0  0  0  0
 21 20  1  0  0  0  0
 21 47  1  0  0  0  0
 21 48  1  0  0  0  0
 22 21  1  0  0  0  0
 22 49  1  6  0  0  0
 23 22  1  0  0  0  0
 23 50  1  0  0  0  0
 23 51  1  0  0  0  0
 24 23  1  0  0  0  0
 24 52  1  0  0  0  0
 24 53  1  0  0  0  0
 25 24  1  0  0  0  0
 25 54  1  1  0  0  0
 26 25  1  0  0  0  0
 26 55  1  0  0  0  0
 26 56  1  0  0  0  0
 26 57  1  0  0  0  0
 27 25  1  0  0  0  0
 27 58  1  0  0  0  0
 27 59  1  0  0  0  0
 28 27  1  0  0  0  0
 28 22  1  0  0  0  0
 28 60  1  0  0  0  0
 28 61  1  0  0  0  0
 29 15  1  0  0  0  0
 29 11  1  0  0  0  0
 30 29  2  0  0  0  0
 31 12  1  0  0  0  0
 32 31  1  0  0  0  0
 33 31  1  0  0  0  0
 34 31  1  0  0  0  0
M  CHG  2  22   1  25   1
M  END
>  <MOL Chiral Flag>
0

>  <energy>
160.45230278036291

$$$$
> 334_AKC_journal.pntd.0006157
>320.sdf
 OpenBabel10062212383D

 61 65  0  0  0  0  0  0  0  0999 V2000
   -8.5387    1.1486   -5.4842 C   0  0  0  0  0  0  0  0  0  0  0  0
   -7.5491    0.0608   -5.5452 N   0  3  0  0  0  0  0  0  0  0  0  0
   -6.2024    0.5551   -5.9166 C   0  0  0  0  0  0  0  0  0  0  0  0
   -5.5161    1.2942   -4.7546 C   0  0  0  0  0  0  0  0  0  0  0  0
   -5.5070    0.4078   -3.5984 N   0  0  0  0  0  0  0  0  0  0  0  0
   -6.8149   -0.0255   -3.1340 C   0  0  0  0  0  0  0  0  0  0  0  0
   -7.5122   -0.7453   -4.2996 C   0  0  0  0  0  0  0  0  0  0  0  0
   -4.3038   -0.2842   -3.1995 C   0  0  0  0  0  0  0  0  0  0  0  0
   -3.3743   -0.6129   -4.2030 C   0  0  0  0  0  0  0  0  0  0  0  0
   -2.2233   -1.3304   -3.9414 C   0  0  0  0  0  0  0  0  0  0  0  0
   -1.1619   -1.6378   -5.3223 Cl  0  0  0  0  0  0  0  0  0  0  0  0
   -1.9505   -1.7800   -2.6322 C   0  0  0  0  0  0  0  0  0  0  0  0
   -2.8674   -1.4744   -1.6078 C   0  0  0  0  0  0  0  0  0  0  0  0
   -4.0342   -0.7097   -1.8568 C   0  0  0  0  0  0  0  0  0  0  0  0
   -4.8438   -0.3154   -0.7357 N   0  0  0  0  0  0  0  0  0  0  0  0
   -5.5455    0.6489   -0.8116 O   0  0  0  0  0  0  0  0  0  0  0  0
   -4.6529   -0.8005    0.3375 O   0  0  0  0  0  0  0  0  0  0  0  0
   -0.6364   -2.4105   -2.3054 C   0  0  0  0  0  0  0  0  0  0  0  0
    0.2888   -2.2508   -3.0910 O   0  0  0  0  0  0  0  0  0  0  0  0
   -0.3840   -3.0401   -1.1143 N   0  0  0  0  0  0  0  0  0  0  0  0
    0.9597   -3.0773   -0.6285 C   0  0  0  0  0  0  0  0  0  0  0  0
    1.5474   -4.1990   -0.0057 C   0  0  0  0  0  0  0  0  0  0  0  0
    0.8119   -5.5018    0.1553 C   0  0  0  0  0  0  0  0  0  0  0  0
    2.8843   -4.1017    0.4446 C   0  0  0  0  0  0  0  0  0  0  0  0
    3.6118   -2.9024    0.3015 C   0  0  0  0  0  0  0  0  0  0  0  0
    3.0056   -1.7835   -0.2868 C   0  0  0  0  0  0  0  0  0  0  0  0
    1.7001   -1.8973   -0.7408 C   0  0  0  0  0  0  0  0  0  0  0  0
    3.6769   -0.4677   -0.4384 C   0  0  0  0  0  0  0  0  0  0  0  0
    4.9714   -0.1785   -0.1162 N   0  0  0  0  0  0  0  0  0  0  0  0
    5.2639    1.1510   -0.3708 C   0  0  0  0  0  0  0  0  0  0  0  0
    4.2116    1.9113   -0.8804 C   0  0  0  0  0  0  0  0  0  0  0  0
    2.9315    0.9126   -1.0176 S   0  0  0  0  0  0  0  0  0  0  0  0
    4.3257    3.2592   -1.1831 C   0  0  0  0  0  0  0  0  0  0  0  0
    5.5664    3.8729   -0.9670 C   0  0  0  0  0  0  0  0  0  0  0  0
    6.6519    3.1239   -0.4580 C   0  0  0  0  0  0  0  0  0  0  0  0
    6.5029    1.7531   -0.1556 C   0  0  0  0  0  0  0  0  0  0  0  0
   -9.5495    0.7337   -5.2806 H   0  0  0  0  0  0  0  0  0  0  0  0
   -8.5887    1.6698   -6.4661 H   0  0  0  0  0  0  0  0  0  0  0  0
   -8.2970    1.8933   -4.7005 H   0  0  0  0  0  0  0  0  0  0  0  0
   -7.8670   -0.5771   -6.3136 H   0  0  0  0  0  0  0  0  0  0  0  0
   -6.2474    1.2064   -6.8167 H   0  0  0  0  0  0  0  0  0  0  0  0
   -5.5722   -0.3198   -6.1901 H   0  0  0  0  0  0  0  0  0  0  0  0
   -6.0549    2.2304   -4.4977 H   0  0  0  0  0  0  0  0  0  0  0  0
   -4.4962    1.6175   -5.0525 H   0  0  0  0  0  0  0  0  0  0  0  0
   -7.3986    0.8565   -2.7904 H   0  0  0  0  0  0  0  0  0  0  0  0
   -6.7592   -0.7615   -2.3079 H   0  0  0  0  0  0  0  0  0  0  0  0
   -8.5342   -1.0613   -3.9960 H   0  0  0  0  0  0  0  0  0  0  0  0
   -6.9277   -1.6734   -4.4968 H   0  0  0  0  0  0  0  0  0  0  0  0
   -3.5405   -0.3215   -5.2265 H   0  0  0  0  0  0  0  0  0  0  0  0
   -2.6412   -1.7587   -0.5911 H   0  0  0  0  0  0  0  0  0  0  0  0
   -1.1455   -3.3378   -0.4888 H   0  0  0  0  0  0  0  0  0  0  0  0
   -0.2168   -5.4678   -0.2561 H   0  0  0  0  0  0  0  0  0  0  0  0
    0.7504   -5.7673    1.2313 H   0  0  0  0  0  0  0  0  0  0  0  0
    1.3631   -6.3041   -0.3806 H   0  0  0  0  0  0  0  0  0  0  0  0
    3.3614   -4.9568    0.9078 H   0  0  0  0  0  0  0  0  0  0  0  0
    4.6310   -2.8469    0.6609 H   0  0  0  0  0  0  0  0  0  0  0  0
    1.2180   -1.0365   -1.1789 H   0  0  0  0  0  0  0  0  0  0  0  0
    3.4830    3.8175   -1.5732 H   0  0  0  0  0  0  0  0  0  0  0  0
    5.6896    4.9241   -1.1931 H   0  0  0  0  0  0  0  0  0  0  0  0
    7.6048    3.6090   -0.2986 H   0  0  0  0  0  0  0  0  0  0  0  0
    7.3340    1.1820    0.2345 H   0  0  0  0  0  0  0  0  0  0  0  0
  1 37  1  0  0  0  0
  1 38  1  0  0  0  0
  1 39  1  0  0  0  0
  2  1  1  0  0  0  0
  2 40  1  0  0  0  0
  3  2  1  0  0  0  0
  3 41  1  0  0  0  0
  3 42  1  0  0  0  0
  4  3  1  0  0  0  0
  4 43  1  0  0  0  0
  4 44  1  0  0  0  0
  5  4  1  0  0  0  0
  6  5  1  0  0  0  0
  6 45  1  0  0  0  0
  6 46  1  0  0  0  0
  7  6  1  0  0  0  0
  7  2  1  0  0  0  0
  7 47  1  0  0  0  0
  7 48  1  0  0  0  0
  8  5  1  0  0  0  0
  9  8  2  0  0  0  0
  9 49  1  0  0  0  0
 10  9  1  0  0  0  0
 11 10  1  0  0  0  0
 12 10  2  0  0  0  0
 13 12  1  0  0  0  0
 13 50  1  0  0  0  0
 14 13  2  0  0  0  0
 14  8  1  0  0  0  0
 15 14  1  0  0  0  0
 16 15  2  0  0  0  0
 17 15  2  0  0  0  0
 18 12  1  0  0  0  0
 19 18  2  0  0  0  0
 20 18  1  0  0  0  0
 20 51  1  0  0  0  0
 21 20  1  0  0  0  0
 22 21  2  0  0  0  0
 23 22  1  0  0  0  0
 23 52  1  0  0  0  0
 23 53  1  0  0  0  0
 23 54  1  0  0  0  0
 24 22  1  0  0  0  0
 24 55  1  0  0  0  0
 25 24  2  0  0  0  0
 25 56  1  0  0  0  0
 26 25  1  0  0  0  0
 27 26  2  0  0  0  0
 27 21  1  0  0  0  0
 27 57  1  0  0  0  0
 28 26  1  0  0  0  0
 29 28  2  0  0  0  0
 30 29  1  0  0  0  0
 31 30  2  0  0  0  0
 32 31  1  0  0  0  0
 32 28  1  0  0  0  0
 33 31  1  0  0  0  0
 33 58  1  0  0  0  0
 34 33  2  0  0  0  0
 34 59  1  0  0  0  0
 35 34  1  0  0  0  0
 35 60  1  0  0  0  0
 36 35  2  0  0  0  0
 36 30  1  0  0  0  0
 36 61  1  0  0  0  0
M  CHG  1   2   1
M  END
>  <MOL Chiral Flag>
0

>  <energy>
204.62068840193396

$$$$
> 335_AKC_journal.pntd.0006157
>321.sdf
 OpenBabel10062212383D

 47 49  0  0  0  0  0  0  0  0999 V2000
    4.0717   -0.6563   -2.6294 C   0  0  0  0  0  0  0  0  0  0  0  0
    4.5614    0.1007   -1.3985 C   0  0  0  0  0  0  0  0  0  0  0  0
    3.8146   -0.2742   -0.2004 N   0  0  0  0  0  0  0  0  0  0  0  0
    4.5223   -0.1190    1.0679 C   0  0  0  0  0  0  0  0  0  0  0  0
    4.9779   -1.4750    1.5855 C   0  0  0  0  0  0  0  0  0  0  0  0
    2.4182    0.0341   -0.1705 C   0  0  0  0  0  0  0  0  0  0  0  0
    1.9979    1.3701   -0.1275 C   0  0  0  0  0  0  0  0  0  0  0  0
    0.6433    1.6825   -0.0126 C   0  0  0  0  0  0  0  0  0  0  0  0
   -0.3255    0.6679    0.0489 C   0  0  0  0  0  0  0  0  0  0  0  0
    0.0900   -0.6774   -0.0218 C   0  0  0  0  0  0  0  0  0  0  0  0
    1.4590   -0.9911   -0.1194 C   0  0  0  0  0  0  0  0  0  0  0  0
   -1.7856    1.0573    0.2185 C   0  0  0  0  0  0  0  0  0  0  0  0
   -2.4269    0.3667    1.3394 N   0  0  0  0  0  0  0  0  0  0  0  0
   -2.1678    0.6866    2.7246 C   0  0  0  0  0  0  0  0  0  0  0  0
   -3.6061   -0.2453    0.8800 C   0  0  0  0  0  0  0  0  0  0  0  0
   -3.7265   -0.0513   -0.4542 C   0  0  0  0  0  0  0  0  0  0  0  0
   -4.8487   -0.4876   -1.1630 C   0  0  0  0  0  0  0  0  0  0  0  0
   -5.8608   -1.1604   -0.4539 C   0  0  0  0  0  0  0  0  0  0  0  0
   -5.7308   -1.3735    0.9358 C   0  0  0  0  0  0  0  0  0  0  0  0
   -4.5929   -0.9080    1.6189 C   0  0  0  0  0  0  0  0  0  0  0  0
   -2.6189    0.6875   -0.9246 N   0  0  0  0  0  0  0  0  0  0  0  0
   -2.6791    1.5030   -2.1183 C   0  0  0  0  0  0  0  0  0  0  0  0
    4.1832   -1.7498   -2.4670 H   0  0  0  0  0  0  0  0  0  0  0  0
    4.6864   -0.3657   -3.5084 H   0  0  0  0  0  0  0  0  0  0  0  0
    3.0098   -0.4205   -2.8449 H   0  0  0  0  0  0  0  0  0  0  0  0
    4.5005    1.1980   -1.5655 H   0  0  0  0  0  0  0  0  0  0  0  0
    5.6354   -0.1660   -1.2730 H   0  0  0  0  0  0  0  0  0  0  0  0
    3.8723    0.3574    1.8366 H   0  0  0  0  0  0  0  0  0  0  0  0
    5.4136    0.5383    0.9520 H   0  0  0  0  0  0  0  0  0  0  0  0
    5.6684   -1.9494    0.8564 H   0  0  0  0  0  0  0  0  0  0  0  0
    4.1015   -2.1367    1.7480 H   0  0  0  0  0  0  0  0  0  0  0  0
    5.5130   -1.3420    2.5500 H   0  0  0  0  0  0  0  0  0  0  0  0
    2.7268    2.1695   -0.1570 H   0  0  0  0  0  0  0  0  0  0  0  0
    0.3482    2.7223    0.0371 H   0  0  0  0  0  0  0  0  0  0  0  0
   -0.6375   -1.4783    0.0285 H   0  0  0  0  0  0  0  0  0  0  0  0
    1.7744   -2.0274   -0.1426 H   0  0  0  0  0  0  0  0  0  0  0  0
   -1.8805    2.1551    0.3746 H   0  0  0  0  0  0  0  0  0  0  0  0
   -2.3730   -0.1899    3.3730 H   0  0  0  0  0  0  0  0  0  0  0  0
   -2.8256    1.5293    3.0280 H   0  0  0  0  0  0  0  0  0  0  0  0
   -1.1098    0.9919    2.8592 H   0  0  0  0  0  0  0  0  0  0  0  0
   -4.9519   -0.3092   -2.2244 H   0  0  0  0  0  0  0  0  0  0  0  0
   -6.7456   -1.5057   -0.9729 H   0  0  0  0  0  0  0  0  0  0  0  0
   -6.5162   -1.8836    1.4789 H   0  0  0  0  0  0  0  0  0  0  0  0
   -4.4971   -1.0507    2.6865 H   0  0  0  0  0  0  0  0  0  0  0  0
   -1.6607    1.8410   -2.4008 H   0  0  0  0  0  0  0  0  0  0  0  0
   -3.3065    2.3980   -1.9128 H   0  0  0  0  0  0  0  0  0  0  0  0
   -3.1161    0.9369   -2.9647 H   0  0  0  0  0  0  0  0  0  0  0  0
  1 23  1  0  0  0  0
  1 24  1  0  0  0  0
  1 25  1  0  0  0  0
  2  1  1  0  0  0  0
  2 26  1  0  0  0  0
  2 27  1  0  0  0  0
  3  2  1  0  0  0  0
  4  3  1  0  0  0  0
  4 28  1  0  0  0  0
  4 29  1  0  0  0  0
  5  4  1  0  0  0  0
  5 30  1  0  0  0  0
  5 31  1  0  0  0  0
  5 32  1  0  0  0  0
  6  3  1  0  0  0  0
  7  6  2  0  0  0  0
  7 33  1  0  0  0  0
  8  7  1  0  0  0  0
  8 34  1  0  0  0  0
  9  8  2  0  0  0  0
 10  9  1  0  0  0  0
 10 35  1  0  0  0  0
 11 10  2  0  0  0  0
 11  6  1  0  0  0  0
 11 36  1  0  0  0  0
 12  9  1  0  0  0  0
 12 37  1  0  0  0  0
 13 12  1  0  0  0  0
 14 13  1  0  0  0  0
 14 38  1  0  0  0  0
 14 39  1  0  0  0  0
 14 40  1  0  0  0  0
 15 13  1  0  0  0  0
 16 15  2  0  0  0  0
 17 16  1  0  0  0  0
 17 41  1  0  0  0  0
 18 17  2  0  0  0  0
 18 42  1  0  0  0  0
 19 18  1  0  0  0  0
 19 43  1  0  0  0  0
 20 19  2  0  0  0  0
 20 15  1  0  0  0  0
 20 44  1  0  0  0  0
 21 16  1  0  0  0  0
 21 12  1  0  0  0  0
 22 21  1  0  0  0  0
 22 45  1  0  0  0  0
 22 46  1  0  0  0  0
 22 47  1  0  0  0  0
M  END
>  <MOL Chiral Flag>
0

>  <energy>
31.738220771711049

$$$$
> 336_AKC_journal.pntd.0006157
>322.sdf
 OpenBabel10062212383D

 51 53  0  0  0  0  0  0  0  0999 V2000
   -7.6224   -0.9079    3.8414 C   0  0  0  0  0  0  0  0  0  0  0  0
   -6.4759   -0.6098    4.8025 C   0  0  0  0  0  0  0  0  0  0  0  0
   -5.1537   -1.2922    4.4161 C   0  0  0  0  0  0  0  0  0  0  0  0
   -4.3080   -0.5869    3.3240 C   0  0  0  0  0  0  0  0  0  0  0  0
   -2.9914   -1.3774    3.1490 C   0  0  0  0  0  0  0  0  0  0  0  0
   -1.8087   -0.6453    2.4644 C   0  0  0  0  0  0  0  0  0  0  0  0
   -0.5801   -1.5875    2.5064 C   0  0  0  0  0  0  0  0  0  0  0  0
    0.8177   -0.9408    2.3680 C   0  0  0  0  0  0  0  0  0  0  0  0
    1.2218   -0.4420    1.0249 N   0  0  0  0  0  0  0  0  0  0  0  0
    1.5911   -1.3620    0.0708 C   0  0  0  0  0  0  0  0  0  0  0  0
    2.1376   -0.9933   -1.1337 C   0  0  0  0  0  0  0  0  0  0  0  0
    2.5787   -2.1830   -1.9232 C   0  0  0  0  0  0  0  0  0  0  0  0
    1.8171   -3.3029   -1.2156 C   0  0  0  0  0  0  0  0  0  0  0  0
    1.6483   -2.8531    0.2387 C   0  0  0  0  0  0  0  0  0  0  0  0
    2.3562    0.3494   -1.4618 C   0  0  0  0  0  0  0  0  0  0  0  0
    2.9275    0.6465   -2.5897 N   0  0  0  0  0  0  0  0  0  0  0  0
    1.9500    1.3369   -0.5125 C   0  0  0  0  0  0  0  0  0  0  0  0
    1.3732    0.9166    0.7412 C   0  0  0  0  0  0  0  0  0  0  0  0
    0.9922    1.9228    1.6717 C   0  0  0  0  0  0  0  0  0  0  0  0
    1.1835    3.2728    1.3925 C   0  0  0  0  0  0  0  0  0  0  0  0
    1.7497    3.6700    0.1940 C   0  0  0  0  0  0  0  0  0  0  0  0
    2.1277    2.7263   -0.7520 C   0  0  0  0  0  0  0  0  0  0  0  0
   -7.4118   -0.5298    2.8226 H   0  0  0  0  0  0  0  0  0  0  0  0
   -8.5504   -0.4304    4.2261 H   0  0  0  0  0  0  0  0  0  0  0  0
   -7.8016   -2.0055    3.8038 H   0  0  0  0  0  0  0  0  0  0  0  0
   -6.7908   -1.0233    5.7865 H   0  0  0  0  0  0  0  0  0  0  0  0
   -6.3262    0.4842    4.9282 H   0  0  0  0  0  0  0  0  0  0  0  0
   -4.5324   -1.2758    5.3384 H   0  0  0  0  0  0  0  0  0  0  0  0
   -5.3442   -2.3574    4.1587 H   0  0  0  0  0  0  0  0  0  0  0  0
   -4.8440   -0.5041    2.3534 H   0  0  0  0  0  0  0  0  0  0  0  0
   -4.0788    0.4365    3.6928 H   0  0  0  0  0  0  0  0  0  0  0  0
   -2.6248   -1.6136    4.1723 H   0  0  0  0  0  0  0  0  0  0  0  0
   -3.2138   -2.3381    2.6347 H   0  0  0  0  0  0  0  0  0  0  0  0
   -1.5940    0.2644    3.0657 H   0  0  0  0  0  0  0  0  0  0  0  0
   -2.0362   -0.3394    1.4203 H   0  0  0  0  0  0  0  0  0  0  0  0
   -0.7508   -2.4302    1.8146 H   0  0  0  0  0  0  0  0  0  0  0  0
   -0.5394   -2.0220    3.5301 H   0  0  0  0  0  0  0  0  0  0  0  0
    1.5752   -1.6944    2.6775 H   0  0  0  0  0  0  0  0  0  0  0  0
    0.9229   -0.1954    3.1704 H   0  0  0  0  0  0  0  0  0  0  0  0
    3.6798   -2.2780   -1.8021 H   0  0  0  0  0  0  0  0  0  0  0  0
    2.2971   -2.1726   -2.9984 H   0  0  0  0  0  0  0  0  0  0  0  0
    0.7897   -3.2736   -1.6506 H   0  0  0  0  0  0  0  0  0  0  0  0
    2.2066   -4.3309   -1.3719 H   0  0  0  0  0  0  0  0  0  0  0  0
    0.7546   -3.3556    0.6463 H   0  0  0  0  0  0  0  0  0  0  0  0
    2.5447   -3.0901    0.8508 H   0  0  0  0  0  0  0  0  0  0  0  0
    3.2205   -0.0870   -3.2500 H   0  0  0  0  0  0  0  0  0  0  0  0
    0.5363    1.7035    2.6182 H   0  0  0  0  0  0  0  0  0  0  0  0
    0.8897    4.0201    2.1185 H   0  0  0  0  0  0  0  0  0  0  0  0
    1.8980    4.7235   -0.0078 H   0  0  0  0  0  0  0  0  0  0  0  0
    2.5605    3.1136   -1.6570 H   0  0  0  0  0  0  0  0  0  0  0  0
    3.1269    1.6066   -2.8845 H   0  0  0  0  0  0  0  0  0  0  0  0
  1 23  1  0  0  0  0
  1 24  1  0  0  0  0
  1 25  1  0  0  0  0
  2  1  1  0  0  0  0
  2 26  1  0  0  0  0
  2 27  1  0  0  0  0
  3  2  1  0  0  0  0
  3 28  1  0  0  0  0
  3 29  1  0  0  0  0
  4  3  1  0  0  0  0
  4 30  1  0  0  0  0
  4 31  1  0  0  0  0
  5  4  1  0  0  0  0
  5 32  1  0  0  0  0
  5 33  1  0  0  0  0
  6  5  1  0  0  0  0
  6 34  1  0  0  0  0
  6 35  1  0  0  0  0
  7  6  1  0  0  0  0
  7 36  1  0  0  0  0
  7 37  1  0  0  0  0
  8  7  1  0  0  0  0
  8 38  1  0  0  0  0
  8 39  1  0  0  0  0
  9  8  1  0  0  0  0
 10  9  1  0  0  0  0
 11 10  2  0  0  0  0
 12 11  1  0  0  0  0
 12 40  1  0  0  0  0
 12 41  1  0  0  0  0
 13 12  1  0  0  0  0
 13 42  1  0  0  0  0
 13 43  1  0  0  0  0
 14 13  1  0  0  0  0
 14 10  1  0  0  0  0
 14 44  1  0  0  0  0
 14 45  1  0  0  0  0
 15 11  1  0  0  0  0
 16 15  2  0  0  0  0
 16 46  1  0  0  0  0
 16 51  1  0  0  0  0
 17 15  1  0  0  0  0
 18 17  2  0  0  0  0
 18  9  1  0  0  0  0
 19 18  1  0  0  0  0
 19 47  1  0  0  0  0
 20 19  2  0  0  0  0
 20 48  1  0  0  0  0
 21 20  1  0  0  0  0
 21 49  1  0  0  0  0
 22 21  2  0  0  0  0
 22 17  1  0  0  0  0
 22 50  1  0  0  0  0
M  END
>  <MOL Chiral Flag>
0

>  <energy>
56.148850812166444

$$$$
> 337_AKC_journal.pntd.0006157
>323.sdf
 OpenBabel10062212403D

 72 76  0  0  0  0  0  0  0  0999 V2000
    3.4712    5.2622    1.0415 C   0  0  0  0  0  0  0  0  0  0  0  0
    2.9344    3.9092    0.8128 N   0  3  1  0  0  0  0  0  0  0  0  0
    2.6549    3.7200   -0.6307 C   0  0  0  0  0  0  0  0  0  0  0  0
    2.1059    2.3131   -0.9148 C   0  0  0  0  0  0  0  0  0  0  0  0
    3.1112    1.2625   -0.4264 C   0  0  0  0  0  0  0  0  0  0  0  0
    3.4225    1.4594    1.0728 C   0  0  2  0  0  0  0  0  0  0  0  0
    2.2314    1.0591    1.9744 C   0  0  0  0  0  0  0  0  0  0  0  0
    2.0712   -0.3051    1.8388 O   0  0  0  0  0  0  0  0  0  0  0  0
    0.9959   -1.0461    1.4662 C   0  0  0  0  0  0  0  0  0  0  0  0
   -0.3553   -0.6908    1.7239 C   0  0  0  0  0  0  0  0  0  0  0  0
   -0.6370    0.4774    2.3493 O   0  0  0  0  0  0  0  0  0  0  0  0
   -1.4932    1.4381    1.8296 C   0  0  0  0  0  0  0  0  0  0  0  0
   -2.9856    1.1146    1.9510 C   0  0  0  0  0  0  0  0  0  0  0  0
   -3.3648   -0.0956    1.2247 N   0  0  0  0  0  0  0  0  0  0  0  0
   -2.8254   -1.3579    1.7125 C   0  0  0  0  0  0  0  0  0  0  0  0
   -1.3839   -1.5835    1.3364 C   0  0  0  0  0  0  0  0  0  0  0  0
   -1.0597   -2.7640    0.6414 C   0  0  0  0  0  0  0  0  0  0  0  0
    0.2703   -3.0903    0.3544 C   0  0  0  0  0  0  0  0  0  0  0  0
    1.2818   -2.2351    0.7956 C   0  0  0  0  0  0  0  0  0  0  0  0
    0.6204   -4.3231   -0.4006 C   0  0  0  0  0  0  0  0  0  0  0  0
   -0.2552   -5.2849   -0.9347 C   0  0  0  0  0  0  0  0  0  0  0  0
    0.4123   -6.3320   -1.6316 C   0  0  0  0  0  0  0  0  0  0  0  0
    1.8022   -6.1898   -1.6432 C   0  0  0  0  0  0  0  0  0  0  0  0
    2.7940   -7.0972   -2.2882 C   0  0  0  0  0  0  0  0  0  0  0  0
    2.1602   -4.8080   -0.8098 S   0  0  0  0  0  0  0  0  0  0  0  0
   -4.2944   -0.0977    0.1990 C   0  0  0  0  0  0  0  0  0  0  0  0
   -4.5645   -1.1469   -0.3504 O   0  0  0  0  0  0  0  0  0  0  0  0
   -5.0213    1.1672   -0.2348 C   0  0  0  0  0  0  0  0  0  0  0  0
   -6.0375    1.1722   -1.3819 C   0  0  0  0  0  0  0  0  0  0  0  0
   -6.4249    0.2574   -2.3758 C   0  0  0  0  0  0  0  0  0  0  0  0
   -5.9456   -1.1252   -2.6791 C   0  0  0  0  0  0  0  0  0  0  0  0
   -7.3473    0.8278   -3.1200 O   0  0  0  0  0  0  0  0  0  0  0  0
   -7.6124    2.0316   -2.7105 N   0  0  0  0  0  0  0  0  0  0  0  0
   -6.8280    2.2817   -1.6489 C   0  0  0  0  0  0  0  0  0  0  0  0
   -6.8525    3.5727   -0.8954 C   0  0  0  0  0  0  0  0  0  0  0  0
    3.9091    2.9057    1.2982 C   0  0  0  0  0  0  0  0  0  0  0  0
    2.7411    6.0330    0.7125 H   0  0  0  0  0  0  0  0  0  0  0  0
    4.4235    5.4163    0.4846 H   0  0  0  0  0  0  0  0  0  0  0  0
    3.6685    5.4257    2.1240 H   0  0  0  0  0  0  0  0  0  0  0  0
    2.0426    3.8231    1.3545 H   0  0  0  0  0  0  0  0  0  0  0  0
    3.5864    3.8658   -1.2256 H   0  0  0  0  0  0  0  0  0  0  0  0
    1.9074    4.4674   -0.9789 H   0  0  0  0  0  0  0  0  0  0  0  0
    1.9352    2.1902   -2.0056 H   0  0  0  0  0  0  0  0  0  0  0  0
    1.1267    2.1854   -0.4094 H   0  0  0  0  0  0  0  0  0  0  0  0
    4.0519    1.3875   -1.0068 H   0  0  0  0  0  0  0  0  0  0  0  0
    2.7325    0.2371   -0.6263 H   0  0  0  0  0  0  0  0  0  0  0  0
    4.2623    0.7843    1.3550 H   0  0  0  0  0  0  0  0  0  0  0  0
    1.3248    1.6330    1.7230 H   0  0  0  0  0  0  0  0  0  0  0  0
    2.4906    1.2662    3.0345 H   0  0  0  0  0  0  0  0  0  0  0  0
   -1.2270    1.6469    0.7696 H   0  0  0  0  0  0  0  0  0  0  0  0
   -1.3207    2.3758    2.3997 H   0  0  0  0  0  0  0  0  0  0  0  0
   -3.5283    2.0117    1.5995 H   0  0  0  0  0  0  0  0  0  0  0  0
   -3.2494    0.9948    3.0243 H   0  0  0  0  0  0  0  0  0  0  0  0
   -3.4351   -2.2186    1.3634 H   0  0  0  0  0  0  0  0  0  0  0  0
   -2.9303   -1.3907    2.8189 H   0  0  0  0  0  0  0  0  0  0  0  0
   -1.8520   -3.4341    0.3404 H   0  0  0  0  0  0  0  0  0  0  0  0
    2.3195   -2.4759    0.6028 H   0  0  0  0  0  0  0  0  0  0  0  0
   -1.3310   -5.2485   -0.8445 H   0  0  0  0  0  0  0  0  0  0  0  0
   -0.1081   -7.1518   -2.1086 H   0  0  0  0  0  0  0  0  0  0  0  0
    2.2803   -7.9459   -2.7859 H   0  0  0  0  0  0  0  0  0  0  0  0
    3.4891   -7.4933   -1.5192 H   0  0  0  0  0  0  0  0  0  0  0  0
    3.3734   -6.5304   -3.0468 H   0  0  0  0  0  0  0  0  0  0  0  0
   -4.2663    1.9363   -0.5025 H   0  0  0  0  0  0  0  0  0  0  0  0
   -5.5750    1.5009    0.6687 H   0  0  0  0  0  0  0  0  0  0  0  0
   -6.2138   -1.8216   -1.8605 H   0  0  0  0  0  0  0  0  0  0  0  0
   -4.8524   -1.1167   -2.8730 H   0  0  0  0  0  0  0  0  0  0  0  0
   -6.4530   -1.5007   -3.5927 H   0  0  0  0  0  0  0  0  0  0  0  0
   -7.5963    4.2638   -1.3454 H   0  0  0  0  0  0  0  0  0  0  0  0
   -5.8508    4.0478   -0.9288 H   0  0  0  0  0  0  0  0  0  0  0  0
   -7.1386    3.3837    0.1604 H   0  0  0  0  0  0  0  0  0  0  0  0
    4.8733    3.0306    0.7512 H   0  0  0  0  0  0  0  0  0  0  0  0
    4.1237    3.0529    2.3807 H   0  0  0  0  0  0  0  0  0  0  0  0
  1 37  1  0  0  0  0
  1 38  1  0  0  0  0
  1 39  1  0  0  0  0
  2  1  1  0  0  0  0
  2 40  1  1  0  0  0
  3  2  1  0  0  0  0
  3 41  1  0  0  0  0
  3 42  1  0  0  0  0
  4  3  1  0  0  0  0
  4 43  1  0  0  0  0
  4 44  1  0  0  0  0
  5  4  1  0  0  0  0
  5 45  1  0  0  0  0
  5 46  1  0  0  0  0
  6  5  1  0  0  0  0
  6 47  1  1  0  0  0
  7  6  1  0  0  0  0
  7 48  1  0  0  0  0
  7 49  1  0  0  0  0
  8  7  1  0  0  0  0
  9  8  1  0  0  0  0
 10  9  2  0  0  0  0
 11 10  1  0  0  0  0
 12 11  1  0  0  0  0
 12 50  1  0  0  0  0
 12 51  1  0  0  0  0
 13 12  1  0  0  0  0
 13 52  1  0  0  0  0
 13 53  1  0  0  0  0
 14 13  1  0  0  0  0
 15 14  1  0  0  0  0
 15 54  1  0  0  0  0
 15 55  1  0  0  0  0
 16 15  1  0  0  0  0
 16 10  1  0  0  0  0
 17 16  2  0  0  0  0
 17 56  1  0  0  0  0
 18 17  1  0  0  0  0
 19 18  2  0  0  0  0
 19  9  1  0  0  0  0
 19 57  1  0  0  0  0
 20 18  1  0  0  0  0
 21 20  2  0  0  0  0
 21 58  1  0  0  0  0
 22 21  1  0  0  0  0
 22 59  1  0  0  0  0
 23 22  2  0  0  0  0
 24 23  1  0  0  0  0
 24 60  1  0  0  0  0
 24 61  1  0  0  0  0
 24 62  1  0  0  0  0
 25 23  1  0  0  0  0
 25 20  1  0  0  0  0
 26 14  1  0  0  0  0
 27 26  2  0  0  0  0
 28 26  1  0  0  0  0
 28 63  1  0  0  0  0
 28 64  1  0  0  0  0
 29 28  1  0  0  0  0
 30 29  2  0  0  0  0
 31 30  1  0  0  0  0
 31 65  1  0  0  0  0
 31 66  1  0  0  0  0
 31 67  1  0  0  0  0
 32 30  1  0  0  0  0
 33 32  1  0  0  0  0
 34 33  2  0  0  0  0
 34 29  1  0  0  0  0
 35 34  1  0  0  0  0
 35 68  1  0  0  0  0
 35 69  1  0  0  0  0
 35 70  1  0  0  0  0
 36  6  1  0  0  0  0
 36  2  1  0  0  0  0
 36 71  1  0  0  0  0
 36 72  1  0  0  0  0
M  CHG  1   2   1
M  END
>  <MOL Chiral Flag>
0

>  <energy>
92.366569783021347

$$$$
> 338_AKC_journal.pntd.0006157
>323_2.sdf
 OpenBabel10102214283D

 72 76  0  0  0  0  0  0  0  0999 V2000
    3.3221    5.5461    0.8488 C   0  0  0  0  0  0  0  0  0  0  0  0
    2.5924    4.3352    0.4327 N   0  3  1  0  0  0  0  0  0  0  0  0
    2.9265    4.0088   -0.9739 C   0  0  0  0  0  0  0  0  0  0  0  0
    2.2274    2.7210   -1.4319 C   0  0  0  0  0  0  0  0  0  0  0  0
    2.6054    1.5612   -0.5048 C   0  0  0  0  0  0  0  0  0  0  0  0
    2.1856    1.9219    0.9328 C   0  0  1  0  0  0  0  0  0  0  0  0
    2.4910    0.8155    1.9594 C   0  0  0  0  0  0  0  0  0  0  0  0
    2.2091   -0.4494    1.4976 O   0  0  0  0  0  0  0  0  0  0  0  0
    1.0774   -1.1498    1.2251 C   0  0  0  0  0  0  0  0  0  0  0  0
   -0.2516   -0.7582    1.5605 C   0  0  0  0  0  0  0  0  0  0  0  0
   -0.4711    0.4345    2.1704 O   0  0  0  0  0  0  0  0  0  0  0  0
   -1.3812    1.3897    1.7280 C   0  0  0  0  0  0  0  0  0  0  0  0
   -2.8645    1.0670    1.9408 C   0  0  0  0  0  0  0  0  0  0  0  0
   -3.2846   -0.1340    1.2262 N   0  0  0  0  0  0  0  0  0  0  0  0
   -2.7402   -1.3983    1.6977 C   0  0  0  0  0  0  0  0  0  0  0  0
   -1.3209   -1.6465    1.2518 C   0  0  0  0  0  0  0  0  0  0  0  0
   -1.0553   -2.8518    0.5681 C   0  0  0  0  0  0  0  0  0  0  0  0
    0.2496   -3.2045    0.2141 C   0  0  0  0  0  0  0  0  0  0  0  0
    1.2922   -2.3536    0.5663 C   0  0  0  0  0  0  0  0  0  0  0  0
    0.5591   -4.4633   -0.5123 C   0  0  0  0  0  0  0  0  0  0  0  0
   -0.3316   -5.4416   -0.9843 C   0  0  0  0  0  0  0  0  0  0  0  0
    0.3195   -6.5148   -1.6617 C   0  0  0  0  0  0  0  0  0  0  0  0
    1.7097   -6.3725   -1.7148 C   0  0  0  0  0  0  0  0  0  0  0  0
    2.6972   -7.2935   -2.3449 C   0  0  0  0  0  0  0  0  0  0  0  0
    2.0860   -4.9653   -0.9455 S   0  0  0  0  0  0  0  0  0  0  0  0
   -4.2436   -0.1237    0.2265 C   0  0  0  0  0  0  0  0  0  0  0  0
   -4.5450   -1.1699   -0.3129 O   0  0  0  0  0  0  0  0  0  0  0  0
   -4.9532    1.1555   -0.2009 C   0  0  0  0  0  0  0  0  0  0  0  0
   -5.9723    1.1872   -1.3472 C   0  0  0  0  0  0  0  0  0  0  0  0
   -6.3974    0.2772   -2.3301 C   0  0  0  0  0  0  0  0  0  0  0  0
   -5.9758   -1.1270   -2.6163 C   0  0  0  0  0  0  0  0  0  0  0  0
   -7.2972    0.8749   -3.0806 O   0  0  0  0  0  0  0  0  0  0  0  0
   -7.5132    2.0933   -2.6860 N   0  0  0  0  0  0  0  0  0  0  0  0
   -6.7187    2.3245   -1.6277 C   0  0  0  0  0  0  0  0  0  0  0  0
   -6.6902    3.6259   -0.8927 C   0  0  0  0  0  0  0  0  0  0  0  0
    2.9231    3.2171    1.3424 C   0  0  0  0  0  0  0  0  0  0  0  0
    2.9932    6.4215    0.2483 H   0  0  0  0  0  0  0  0  0  0  0  0
    4.4211    5.4181    0.7186 H   0  0  0  0  0  0  0  0  0  0  0  0
    3.1245    5.7780    1.9185 H   0  0  0  0  0  0  0  0  0  0  0  0
    1.5657    4.5296    0.5096 H   0  0  0  0  0  0  0  0  0  0  0  0
    4.0263    3.8754   -1.0916 H   0  0  0  0  0  0  0  0  0  0  0  0
    2.6073    4.8398   -1.6429 H   0  0  0  0  0  0  0  0  0  0  0  0
    2.5183    2.4852   -2.4781 H   0  0  0  0  0  0  0  0  0  0  0  0
    1.1249    2.8693   -1.4042 H   0  0  0  0  0  0  0  0  0  0  0  0
    3.7012    1.3722   -0.5582 H   0  0  0  0  0  0  0  0  0  0  0  0
    2.0769    0.6459   -0.8479 H   0  0  0  0  0  0  0  0  0  0  0  0
    1.0945    2.0947    0.9296 H   0  0  0  0  0  0  0  0  0  0  0  0
    2.0126    1.0117    2.9422 H   0  0  0  0  0  0  0  0  0  0  0  0
    3.5905    0.8133    2.1258 H   0  0  0  0  0  0  0  0  0  0  0  0
   -1.2012    1.6070    0.6525 H   0  0  0  0  0  0  0  0  0  0  0  0
   -1.1766    2.3240    2.2934 H   0  0  0  0  0  0  0  0  0  0  0  0
   -3.4277    1.9661    1.6274 H   0  0  0  0  0  0  0  0  0  0  0  0
   -3.0710    0.9412    3.0262 H   0  0  0  0  0  0  0  0  0  0  0  0
   -3.3837   -2.2507    1.3898 H   0  0  0  0  0  0  0  0  0  0  0  0
   -2.7915   -1.4210    2.8083 H   0  0  0  0  0  0  0  0  0  0  0  0
   -1.8707   -3.5220    0.3320 H   0  0  0  0  0  0  0  0  0  0  0  0
    2.3125   -2.6159    0.3198 H   0  0  0  0  0  0  0  0  0  0  0  0
   -1.4045   -5.3980   -0.8621 H   0  0  0  0  0  0  0  0  0  0  0  0
   -0.2109   -7.3524   -2.0941 H   0  0  0  0  0  0  0  0  0  0  0  0
    2.1852   -8.1636   -2.8040 H   0  0  0  0  0  0  0  0  0  0  0  0
    3.4101   -7.6526   -1.5733 H   0  0  0  0  0  0  0  0  0  0  0  0
    3.2600   -6.7452   -3.1295 H   0  0  0  0  0  0  0  0  0  0  0  0
   -4.1817    1.9049   -0.4765 H   0  0  0  0  0  0  0  0  0  0  0  0
   -5.4924    1.5057    0.7052 H   0  0  0  0  0  0  0  0  0  0  0  0
   -6.2653   -1.7986   -1.7841 H   0  0  0  0  0  0  0  0  0  0  0  0
   -4.8849   -1.1649   -2.8178 H   0  0  0  0  0  0  0  0  0  0  0  0
   -6.5038   -1.4944   -3.5218 H   0  0  0  0  0  0  0  0  0  0  0  0
   -7.4045    4.3406   -1.3540 H   0  0  0  0  0  0  0  0  0  0  0  0
   -5.6700    4.0592   -0.9323 H   0  0  0  0  0  0  0  0  0  0  0  0
   -6.9848    3.4637    0.1651 H   0  0  0  0  0  0  0  0  0  0  0  0
    4.0248    3.0304    1.3290 H   0  0  0  0  0  0  0  0  0  0  0  0
    2.6375    3.4812    2.3851 H   0  0  0  0  0  0  0  0  0  0  0  0
  1 37  1  0  0  0  0
  1 38  1  0  0  0  0
  1 39  1  0  0  0  0
  2  1  1  0  0  0  0
  2 40  1  1  0  0  0
  3  2  1  0  0  0  0
  3 41  1  0  0  0  0
  3 42  1  0  0  0  0
  4  3  1  0  0  0  0
  4 43  1  0  0  0  0
  4 44  1  0  0  0  0
  5  4  1  0  0  0  0
  5 45  1  0  0  0  0
  5 46  1  0  0  0  0
  6  5  1  0  0  0  0
  6 47  1  1  0  0  0
  7  6  1  0  0  0  0
  7 48  1  0  0  0  0
  7 49  1  0  0  0  0
  8  7  1  0  0  0  0
  9  8  1  0  0  0  0
 10  9  2  0  0  0  0
 11 10  1  0  0  0  0
 12 11  1  0  0  0  0
 12 50  1  0  0  0  0
 12 51  1  0  0  0  0
 13 12  1  0  0  0  0
 13 52  1  0  0  0  0
 13 53  1  0  0  0  0
 14 13  1  0  0  0  0
 15 14  1  0  0  0  0
 15 54  1  0  0  0  0
 15 55  1  0  0  0  0
 16 15  1  0  0  0  0
 16 10  1  0  0  0  0
 17 16  2  0  0  0  0
 17 56  1  0  0  0  0
 18 17  1  0  0  0  0
 19 18  2  0  0  0  0
 19  9  1  0  0  0  0
 19 57  1  0  0  0  0
 20 18  1  0  0  0  0
 21 20  2  0  0  0  0
 21 58  1  0  0  0  0
 22 21  1  0  0  0  0
 22 59  1  0  0  0  0
 23 22  2  0  0  0  0
 24 23  1  0  0  0  0
 24 60  1  0  0  0  0
 24 61  1  0  0  0  0
 24 62  1  0  0  0  0
 25 23  1  0  0  0  0
 25 20  1  0  0  0  0
 26 14  1  0  0  0  0
 27 26  2  0  0  0  0
 28 26  1  0  0  0  0
 28 63  1  0  0  0  0
 28 64  1  0  0  0  0
 29 28  1  0  0  0  0
 30 29  2  0  0  0  0
 31 30  1  0  0  0  0
 31 65  1  0  0  0  0
 31 66  1  0  0  0  0
 31 67  1  0  0  0  0
 32 30  1  0  0  0  0
 33 32  1  0  0  0  0
 34 33  2  0  0  0  0
 34 29  1  0  0  0  0
 35 34  1  0  0  0  0
 35 68  1  0  0  0  0
 35 69  1  0  0  0  0
 35 70  1  0  0  0  0
 36  6  1  0  0  0  0
 36  2  1  0  0  0  0
 36 71  1  0  0  0  0
 36 72  1  0  0  0  0
M  CHG  1   2   1
M  END
>  <MOL Chiral Flag>
0

>  <energy>
92.366569783021347

$$$$
> 339_AKC_journal.pntd.0006157
>324.sdf
 OpenBabel10062212403D

 42 45  0  0  0  0  0  0  0  0999 V2000
    0.3087    1.3643    1.7377 O   0  0  0  0  0  0  0  0  0  0  0  0
   -0.4475    1.5644    0.6341 C   0  0  0  0  0  0  0  0  0  0  0  0
   -1.3171    2.6724    0.5559 C   0  0  0  0  0  0  0  0  0  0  0  0
   -1.4062    3.5567    1.5883 N   0  0  0  0  0  0  0  0  0  0  0  0
   -2.2462    4.6261    1.5476 C   0  0  0  0  0  0  0  0  0  0  0  0
   -3.0537    4.8414    0.4292 C   0  0  0  0  0  0  0  0  0  0  0  0
   -2.9868    3.9568   -0.6474 C   0  0  0  0  0  0  0  0  0  0  0  0
   -2.1123    2.8626   -0.5960 C   0  0  0  0  0  0  0  0  0  0  0  0
   -2.0243    1.9620   -1.6622 C   0  0  0  0  0  0  0  0  0  0  0  0
   -1.1557    0.8711   -1.5911 C   0  0  0  0  0  0  0  0  0  0  0  0
   -0.3665    0.6543   -0.4471 C   0  0  0  0  0  0  0  0  0  0  0  0
    0.5144   -0.5841   -0.3701 C   0  0  2  0  0  0  0  0  0  0  0  0
   -0.0997   -1.5191    0.5618 N   0  0  0  0  0  0  0  0  0  0  0  0
   -0.4665   -2.8388    0.1599 C   0  0  0  0  0  0  0  0  0  0  0  0
    0.0246   -3.3702   -0.9974 N   0  0  0  0  0  0  0  0  0  0  0  0
   -0.3036   -4.6212   -1.4136 C   0  0  0  0  0  0  0  0  0  0  0  0
   -1.1782   -5.4001   -0.6567 C   0  0  0  0  0  0  0  0  0  0  0  0
   -1.6998   -4.8840    0.5307 C   0  0  0  0  0  0  0  0  0  0  0  0
   -1.3388   -3.6006    0.9497 C   0  0  0  0  0  0  0  0  0  0  0  0
    1.9925   -0.2544   -0.1161 C   0  0  0  0  0  0  0  0  0  0  0  0
    2.6785    0.3618   -1.1833 C   0  0  0  0  0  0  0  0  0  0  0  0
    4.0348    0.6648   -1.0932 C   0  0  0  0  0  0  0  0  0  0  0  0
    4.7391    0.3787    0.0694 C   0  0  0  0  0  0  0  0  0  0  0  0
    4.0953   -0.2180    1.1533 C   0  0  0  0  0  0  0  0  0  0  0  0
    5.0373   -0.5443    2.6058 Cl  0  0  0  0  0  0  0  0  0  0  0  0
    2.7251   -0.5520    1.0778 C   0  0  0  0  0  0  0  0  0  0  0  0
    1.9963   -1.3089    2.4974 Cl  0  0  0  0  0  0  0  0  0  0  0  0
    0.2961    1.9625    2.4974 H   0  0  0  0  0  0  0  0  0  0  0  0
   -2.2896    5.3086    2.3858 H   0  0  0  0  0  0  0  0  0  0  0  0
   -3.7262    5.6891    0.3980 H   0  0  0  0  0  0  0  0  0  0  0  0
   -3.6142    4.1228   -1.5151 H   0  0  0  0  0  0  0  0  0  0  0  0
   -2.6347    2.0976   -2.5471 H   0  0  0  0  0  0  0  0  0  0  0  0
   -1.1167    0.1779   -2.4216 H   0  0  0  0  0  0  0  0  0  0  0  0
    0.5175   -1.0727   -1.3675 H   0  0  0  0  0  0  0  0  0  0  0  0
   -0.4051   -1.1794    1.4863 H   0  0  0  0  0  0  0  0  0  0  0  0
    0.1132   -5.0081   -2.3341 H   0  0  0  0  0  0  0  0  0  0  0  0
   -1.4485   -6.3940   -0.9887 H   0  0  0  0  0  0  0  0  0  0  0  0
   -2.3834   -5.4768    1.1238 H   0  0  0  0  0  0  0  0  0  0  0  0
   -1.7457   -3.1975    1.8681 H   0  0  0  0  0  0  0  0  0  0  0  0
    2.1567    0.5872   -2.1058 H   0  0  0  0  0  0  0  0  0  0  0  0
    4.5435    1.1204   -1.9331 H   0  0  0  0  0  0  0  0  0  0  0  0
    5.7929    0.6208    0.1295 H   0  0  0  0  0  0  0  0  0  0  0  0
  1 28  1  0  0  0  0
  2  1  1  0  0  0  0
  3  2  2  0  0  0  0
  4  3  1  0  0  0  0
  5  4  2  0  0  0  0
  5 29  1  0  0  0  0
  6  5  1  0  0  0  0
  6 30  1  0  0  0  0
  7  6  2  0  0  0  0
  7 31  1  0  0  0  0
  8  7  1  0  0  0  0
  8  3  1  0  0  0  0
  9  8  2  0  0  0  0
  9 32  1  0  0  0  0
 10  9  1  0  0  0  0
 10 33  1  0  0  0  0
 11 10  2  0  0  0  0
 11  2  1  0  0  0  0
 12 11  1  0  0  0  0
 12 34  1  6  0  0  0
 13 12  1  0  0  0  0
 13 35  1  0  0  0  0
 14 13  1  0  0  0  0
 15 14  2  0  0  0  0
 16 15  1  0  0  0  0
 16 36  1  0  0  0  0
 17 16  2  0  0  0  0
 17 37  1  0  0  0  0
 18 17  1  0  0  0  0
 18 38  1  0  0  0  0
 19 18  2  0  0  0  0
 19 14  1  0  0  0  0
 19 39  1  0  0  0  0
 20 12  1  0  0  0  0
 21 20  2  0  0  0  0
 21 40  1  0  0  0  0
 22 21  1  0  0  0  0
 22 41  1  0  0  0  0
 23 22  2  0  0  0  0
 23 42  1  0  0  0  0
 24 23  1  0  0  0  0
 25 24  1  0  0  0  0
 26 24  2  0  0  0  0
 26 20  1  0  0  0  0
 27 26  1  0  0  0  0
M  END
>  <MOL Chiral Flag>
0

>  <energy>
55.138216720131382

$$$$
> 340_AKC
>325.sdf
 OpenBabel10042216283D

 34 37  0  0  0  0  0  0  0  0999 V2000
   -4.1155    1.8573   -0.1905 C   0  0  0  0  0  0  0  0  0  0  0  0
   -3.3859    1.1297   -1.1782 O   0  0  0  0  0  0  0  0  0  0  0  0
   -2.6185    0.1670   -0.5883 C   0  0  0  0  0  0  0  0  0  0  0  0
   -3.1833   -1.0468   -0.2321 C   0  0  0  0  0  0  0  0  0  0  0  0
   -4.4899   -1.4061   -0.3794 O   0  0  0  0  0  0  0  0  0  0  0  0
   -4.4690   -2.7535    0.1324 C   0  0  0  0  0  0  0  0  0  0  0  0
   -3.1682   -3.1628    0.6031 O   0  0  0  0  0  0  0  0  0  0  0  0
   -2.4322   -2.0537    0.3268 C   0  0  0  0  0  0  0  0  0  0  0  0
   -1.0816   -1.9156    0.5523 C   0  0  0  0  0  0  0  0  0  0  0  0
   -0.4832   -0.7085    0.1761 C   0  0  0  0  0  0  0  0  0  0  0  0
   -1.2391    0.3318   -0.3945 C   0  0  0  0  0  0  0  0  0  0  0  0
   -0.5288    1.5733   -0.7650 C   0  0  0  0  0  0  0  0  0  0  0  0
   -1.0880    2.6031   -1.1172 O   0  0  0  0  0  0  0  0  0  0  0  0
    0.9397    1.5420   -0.6700 C   0  0  0  0  0  0  0  0  0  0  0  0
    1.5396    0.4828   -0.1118 C   0  0  0  0  0  0  0  0  0  0  0  0
    0.8720   -0.6184    0.3885 O   0  0  0  0  0  0  0  0  0  0  0  0
    3.0001    0.4403    0.0612 C   0  0  0  0  0  0  0  0  0  0  0  0
    3.5460    0.1998    1.3294 C   0  0  0  0  0  0  0  0  0  0  0  0
    4.9315    0.1778    1.5144 C   0  0  0  0  0  0  0  0  0  0  0  0
    5.7834    0.3851    0.4334 C   0  0  0  0  0  0  0  0  0  0  0  0
    5.2533    0.6005   -0.8366 C   0  0  0  0  0  0  0  0  0  0  0  0
    3.8677    0.6249   -1.0236 C   0  0  0  0  0  0  0  0  0  0  0  0
   -4.4524    2.7951   -0.6407 H   0  0  0  0  0  0  0  0  0  0  0  0
   -4.9994    1.2924    0.1203 H   0  0  0  0  0  0  0  0  0  0  0  0
   -3.4977    2.1037    0.6809 H   0  0  0  0  0  0  0  0  0  0  0  0
   -4.7885   -3.4371   -0.6637 H   0  0  0  0  0  0  0  0  0  0  0  0
   -5.1809   -2.8220    0.9641 H   0  0  0  0  0  0  0  0  0  0  0  0
   -0.4995   -2.7218    0.9833 H   0  0  0  0  0  0  0  0  0  0  0  0
    1.4721    2.4126   -1.0318 H   0  0  0  0  0  0  0  0  0  0  0  0
    2.8936    0.0347    2.1850 H   0  0  0  0  0  0  0  0  0  0  0  0
    5.3432   -0.0003    2.5039 H   0  0  0  0  0  0  0  0  0  0  0  0
    6.8607    0.3676    0.5781 H   0  0  0  0  0  0  0  0  0  0  0  0
    5.9214    0.7452   -1.6824 H   0  0  0  0  0  0  0  0  0  0  0  0
    3.4776    0.7799   -2.0277 H   0  0  0  0  0  0  0  0  0  0  0  0
  1 23  1  0  0  0  0
  1 24  1  0  0  0  0
  1 25  1  0  0  0  0
  2  1  1  0  0  0  0
  3  2  1  0  0  0  0
  4  3  2  0  0  0  0
  5  4  1  0  0  0  0
  6  5  1  0  0  0  0
  6 26  1  0  0  0  0
  6 27  1  0  0  0  0
  7  6  1  0  0  0  0
  8  7  1  0  0  0  0
  8  4  1  0  0  0  0
  9  8  2  0  0  0  0
  9 28  1  0  0  0  0
 10  9  1  0  0  0  0
 11 10  2  0  0  0  0
 11  3  1  0  0  0  0
 12 11  1  0  0  0  0
 13 12  2  0  0  0  0
 14 12  1  0  0  0  0
 14 29  1  0  0  0  0
 15 14  2  0  0  0  0
 16 15  1  0  0  0  0
 16 10  1  0  0  0  0
 17 15  1  0  0  0  0
 18 17  2  0  0  0  0
 18 30  1  0  0  0  0
 19 18  1  0  0  0  0
 19 31  1  0  0  0  0
 20 19  2  0  0  0  0
 20 32  1  0  0  0  0
 21 20  1  0  0  0  0
 21 33  1  0  0  0  0
 22 21  2  0  0  0  0
 22 17  1  0  0  0  0
 22 34  1  0  0  0  0
M  END
>  <energy>
68.578704748923073

$$$$
> 341_AKC_C7MD00125H
>326.sdf
 OpenBabel10062212413D

 72 77  0  0  0  0  0  0  0  0999 V2000
   -2.0145    5.2215    2.6535 C   0  0  0  0  0  0  0  0  0  0  0  0
   -1.7897    4.3728    1.5863 O   0  0  0  0  0  0  0  0  0  0  0  0
   -1.4593    3.0477    1.6273 C   0  0  0  0  0  0  0  0  0  0  0  0
   -1.0672    2.4567    0.4176 C   0  0  0  0  0  0  0  0  0  0  0  0
   -0.6114    1.1281    0.3620 C   0  0  0  0  0  0  0  0  0  0  0  0
   -0.6172    0.3696    1.5417 C   0  0  0  0  0  0  0  0  0  0  0  0
   -1.0440    0.9163    2.7686 C   0  0  0  0  0  0  0  0  0  0  0  0
   -1.0459    0.1606    3.9005 O   0  0  0  0  0  0  0  0  0  0  0  0
   -0.7000   -1.1727    3.9861 C   0  0  0  0  0  0  0  0  0  0  0  0
   -1.4506    2.2785    2.8255 C   0  0  0  0  0  0  0  0  0  0  0  0
   -1.8174    2.8819    3.9941 O   0  0  0  0  0  0  0  0  0  0  0  0
   -1.8040    2.3585    5.2712 C   0  0  0  0  0  0  0  0  0  0  0  0
    0.0168    0.5337   -0.9124 C   0  0  1  0  0  0  0  0  0  0  0  0
   -0.8972    0.0212   -1.9979 N   0  3  2  0  0  0  0  0  0  0  0  0
   -0.1737   -0.0669   -3.3042 C   0  0  0  0  0  0  0  0  0  0  0  0
   -0.8806   -0.9645   -4.3168 C   0  0  0  0  0  0  0  0  0  0  0  0
   -2.2979   -0.5500   -4.3759 C   0  0  0  0  0  0  0  0  0  0  0  0
   -2.9291    0.2033   -3.4038 C   0  0  0  0  0  0  0  0  0  0  0  0
   -2.2247    0.6881   -2.1448 C   0  0  0  0  0  0  0  0  0  0  0  0
   -4.2155    0.4344   -3.7637 N   0  0  0  0  0  0  0  0  0  0  0  0
   -4.3801   -0.1706   -4.9640 C   0  0  0  0  0  0  0  0  0  0  0  0
   -3.2181   -0.7788   -5.3621 C   0  0  0  0  0  0  0  0  0  0  0  0
   -3.1053   -1.4450   -6.5799 C   0  0  0  0  0  0  0  0  0  0  0  0
   -4.2359   -1.4860   -7.4126 C   0  0  0  0  0  0  0  0  0  0  0  0
   -5.4440   -0.8729   -7.0037 C   0  0  0  0  0  0  0  0  0  0  0  0
   -5.5238   -0.2066   -5.7614 C   0  0  0  0  0  0  0  0  0  0  0  0
    1.1438    1.4374   -1.4292 C   0  0  0  0  0  0  0  0  0  0  0  0
    0.9108    2.7001   -1.8342 N   0  0  0  0  0  0  0  0  0  0  0  0
    2.0660    3.1659   -2.2763 N   0  0  0  0  0  0  0  0  0  0  0  0
    2.9898    2.2278   -2.1735 N   0  0  0  0  0  0  0  0  0  0  0  0
    2.4596    1.1297   -1.6516 N   0  0  0  0  0  0  0  0  0  0  0  0
    3.3050   -0.0867   -1.5070 C   0  0  0  0  0  0  0  0  0  0  0  0
    2.6331   -1.3609   -0.9402 C   0  0  0  0  0  0  0  0  0  0  0  0
    3.6094   -2.5400   -0.9048 C   0  0  0  0  0  0  0  0  0  0  0  0
    4.8256   -2.1913   -0.0455 C   0  0  0  0  0  0  0  0  0  0  0  0
    5.5177   -0.9441   -0.6028 C   0  0  0  0  0  0  0  0  0  0  0  0
    4.5441    0.2444   -0.6460 C   0  0  0  0  0  0  0  0  0  0  0  0
   -2.1940    6.2460    2.2681 H   0  0  0  0  0  0  0  0  0  0  0  0
   -1.1173    5.2602    3.3103 H   0  0  0  0  0  0  0  0  0  0  0  0
   -2.9133    4.9118    3.2252 H   0  0  0  0  0  0  0  0  0  0  0  0
   -1.0639    3.0735   -0.4681 H   0  0  0  0  0  0  0  0  0  0  0  0
   -0.2660   -0.6517    1.5040 H   0  0  0  0  0  0  0  0  0  0  0  0
   -0.8148   -1.5080    5.0369 H   0  0  0  0  0  0  0  0  0  0  0  0
    0.3592   -1.3169    3.6847 H   0  0  0  0  0  0  0  0  0  0  0  0
   -1.3715   -1.7848    3.3464 H   0  0  0  0  0  0  0  0  0  0  0  0
   -2.1307    3.1442    5.9830 H   0  0  0  0  0  0  0  0  0  0  0  0
   -0.7735    2.0524    5.5531 H   0  0  0  0  0  0  0  0  0  0  0  0
   -2.5128    1.5084    5.3530 H   0  0  0  0  0  0  0  0  0  0  0  0
    0.4900   -0.3652   -0.5519 H   0  0  0  0  0  0  0  0  0  0  0  0
   -1.1306   -0.9683   -1.7301 H   0  0  0  0  0  0  0  0  0  0  0  0
    0.8516   -0.4717   -3.1962 H   0  0  0  0  0  0  0  0  0  0  0  0
   -0.0942    0.9567   -3.7398 H   0  0  0  0  0  0  0  0  0  0  0  0
   -0.8305   -2.0374   -4.0330 H   0  0  0  0  0  0  0  0  0  0  0  0
   -0.3816   -0.8211   -5.2995 H   0  0  0  0  0  0  0  0  0  0  0  0
   -2.8515    0.4259   -1.2621 H   0  0  0  0  0  0  0  0  0  0  0  0
   -2.1274    1.7905   -2.2029 H   0  0  0  0  0  0  0  0  0  0  0  0
   -4.9315    0.9720   -3.2271 H   0  0  0  0  0  0  0  0  0  0  0  0
   -2.1725   -1.9040   -6.8844 H   0  0  0  0  0  0  0  0  0  0  0  0
   -4.1778   -1.9851   -8.3718 H   0  0  0  0  0  0  0  0  0  0  0  0
   -6.3081   -0.9103   -7.6536 H   0  0  0  0  0  0  0  0  0  0  0  0
   -6.4415    0.2702   -5.4459 H   0  0  0  0  0  0  0  0  0  0  0  0
    3.6616   -0.3411   -2.5310 H   0  0  0  0  0  0  0  0  0  0  0  0
    1.7886   -1.6816   -1.5817 H   0  0  0  0  0  0  0  0  0  0  0  0
    2.3011   -1.1782    0.1059 H   0  0  0  0  0  0  0  0  0  0  0  0
    3.9341   -2.7850   -1.9403 H   0  0  0  0  0  0  0  0  0  0  0  0
    3.0973   -3.4319   -0.4823 H   0  0  0  0  0  0  0  0  0  0  0  0
    5.5338   -3.0468   -0.0403 H   0  0  0  0  0  0  0  0  0  0  0  0
    4.4993   -2.0001    1.0008 H   0  0  0  0  0  0  0  0  0  0  0  0
    5.8839   -1.1574   -1.6319 H   0  0  0  0  0  0  0  0  0  0  0  0
    6.3923   -0.6884    0.0313 H   0  0  0  0  0  0  0  0  0  0  0  0
    5.0844    1.1161   -1.0738 H   0  0  0  0  0  0  0  0  0  0  0  0
    4.2200    0.5073    0.3850 H   0  0  0  0  0  0  0  0  0  0  0  0
  1 38  1  0  0  0  0
  1 39  1  0  0  0  0
  1 40  1  0  0  0  0
  2  1  1  0  0  0  0
  3  2  1  0  0  0  0
  4  3  2  0  0  0  0
  4 41  1  0  0  0  0
  5  4  1  0  0  0  0
  6  5  2  0  0  0  0
  6 42  1  0  0  0  0
  7  6  1  0  0  0  0
  8  7  1  0  0  0  0
  9  8  1  0  0  0  0
  9 43  1  0  0  0  0
  9 44  1  0  0  0  0
  9 45  1  0  0  0  0
 10  7  2  0  0  0  0
 10  3  1  0  0  0  0
 11 10  1  0  0  0  0
 12 11  1  0  0  0  0
 12 46  1  0  0  0  0
 12 47  1  0  0  0  0
 12 48  1  0  0  0  0
 13  5  1  0  0  0  0
 13 49  1  1  0  0  0
 14 13  1  0  0  0  0
 14 50  1  1  0  0  0
 15 14  1  0  0  0  0
 15 51  1  0  0  0  0
 15 52  1  0  0  0  0
 16 15  1  0  0  0  0
 16 53  1  0  0  0  0
 16 54  1  0  0  0  0
 17 16  1  0  0  0  0
 18 17  2  0  0  0  0
 19 18  1  0  0  0  0
 19 14  1  0  0  0  0
 19 55  1  0  0  0  0
 19 56  1  0  0  0  0
 20 18  1  0  0  0  0
 20 57  1  0  0  0  0
 21 20  1  0  0  0  0
 22 21  2  0  0  0  0
 22 17  1  0  0  0  0
 23 22  1  0  0  0  0
 23 58  1  0  0  0  0
 24 23  2  0  0  0  0
 24 59  1  0  0  0  0
 25 24  1  0  0  0  0
 25 60  1  0  0  0  0
 26 25  2  0  0  0  0
 26 21  1  0  0  0  0
 26 61  1  0  0  0  0
 27 13  1  0  0  0  0
 28 27  2  0  0  0  0
 29 28  1  0  0  0  0
 30 29  2  0  0  0  0
 31 30  1  0  0  0  0
 31 27  1  0  0  0  0
 32 31  1  0  0  0  0
 32 62  1  0  0  0  0
 33 32  1  0  0  0  0
 33 63  1  0  0  0  0
 33 64  1  0  0  0  0
 34 33  1  0  0  0  0
 34 65  1  0  0  0  0
 34 66  1  0  0  0  0
 35 34  1  0  0  0  0
 35 67  1  0  0  0  0
 35 68  1  0  0  0  0
 36 35  1  0  0  0  0
 36 69  1  0  0  0  0
 36 70  1  0  0  0  0
 37 36  1  0  0  0  0
 37 32  1  0  0  0  0
 37 71  1  0  0  0  0
 37 72  1  0  0  0  0
M  CHG  1  14   1
M  END
>  <MOL Chiral Flag>
0

>  <energy>
111.31219939903362

$$$$
> 342_AKC_j.ejmech.2017.08.055
>327.sdf
 OpenBabel10062212413D

 32 32  0  0  0  0  0  0  0  0999 V2000
   -5.7285   -4.2528   -2.6541 C   0  0  0  0  0  0  0  0  0  0  0  0
   -4.7566   -4.2080   -1.4786 C   0  0  0  0  0  0  0  0  0  0  0  0
   -3.4759   -3.4503   -1.8477 C   0  0  0  0  0  0  0  0  0  0  0  0
   -2.5784   -3.2562   -0.6198 C   0  0  0  0  0  0  0  0  0  0  0  0
   -1.2450   -2.5919   -1.0054 C   0  0  0  0  0  0  0  0  0  0  0  0
   -0.4365   -2.1322    0.1957 C   0  0  0  0  0  0  0  0  0  0  0  0
   -0.9219   -2.2631    1.3110 O   0  0  0  0  0  0  0  0  0  0  0  0
    0.9090   -1.4605    0.0562 C   0  0  0  0  0  0  0  0  0  0  0  0
    1.4536   -0.7333    1.1412 C   0  0  0  0  0  0  0  0  0  0  0  0
    0.7727   -0.6056    2.3009 O   0  0  0  0  0  0  0  0  0  0  0  0
    2.7006   -0.1198    1.0055 C   0  0  0  0  0  0  0  0  0  0  0  0
    3.3948   -0.2415   -0.1966 C   0  0  0  0  0  0  0  0  0  0  0  0
    4.7389    0.3933   -0.3549 C   0  0  0  0  0  0  0  0  0  0  0  0
    2.8662   -0.9219   -1.2066 O   0  0  0  0  0  0  0  0  0  0  0  0
    1.6778   -1.5171   -1.1384 C   0  0  0  0  0  0  0  0  0  0  0  0
    1.2786   -2.1243   -2.1132 O   0  0  0  0  0  0  0  0  0  0  0  0
   -6.6325   -4.8306   -2.3681 H   0  0  0  0  0  0  0  0  0  0  0  0
   -5.2576   -4.7341   -3.5368 H   0  0  0  0  0  0  0  0  0  0  0  0
   -6.0418   -3.2211   -2.9244 H   0  0  0  0  0  0  0  0  0  0  0  0
   -5.2669   -3.7082   -0.6269 H   0  0  0  0  0  0  0  0  0  0  0  0
   -4.4913   -5.2451   -1.1762 H   0  0  0  0  0  0  0  0  0  0  0  0
   -2.9377   -4.0137   -2.6413 H   0  0  0  0  0  0  0  0  0  0  0  0
   -3.7390   -2.4429   -2.2412 H   0  0  0  0  0  0  0  0  0  0  0  0
   -3.1341   -2.6145    0.0990 H   0  0  0  0  0  0  0  0  0  0  0  0
   -2.3593   -4.2331   -0.1334 H   0  0  0  0  0  0  0  0  0  0  0  0
   -0.6830   -3.3318   -1.6114 H   0  0  0  0  0  0  0  0  0  0  0  0
   -1.4480   -1.6862   -1.6174 H   0  0  0  0  0  0  0  0  0  0  0  0
    1.1139   -0.0835    3.0412 H   0  0  0  0  0  0  0  0  0  0  0  0
    3.1261    0.4441    1.8272 H   0  0  0  0  0  0  0  0  0  0  0  0
    5.1497    0.1808   -1.3644 H   0  0  0  0  0  0  0  0  0  0  0  0
    5.4377   -0.0137    0.4065 H   0  0  0  0  0  0  0  0  0  0  0  0
    4.6549    1.4925   -0.2251 H   0  0  0  0  0  0  0  0  0  0  0  0
  1 17  1  0  0  0  0
  1 18  1  0  0  0  0
  1 19  1  0  0  0  0
  2  1  1  0  0  0  0
  2 20  1  0  0  0  0
  2 21  1  0  0  0  0
  3  2  1  0  0  0  0
  3 22  1  0  0  0  0
  3 23  1  0  0  0  0
  4  3  1  0  0  0  0
  4 24  1  0  0  0  0
  4 25  1  0  0  0  0
  5  4  1  0  0  0  0
  5 26  1  0  0  0  0
  5 27  1  0  0  0  0
  6  5  1  0  0  0  0
  7  6  2  0  0  0  0
  8  6  1  0  0  0  0
  9  8  2  0  0  0  0
 10  9  1  0  0  0  0
 10 28  1  0  0  0  0
 11  9  1  0  0  0  0
 11 29  1  0  0  0  0
 12 11  2  0  0  0  0
 13 12  1  0  0  0  0
 13 30  1  0  0  0  0
 13 31  1  0  0  0  0
 13 32  1  0  0  0  0
 14 12  1  0  0  0  0
 15 14  1  0  0  0  0
 15  8  1  0  0  0  0
 16 15  2  0  0  0  0
M  END
>  <MOL Chiral Flag>
0

>  <energy>
15.161691997332079

$$$$
> 343_AKC_PMC5629310
>328.sdf
 OpenBabel10062212413D

 32 34  0  0  0  0  0  0  0  0999 V2000
   -4.6469    1.9985    0.7017 O   0  0  0  0  0  0  0  0  0  0  0  0
   -4.1248    0.9795   -0.1118 C   0  0  0  0  0  0  0  0  0  0  0  0
   -3.7330   -0.2091    0.7830 C   0  0  0  0  0  0  0  0  0  0  0  0
   -3.0476   -1.2941   -0.0447 C   0  0  0  0  0  0  0  0  0  0  0  0
   -1.9310   -0.6928   -0.7503 N   0  0  0  0  0  0  0  0  0  0  0  0
   -2.2342    0.3732   -1.6902 C   0  0  0  0  0  0  0  0  0  0  0  0
   -2.8978    1.5064   -0.8866 C   0  0  0  0  0  0  0  0  0  0  0  0
   -0.6081   -0.8474   -0.2504 C   0  0  0  0  0  0  0  0  0  0  0  0
   -0.3357   -1.1086    1.0572 N   0  0  0  0  0  0  0  0  0  0  0  0
    0.9695   -0.9895    1.3699 N   0  0  0  0  0  0  0  0  0  0  0  0
    1.7550   -0.6502    0.3122 C   0  0  0  0  0  0  0  0  0  0  0  0
    0.8032   -0.4759   -1.0246 S   0  0  0  0  0  0  0  0  0  0  0  0
    3.2013   -0.4593    0.3914 C   0  0  0  0  0  0  0  0  0  0  0  0
    3.9382   -0.2127    1.5560 C   0  0  0  0  0  0  0  0  0  0  0  0
    5.3349   -0.0847    1.3193 C   0  0  0  0  0  0  0  0  0  0  0  0
    5.6760   -0.2555   -0.0272 C   0  0  0  0  0  0  0  0  0  0  0  0
    4.2723   -0.5116   -0.8738 S   0  0  0  0  0  0  0  0  0  0  0  0
    6.9844   -0.2363   -0.5723 N   0  0  0  0  0  0  0  0  0  0  0  0
    7.9256   -0.0319    0.1348 O   0  0  0  0  0  0  0  0  0  0  0  0
    7.1556   -0.4774   -1.7274 O   0  0  0  0  0  0  0  0  0  0  0  0
   -5.4246    2.3901    0.2280 H   0  0  0  0  0  0  0  0  0  0  0  0
   -4.8882    0.6217   -0.8430 H   0  0  0  0  0  0  0  0  0  0  0  0
   -4.6263   -0.6275    1.2941 H   0  0  0  0  0  0  0  0  0  0  0  0
   -3.0143    0.1365    1.5590 H   0  0  0  0  0  0  0  0  0  0  0  0
   -2.7147   -2.1195    0.6211 H   0  0  0  0  0  0  0  0  0  0  0  0
   -3.7551   -1.7299   -0.7859 H   0  0  0  0  0  0  0  0  0  0  0  0
   -1.3238    0.7762   -2.1819 H   0  0  0  0  0  0  0  0  0  0  0  0
   -2.9136   -0.0036   -2.4854 H   0  0  0  0  0  0  0  0  0  0  0  0
   -2.1522    1.8936   -0.1544 H   0  0  0  0  0  0  0  0  0  0  0  0
   -3.1883    2.3414   -1.5581 H   0  0  0  0  0  0  0  0  0  0  0  0
    3.4908   -0.1124    2.5366 H   0  0  0  0  0  0  0  0  0  0  0  0
    6.0534    0.1128    2.1036 H   0  0  0  0  0  0  0  0  0  0  0  0
  1 21  1  0  0  0  0
  2  1  1  0  0  0  0
  2 22  1  0  0  0  0
  3  2  1  0  0  0  0
  3 23  1  0  0  0  0
  3 24  1  0  0  0  0
  4  3  1  0  0  0  0
  4 25  1  0  0  0  0
  4 26  1  0  0  0  0
  5  4  1  0  0  0  0
  6  5  1  0  0  0  0
  6 27  1  0  0  0  0
  6 28  1  0  0  0  0
  7  6  1  0  0  0  0
  7  2  1  0  0  0  0
  7 29  1  0  0  0  0
  7 30  1  0  0  0  0
  8  5  1  0  0  0  0
  9  8  2  0  0  0  0
 10  9  1  0  0  0  0
 11 10  2  0  0  0  0
 12 11  1  0  0  0  0
 12  8  1  0  0  0  0
 13 11  1  0  0  0  0
 14 13  2  0  0  0  0
 14 31  1  0  0  0  0
 15 14  1  0  0  0  0
 15 32  1  0  0  0  0
 16 15  2  0  0  0  0
 17 16  1  0  0  0  0
 17 13  1  0  0  0  0
 18 16  1  0  0  0  0
 19 18  2  0  0  0  0
 20 18  2  0  0  0  0
M  END
>  <MOL Chiral Flag>
0

>  <energy>
34.314983094410366

$$$$
> 344_AKC_C7RA01070B
>329.sdf
 OpenBabel10062212423D

 60 65  0  0  0  0  0  0  0  0999 V2000
    6.6196   -5.5580    1.7165 C   0  0  0  0  0  0  0  0  0  0  0  0
    7.0792   -4.3989    0.8751 C   0  0  0  0  0  0  0  0  0  0  0  0
    8.3860   -3.9945    0.7245 C   0  0  0  0  0  0  0  0  0  0  0  0
    9.5705   -4.4944    1.2629 C   0  0  0  0  0  0  0  0  0  0  0  0
   10.7711   -3.8733    0.8793 C   0  0  0  0  0  0  0  0  0  0  0  0
   10.7492   -2.7807   -0.0144 C   0  0  0  0  0  0  0  0  0  0  0  0
    9.5193   -2.3237   -0.5203 C   0  0  0  0  0  0  0  0  0  0  0  0
    8.3883   -2.9609   -0.1263 N   0  0  0  0  0  0  0  0  0  0  0  0
    7.1452   -2.7195   -0.5135 N   0  0  0  0  0  0  0  0  0  0  0  0
    6.3258   -3.5856    0.0787 N   0  3  0  0  0  0  0  0  0  0  0  0
    4.8948   -3.7030   -0.2317 C   0  0  0  0  0  0  0  0  0  0  0  0
    4.0497   -2.4668    0.0023 C   0  0  0  0  0  0  0  0  0  0  0  0
    4.2652   -1.2882   -0.7250 C   0  0  0  0  0  0  0  0  0  0  0  0
    3.3675   -0.2135   -0.6212 C   0  0  0  0  0  0  0  0  0  0  0  0
    2.2299   -0.2899    0.2235 C   0  0  0  0  0  0  0  0  0  0  0  0
    2.0629   -1.4658    0.9896 C   0  0  0  0  0  0  0  0  0  0  0  0
    2.9552   -2.5342    0.8744 C   0  0  0  0  0  0  0  0  0  0  0  0
    1.1811    0.8086    0.2557 C   0  0  0  0  0  0  0  0  0  0  0  0
    1.1091    1.7716   -0.7760 C   0  0  0  0  0  0  0  0  0  0  0  0
    0.0936    2.7320   -0.7933 C   0  0  0  0  0  0  0  0  0  0  0  0
   -0.8815    2.7747    0.2128 C   0  0  0  0  0  0  0  0  0  0  0  0
   -1.9684    3.8297    0.0999 C   0  0  0  0  0  0  0  0  0  0  0  0
   -3.0262    3.8037    1.1192 N   0  3  0  0  0  0  0  0  0  0  0  0
   -3.2614    4.8212    1.9436 N   0  0  0  0  0  0  0  0  0  0  0  0
   -4.3355    4.5582    2.6688 N   0  0  0  0  0  0  0  0  0  0  0  0
   -4.9141    5.3541    3.6022 C   0  0  0  0  0  0  0  0  0  0  0  0
   -6.0771    4.8922    4.2390 C   0  0  0  0  0  0  0  0  0  0  0  0
   -6.6014    3.6282    3.8949 C   0  0  0  0  0  0  0  0  0  0  0  0
   -5.9649    2.8399    2.9189 C   0  0  0  0  0  0  0  0  0  0  0  0
   -4.8145    3.3561    2.3200 C   0  0  0  0  0  0  0  0  0  0  0  0
   -3.9882    2.8618    1.3272 C   0  0  0  0  0  0  0  0  0  0  0  0
   -4.1423    1.5727    0.5740 C   0  0  0  0  0  0  0  0  0  0  0  0
   -0.8061    1.8477    1.2624 C   0  0  0  0  0  0  0  0  0  0  0  0
    0.2034    0.8738    1.2809 C   0  0  0  0  0  0  0  0  0  0  0  0
    7.1061   -6.4874    1.3529 H   0  0  0  0  0  0  0  0  0  0  0  0
    5.5275   -5.7150    1.7035 H   0  0  0  0  0  0  0  0  0  0  0  0
    6.9213   -5.3859    2.7705 H   0  0  0  0  0  0  0  0  0  0  0  0
    9.5712   -5.3397    1.9395 H   0  0  0  0  0  0  0  0  0  0  0  0
   11.7145   -4.2384    1.2653 H   0  0  0  0  0  0  0  0  0  0  0  0
   11.6742   -2.3051   -0.3137 H   0  0  0  0  0  0  0  0  0  0  0  0
    9.4776   -1.4954   -1.2153 H   0  0  0  0  0  0  0  0  0  0  0  0
    4.8022   -3.9575   -1.3085 H   0  0  0  0  0  0  0  0  0  0  0  0
    4.4513   -4.5514    0.3173 H   0  0  0  0  0  0  0  0  0  0  0  0
    5.0991   -1.2155   -1.4116 H   0  0  0  0  0  0  0  0  0  0  0  0
    3.5642    0.6581   -1.2250 H   0  0  0  0  0  0  0  0  0  0  0  0
    1.2142   -1.6037    1.6380 H   0  0  0  0  0  0  0  0  0  0  0  0
    2.7608   -3.4388    1.4370 H   0  0  0  0  0  0  0  0  0  0  0  0
    1.8051    1.7739   -1.5993 H   0  0  0  0  0  0  0  0  0  0  0  0
    0.0543    3.4406   -1.6127 H   0  0  0  0  0  0  0  0  0  0  0  0
   -1.4661    4.8211    0.1281 H   0  0  0  0  0  0  0  0  0  0  0  0
   -2.4591    3.7293   -0.8923 H   0  0  0  0  0  0  0  0  0  0  0  0
   -4.4970    6.3239    3.8420 H   0  0  0  0  0  0  0  0  0  0  0  0
   -6.5711    5.5029    4.9841 H   0  0  0  0  0  0  0  0  0  0  0  0
   -7.5000    3.2674    4.3791 H   0  0  0  0  0  0  0  0  0  0  0  0
   -6.3659    1.8740    2.6440 H   0  0  0  0  0  0  0  0  0  0  0  0
   -5.0344    1.0138    0.9227 H   0  0  0  0  0  0  0  0  0  0  0  0
   -4.2626    1.7884   -0.5069 H   0  0  0  0  0  0  0  0  0  0  0  0
   -3.2595    0.9226    0.7200 H   0  0  0  0  0  0  0  0  0  0  0  0
   -1.5299    1.8623    2.0650 H   0  0  0  0  0  0  0  0  0  0  0  0
    0.2046    0.1806    2.1053 H   0  0  0  0  0  0  0  0  0  0  0  0
  1 35  1  0  0  0  0
  1 36  1  0  0  0  0
  1 37  1  0  0  0  0
  2  1  1  0  0  0  0
  3  2  2  0  0  0  0
  4  3  1  0  0  0  0
  4 38  1  0  0  0  0
  5  4  2  0  0  0  0
  5 39  1  0  0  0  0
  6  5  1  0  0  0  0
  6 40  1  0  0  0  0
  7  6  2  0  0  0  0
  7 41  1  0  0  0  0
  8  7  1  0  0  0  0
  8  3  1  0  0  0  0
  9  8  1  0  0  0  0
 10  9  2  0  0  0  0
 10  2  1  0  0  0  0
 11 10  1  0  0  0  0
 11 42  1  0  0  0  0
 11 43  1  0  0  0  0
 12 11  1  0  0  0  0
 13 12  2  0  0  0  0
 13 44  1  0  0  0  0
 14 13  1  0  0  0  0
 14 45  1  0  0  0  0
 15 14  2  0  0  0  0
 16 15  1  0  0  0  0
 16 46  1  0  0  0  0
 17 16  2  0  0  0  0
 17 12  1  0  0  0  0
 17 47  1  0  0  0  0
 18 15  1  0  0  0  0
 19 18  2  0  0  0  0
 19 48  1  0  0  0  0
 20 19  1  0  0  0  0
 20 49  1  0  0  0  0
 21 20  2  0  0  0  0
 22 21  1  0  0  0  0
 22 50  1  0  0  0  0
 22 51  1  0  0  0  0
 23 22  1  0  0  0  0
 24 23  2  0  0  0  0
 25 24  1  0  0  0  0
 26 25  1  0  0  0  0
 26 52  1  0  0  0  0
 27 26  2  0  0  0  0
 27 53  1  0  0  0  0
 28 27  1  0  0  0  0
 28 54  1  0  0  0  0
 29 28  2  0  0  0  0
 29 55  1  0  0  0  0
 30 29  1  0  0  0  0
 30 25  1  0  0  0  0
 31 30  2  0  0  0  0
 31 23  1  0  0  0  0
 32 31  1  0  0  0  0
 32 56  1  0  0  0  0
 32 57  1  0  0  0  0
 32 58  1  0  0  0  0
 33 21  1  0  0  0  0
 33 59  1  0  0  0  0
 34 33  2  0  0  0  0
 34 18  1  0  0  0  0
 34 60  1  0  0  0  0
M  CHG  2  10   1  23   1
M  END
>  <MOL Chiral Flag>
0

>  <energy>
262.9095203686079

$$$$
> 345_AKC_j.ejmech.2017.01.029
>330.sdf
 OpenBabel10062212423D

 34 37  0  0  0  0  0  0  0  0999 V2000
   -7.7272   -0.2858   -0.9742 Cl  0  0  0  0  0  0  0  0  0  0  0  0
   -6.5151   -1.2693   -1.8367 C   0  0  0  0  0  0  0  0  0  0  0  0
   -5.1442   -1.0280   -1.2892 C   0  0  0  0  0  0  0  0  0  0  0  0
   -4.8908   -1.2826    0.0638 C   0  0  0  0  0  0  0  0  0  0  0  0
   -3.6190   -1.0944    0.5822 C   0  0  0  0  0  0  0  0  0  0  0  0
   -2.5729   -0.6674   -0.2450 C   0  0  0  0  0  0  0  0  0  0  0  0
   -2.8175   -0.4044   -1.6012 C   0  0  0  0  0  0  0  0  0  0  0  0
   -4.1036   -0.5750   -2.1199 C   0  0  0  0  0  0  0  0  0  0  0  0
   -1.2494   -0.5016    0.3478 C   0  0  0  0  0  0  0  0  0  0  0  0
   -0.0345   -0.3062   -0.2806 C   0  0  0  0  0  0  0  0  0  0  0  0
    0.8604   -0.2013    0.7645 C   0  0  0  0  0  0  0  0  0  0  0  0
    0.1934   -0.3371    1.9273 N   0  0  0  0  0  0  0  0  0  0  0  0
   -1.0529   -0.5201    1.6435 O   0  0  0  0  0  0  0  0  0  0  0  0
    2.3123    0.0048    0.7186 C   0  0  0  0  0  0  0  0  0  0  0  0
    3.0354    0.0632   -0.4992 C   0  0  0  0  0  0  0  0  0  0  0  0
    4.4199    0.2197   -0.4161 C   0  0  0  0  0  0  0  0  0  0  0  0
    5.0574    0.3277    0.7578 C   0  0  0  0  0  0  0  0  0  0  0  0
    6.3644    0.4409    0.5443 O   0  0  0  0  0  0  0  0  0  0  0  0
    6.5904    0.3873   -0.8326 C   0  0  0  0  0  0  0  0  0  0  0  0
    5.3159    0.2654   -1.4019 O   0  0  0  0  0  0  0  0  0  0  0  0
    4.3914    0.2981    1.9724 C   0  0  0  0  0  0  0  0  0  0  0  0
    3.0052    0.1297    1.9503 C   0  0  0  0  0  0  0  0  0  0  0  0
   -6.5640   -1.0329   -2.9192 H   0  0  0  0  0  0  0  0  0  0  0  0
   -6.7541   -2.3445   -1.6973 H   0  0  0  0  0  0  0  0  0  0  0  0
   -5.6793   -1.6320    0.7176 H   0  0  0  0  0  0  0  0  0  0  0  0
   -3.4429   -1.3013    1.6311 H   0  0  0  0  0  0  0  0  0  0  0  0
   -2.0230   -0.0602   -2.2520 H   0  0  0  0  0  0  0  0  0  0  0  0
   -4.2844   -0.3656   -3.1666 H   0  0  0  0  0  0  0  0  0  0  0  0
    0.1657   -0.2580   -1.3438 H   0  0  0  0  0  0  0  0  0  0  0  0
    2.5484   -0.0299   -1.4626 H   0  0  0  0  0  0  0  0  0  0  0  0
    7.0897    1.3172   -1.1735 H   0  0  0  0  0  0  0  0  0  0  0  0
    7.2065   -0.5038   -1.0775 H   0  0  0  0  0  0  0  0  0  0  0  0
    4.9211    0.3864    2.9096 H   0  0  0  0  0  0  0  0  0  0  0  0
    2.4688    0.0891    2.8897 H   0  0  0  0  0  0  0  0  0  0  0  0
  2  1  1  0  0  0  0
  2 23  1  0  0  0  0
  2 24  1  0  0  0  0
  3  2  1  0  0  0  0
  4  3  2  0  0  0  0
  4 25  1  0  0  0  0
  5  4  1  0  0  0  0
  5 26  1  0  0  0  0
  6  5  2  0  0  0  0
  7  6  1  0  0  0  0
  7 27  1  0  0  0  0
  8  7  2  0  0  0  0
  8  3  1  0  0  0  0
  8 28  1  0  0  0  0
  9  6  1  0  0  0  0
 10  9  2  0  0  0  0
 10 29  1  0  0  0  0
 11 10  1  0  0  0  0
 12 11  2  0  0  0  0
 13 12  1  0  0  0  0
 13  9  1  0  0  0  0
 14 11  1  0  0  0  0
 15 14  2  0  0  0  0
 15 30  1  0  0  0  0
 16 15  1  0  0  0  0
 17 16  2  0  0  0  0
 18 17  1  0  0  0  0
 19 18  1  0  0  0  0
 19 31  1  0  0  0  0
 19 32  1  0  0  0  0
 20 19  1  0  0  0  0
 20 16  1  0  0  0  0
 21 17  1  0  0  0  0
 21 33  1  0  0  0  0
 22 21  2  0  0  0  0
 22 14  1  0  0  0  0
 22 34  1  0  0  0  0
M  END
>  <MOL Chiral Flag>
0

>  <energy>
60.23313374615752

$$$$
> 346_AKC_j.ejmech.2017.01.022
>331.sdf
 OpenBabel10062212433D

 30 32  0  0  0  0  0  0  0  0999 V2000
   -5.5797   -1.2738    1.9483 O   0  5  0  0  0  0  0  0  0  0  0  0
   -6.2615   -0.9625    0.8704 N   0  3  0  0  0  0  0  0  0  0  0  0
   -7.3665   -1.3990    0.7219 O   0  0  0  0  0  0  0  0  0  0  0  0
   -5.6852   -0.1362   -0.1247 C   0  0  0  0  0  0  0  0  0  0  0  0
   -6.3105    0.3304   -1.2650 C   0  0  0  0  0  0  0  0  0  0  0  0
   -5.3593    1.0565   -1.9460 C   0  0  0  0  0  0  0  0  0  0  0  0
   -4.2130    0.9599   -1.2013 C   0  0  0  0  0  0  0  0  0  0  0  0
   -4.4307    0.2458   -0.1173 O   0  0  0  0  0  0  0  0  0  0  0  0
   -2.9006    1.3583   -1.6729 C   0  0  0  0  0  0  0  0  0  0  0  0
   -1.9175    0.7008   -1.2081 N   0  0  0  0  0  0  0  0  0  0  0  0
   -0.6794    0.6867   -1.7888 N   0  0  0  0  0  0  0  0  0  0  0  0
    0.4007    0.6098   -0.8982 C   0  0  0  0  0  0  0  0  0  0  0  0
    0.2758    1.2878    0.2704 N   0  0  0  0  0  0  0  0  0  0  0  0
    1.1915    1.2377    1.2262 N   0  0  0  0  0  0  0  0  0  0  0  0
    2.2947    0.4709    1.1042 C   0  0  0  0  0  0  0  0  0  0  0  0
    3.4163    0.4385    2.4540 Cl  0  0  0  0  0  0  0  0  0  0  0  0
    2.4907   -0.2856   -0.0688 C   0  0  0  0  0  0  0  0  0  0  0  0
    3.6012   -1.1320   -0.2071 C   0  0  0  0  0  0  0  0  0  0  0  0
    3.7658   -1.8990   -1.3583 C   0  0  0  0  0  0  0  0  0  0  0  0
    2.8318   -1.8279   -2.3908 C   0  0  0  0  0  0  0  0  0  0  0  0
    1.7171   -0.9903   -2.2777 C   0  0  0  0  0  0  0  0  0  0  0  0
    1.5323   -0.2085   -1.1111 C   0  0  0  0  0  0  0  0  0  0  0  0
   -7.3221    0.1360   -1.5861 H   0  0  0  0  0  0  0  0  0  0  0  0
   -5.4538    1.5277   -2.9134 H   0  0  0  0  0  0  0  0  0  0  0  0
   -2.7792    2.0195   -2.5240 H   0  0  0  0  0  0  0  0  0  0  0  0
   -0.6001    0.3970   -2.7760 H   0  0  0  0  0  0  0  0  0  0  0  0
    4.3345   -1.2156    0.5813 H   0  0  0  0  0  0  0  0  0  0  0  0
    4.6199   -2.5570   -1.4442 H   0  0  0  0  0  0  0  0  0  0  0  0
    2.9688   -2.4338   -3.2782 H   0  0  0  0  0  0  0  0  0  0  0  0
    1.0122   -0.9796   -3.0967 H   0  0  0  0  0  0  0  0  0  0  0  0
  2  1  1  0  0  0  0
  3  2  2  0  0  0  0
  4  2  1  0  0  0  0
  5  4  2  0  0  0  0
  5 23  1  0  0  0  0
  6  5  1  0  0  0  0
  6 24  1  0  0  0  0
  7  6  2  0  0  0  0
  8  7  1  0  0  0  0
  8  4  1  0  0  0  0
  9  7  1  0  0  0  0
  9 25  1  0  0  0  0
 10  9  2  0  0  0  0
 11 10  1  0  0  0  0
 11 26  1  0  0  0  0
 12 11  1  0  0  0  0
 13 12  2  0  0  0  0
 14 13  1  0  0  0  0
 15 14  2  0  0  0  0
 16 15  1  0  0  0  0
 17 15  1  0  0  0  0
 18 17  2  0  0  0  0
 18 27  1  0  0  0  0
 19 18  1  0  0  0  0
 19 28  1  0  0  0  0
 20 19  2  0  0  0  0
 20 29  1  0  0  0  0
 21 20  1  0  0  0  0
 21 30  1  0  0  0  0
 22 21  2  0  0  0  0
 22 12  1  0  0  0  0
 22 17  1  0  0  0  0
M  CHG  2   1  -1   2   1
M  END
>  <MOL Chiral Flag>
0

>  <energy>
168.48419843832087

$$$$
> 347_AKC_j.bmc.2016.10.013
>332.sdf
 OpenBabel10062212443D

 77 78  0  0  0  0  0  0  0  0999 V2000
    6.4900   -2.5149   -1.1512 C   0  0  0  0  0  0  0  0  0  0  0  0
    5.7125   -3.7848   -0.7248 C   0  0  0  0  0  0  0  0  0  0  0  0
    5.7310   -3.8672    0.8083 C   0  0  0  0  0  0  0  0  0  0  0  0
    6.4178   -5.0175   -1.3110 C   0  0  0  0  0  0  0  0  0  0  0  0
    4.3688   -3.8093   -1.1140 O   0  0  0  0  0  0  0  0  0  0  0  0
    3.6624   -2.9290   -1.8800 C   0  0  0  0  0  0  0  0  0  0  0  0
    4.2353   -2.1254   -2.6007 O   0  0  0  0  0  0  0  0  0  0  0  0
    2.3017   -2.9679   -1.8533 N   0  0  0  0  0  0  0  0  0  0  0  0
    1.4889   -2.0466   -2.6306 C   0  0  0  0  0  0  0  0  0  0  0  0
    1.6512   -0.5893   -2.1483 C   0  0  0  0  0  0  0  0  0  0  0  0
    1.0303   -0.3645   -0.7609 C   0  0  0  0  0  0  0  0  0  0  0  0
    1.2489    1.0939   -0.2778 C   0  0  0  0  0  0  0  0  0  0  0  0
    0.5092    1.4955    0.9350 N   0  0  0  0  0  0  0  0  0  0  0  0
   -0.3890    0.5000    1.5651 C   0  0  0  0  0  0  0  0  0  0  0  0
   -1.2141    0.8884    2.8088 C   0  0  0  0  0  0  0  0  0  0  0  0
   -1.9618   -0.2805    3.4955 C   0  0  0  0  0  0  0  0  0  0  0  0
   -2.9390   -0.9726    2.6649 N   0  0  0  0  0  0  0  0  0  0  0  0
   -2.5960   -1.8796    1.7082 C   0  0  0  0  0  0  0  0  0  0  0  0
   -1.4215   -2.1271    1.4867 O   0  0  0  0  0  0  0  0  0  0  0  0
   -3.5779   -2.5515    1.0438 O   0  0  0  0  0  0  0  0  0  0  0  0
   -3.4440   -3.3296   -0.1058 C   0  0  0  0  0  0  0  0  0  0  0  0
   -2.3935   -4.4539    0.0573 C   0  0  0  0  0  0  0  0  0  0  0  0
   -4.8076   -3.9859   -0.3708 C   0  0  0  0  0  0  0  0  0  0  0  0
   -3.0769   -2.4297   -1.2996 C   0  0  0  0  0  0  0  0  0  0  0  0
    0.6662    2.7874    1.4195 C   0  0  0  0  0  0  0  0  0  0  0  0
   -0.0061    3.1887    2.3547 O   0  0  0  0  0  0  0  0  0  0  0  0
    1.6692    3.7758    0.8522 C   0  0  0  0  0  0  0  0  0  0  0  0
    2.4576    4.2472    1.9308 O   0  0  0  0  0  0  0  0  0  0  0  0
    3.7510    3.8231    1.8130 N   0  0  0  0  0  0  0  0  0  0  0  0
    4.1596    2.6197    1.4156 N   0  0  0  0  0  0  0  0  0  0  0  0
    5.4895    2.5410    1.4932 N   0  0  0  0  0  0  0  0  0  0  0  0
    5.9136    3.7263    1.9761 C   0  0  0  0  0  0  0  0  0  0  0  0
    7.2060    4.1501    2.2699 C   0  0  0  0  0  0  0  0  0  0  0  0
    7.3601    5.4489    2.8011 C   0  0  0  0  0  0  0  0  0  0  0  0
    6.2260    6.2734    3.0188 C   0  0  0  0  0  0  0  0  0  0  0  0
    4.9345    5.8042    2.7027 C   0  0  0  0  0  0  0  0  0  0  0  0
    4.8315    4.5196    2.1792 C   0  0  0  0  0  0  0  0  0  0  0  0
    5.9950   -1.6009   -0.7567 H   0  0  0  0  0  0  0  0  0  0  0  0
    7.5267   -2.5397   -0.7521 H   0  0  0  0  0  0  0  0  0  0  0  0
    6.5779   -2.4434   -2.2560 H   0  0  0  0  0  0  0  0  0  0  0  0
    6.7720   -3.8856    1.1968 H   0  0  0  0  0  0  0  0  0  0  0  0
    5.2105   -4.7872    1.1522 H   0  0  0  0  0  0  0  0  0  0  0  0
    5.2043   -2.9903    1.2437 H   0  0  0  0  0  0  0  0  0  0  0  0
    7.4773   -5.0619   -0.9754 H   0  0  0  0  0  0  0  0  0  0  0  0
    6.4035   -4.9771   -2.4215 H   0  0  0  0  0  0  0  0  0  0  0  0
    5.9085   -5.9510   -0.9897 H   0  0  0  0  0  0  0  0  0  0  0  0
    1.8316   -3.6807   -1.2747 H   0  0  0  0  0  0  0  0  0  0  0  0
    0.4159   -2.3316   -2.5539 H   0  0  0  0  0  0  0  0  0  0  0  0
    1.7807   -2.1285   -3.7001 H   0  0  0  0  0  0  0  0  0  0  0  0
    1.1206    0.0722   -2.8673 H   0  0  0  0  0  0  0  0  0  0  0  0
    2.7187   -0.2916   -2.1468 H   0  0  0  0  0  0  0  0  0  0  0  0
    1.4708   -1.0651   -0.0185 H   0  0  0  0  0  0  0  0  0  0  0  0
   -0.0493   -0.5839   -0.8779 H   0  0  0  0  0  0  0  0  0  0  0  0
    0.9300    1.7708   -1.1011 H   0  0  0  0  0  0  0  0  0  0  0  0
    2.3411    1.2078   -0.1107 H   0  0  0  0  0  0  0  0  0  0  0  0
    0.2463   -0.3585    1.8687 H   0  0  0  0  0  0  0  0  0  0  0  0
   -1.1383    0.1972    0.8087 H   0  0  0  0  0  0  0  0  0  0  0  0
   -1.9523    1.6715    2.5259 H   0  0  0  0  0  0  0  0  0  0  0  0
   -0.5302    1.2767    3.5935 H   0  0  0  0  0  0  0  0  0  0  0  0
   -2.5038    0.1778    4.3526 H   0  0  0  0  0  0  0  0  0  0  0  0
   -1.2479   -1.0178    3.9222 H   0  0  0  0  0  0  0  0  0  0  0  0
   -3.9401   -0.8380    2.8739 H   0  0  0  0  0  0  0  0  0  0  0  0
   -2.6327   -5.0871    0.9376 H   0  0  0  0  0  0  0  0  0  0  0  0
   -1.3636   -4.0628    0.1713 H   0  0  0  0  0  0  0  0  0  0  0  0
   -2.3761   -5.0985   -0.8480 H   0  0  0  0  0  0  0  0  0  0  0  0
   -5.0913   -4.6377    0.4843 H   0  0  0  0  0  0  0  0  0  0  0  0
   -4.7767   -4.6096   -1.2907 H   0  0  0  0  0  0  0  0  0  0  0  0
   -5.5970   -3.2140   -0.4934 H   0  0  0  0  0  0  0  0  0  0  0  0
   -2.0985   -1.9337   -1.1340 H   0  0  0  0  0  0  0  0  0  0  0  0
   -3.8469   -1.6393   -1.4346 H   0  0  0  0  0  0  0  0  0  0  0  0
   -3.0135   -3.0230   -2.2371 H   0  0  0  0  0  0  0  0  0  0  0  0
    2.2701    3.4177   -0.0092 H   0  0  0  0  0  0  0  0  0  0  0  0
    1.1065    4.6438    0.4499 H   0  0  0  0  0  0  0  0  0  0  0  0
    8.0609    3.5070    2.1064 H   0  0  0  0  0  0  0  0  0  0  0  0
    8.3475    5.8164    3.0494 H   0  0  0  0  0  0  0  0  0  0  0  0
    6.3518    7.2656    3.4326 H   0  0  0  0  0  0  0  0  0  0  0  0
    4.0584    6.4178    2.8671 H   0  0  0  0  0  0  0  0  0  0  0  0
  1 38  1  0  0  0  0
  1 39  1  0  0  0  0
  1 40  1  0  0  0  0
  2  1  1  0  0  0  0
  3  2  1  0  0  0  0
  3 41  1  0  0  0  0
  3 42  1  0  0  0  0
  3 43  1  0  0  0  0
  4  2  1  0  0  0  0
  4 44  1  0  0  0  0
  4 45  1  0  0  0  0
  4 46  1  0  0  0  0
  5  2  1  0  0  0  0
  6  5  1  0  0  0  0
  7  6  2  0  0  0  0
  8  6  1  0  0  0  0
  8 47  1  0  0  0  0
  9  8  1  0  0  0  0
  9 48  1  0  0  0  0
  9 49  1  0  0  0  0
 10  9  1  0  0  0  0
 10 50  1  0  0  0  0
 10 51  1  0  0  0  0
 11 10  1  0  0  0  0
 11 52  1  0  0  0  0
 11 53  1  0  0  0  0
 12 11  1  0  0  0  0
 12 54  1  0  0  0  0
 12 55  1  0  0  0  0
 13 12  1  0  0  0  0
 14 13  1  0  0  0  0
 14 56  1  0  0  0  0
 14 57  1  0  0  0  0
 15 14  1  0  0  0  0
 15 58  1  0  0  0  0
 15 59  1  0  0  0  0
 16 15  1  0  0  0  0
 16 60  1  0  0  0  0
 16 61  1  0  0  0  0
 17 16  1  0  0  0  0
 17 62  1  0  0  0  0
 18 17  1  0  0  0  0
 19 18  2  0  0  0  0
 20 18  1  0  0  0  0
 21 20  1  0  0  0  0
 22 21  1  0  0  0  0
 22 63  1  0  0  0  0
 22 64  1  0  0  0  0
 22 65  1  0  0  0  0
 23 21  1  0  0  0  0
 23 66  1  0  0  0  0
 23 67  1  0  0  0  0
 23 68  1  0  0  0  0
 24 21  1  0  0  0  0
 24 69  1  0  0  0  0
 24 70  1  0  0  0  0
 24 71  1  0  0  0  0
 25 13  1  0  0  0  0
 26 25  2  0  0  0  0
 27 25  1  0  0  0  0
 27 72  1  0  0  0  0
 27 73  1  0  0  0  0
 28 27  1  0  0  0  0
 29 28  1  0  0  0  0
 30 29  1  0  0  0  0
 31 30  2  0  0  0  0
 32 31  1  0  0  0  0
 33 32  2  0  0  0  0
 33 74  1  0  0  0  0
 34 33  1  0  0  0  0
 34 75  1  0  0  0  0
 35 34  2  0  0  0  0
 35 76  1  0  0  0  0
 36 35  1  0  0  0  0
 36 77  1  0  0  0  0
 37 36  2  0  0  0  0
 37 29  1  0  0  0  0
 37 32  1  0  0  0  0
M  END
>  <MOL Chiral Flag>
0

>  <energy>
-64.930295514394743

$$$$
> 348_AKC_s00044-016-1729-1
>333.sdf
 OpenBabel10062212453D

 40 42  0  0  0  0  0  0  0  0999 V2000
   -4.8334    0.4779    1.1748 C   0  0  0  0  0  0  0  0  0  0  0  0
   -4.2164    1.3752    0.0904 C   0  0  0  0  0  0  0  0  0  0  0  0
   -2.9943    2.1114    0.6527 C   0  0  0  0  0  0  0  0  0  0  0  0
   -3.9161    0.5773   -1.2063 C   0  0  0  0  0  0  0  0  0  0  0  0
   -3.2352   -0.6097   -0.9738 O   0  0  0  0  0  0  0  0  0  0  0  0
   -1.9044   -0.7617   -0.7564 C   0  0  0  0  0  0  0  0  0  0  0  0
   -1.4692   -1.8947   -0.0612 C   0  0  0  0  0  0  0  0  0  0  0  0
   -0.1136   -2.0724    0.2335 C   0  0  0  0  0  0  0  0  0  0  0  0
    0.8332   -1.0976   -0.1694 C   0  0  0  0  0  0  0  0  0  0  0  0
    0.3994    0.0127   -0.9140 C   0  0  0  0  0  0  0  0  0  0  0  0
   -0.9573    0.1767   -1.2088 C   0  0  0  0  0  0  0  0  0  0  0  0
    2.1828   -1.2838    0.2062 C   0  0  0  0  0  0  0  0  0  0  0  0
    2.5267   -2.4293    0.9251 C   0  0  0  0  0  0  0  0  0  0  0  0
    1.5396   -3.3600    1.2577 C   0  0  0  0  0  0  0  0  0  0  0  0
    1.8362   -4.3620    1.8783 O   0  0  0  0  0  0  0  0  0  0  0  0
    0.2726   -3.1472    0.9133 O   0  0  0  0  0  0  0  0  0  0  0  0
    3.2461   -0.2935   -0.0697 C   0  0  0  0  0  0  0  0  0  0  0  0
    4.0778   -0.4302   -1.1900 C   0  0  0  0  0  0  0  0  0  0  0  0
    5.1214    0.4788   -1.4035 C   0  0  0  0  0  0  0  0  0  0  0  0
    5.3431    1.5204   -0.4969 C   0  0  0  0  0  0  0  0  0  0  0  0
    4.5197    1.6587    0.6235 C   0  0  0  0  0  0  0  0  0  0  0  0
    3.4727    0.7558    0.8384 C   0  0  0  0  0  0  0  0  0  0  0  0
   -5.7284   -0.0505    0.7855 H   0  0  0  0  0  0  0  0  0  0  0  0
   -4.0956   -0.2780    1.5236 H   0  0  0  0  0  0  0  0  0  0  0  0
   -5.1412    1.0893    2.0504 H   0  0  0  0  0  0  0  0  0  0  0  0
   -4.9578    2.1582   -0.1836 H   0  0  0  0  0  0  0  0  0  0  0  0
   -3.3038    2.7399    1.5174 H   0  0  0  0  0  0  0  0  0  0  0  0
   -2.2116    1.4072    0.9997 H   0  0  0  0  0  0  0  0  0  0  0  0
   -2.5682    2.7878   -0.1180 H   0  0  0  0  0  0  0  0  0  0  0  0
   -3.4245    1.2085   -1.9748 H   0  0  0  0  0  0  0  0  0  0  0  0
   -4.8977    0.2953   -1.6402 H   0  0  0  0  0  0  0  0  0  0  0  0
   -2.1925   -2.6299    0.2765 H   0  0  0  0  0  0  0  0  0  0  0  0
    1.1010    0.7565   -1.2663 H   0  0  0  0  0  0  0  0  0  0  0  0
   -1.2596    1.0385   -1.7827 H   0  0  0  0  0  0  0  0  0  0  0  0
    3.5536   -2.5922    1.2330 H   0  0  0  0  0  0  0  0  0  0  0  0
    3.9226   -1.2421   -1.8884 H   0  0  0  0  0  0  0  0  0  0  0  0
    5.7653    0.3703   -2.2663 H   0  0  0  0  0  0  0  0  0  0  0  0
    6.1570    2.2162   -0.6588 H   0  0  0  0  0  0  0  0  0  0  0  0
    4.6995    2.4596    1.3302 H   0  0  0  0  0  0  0  0  0  0  0  0
    2.8505    0.8623    1.7190 H   0  0  0  0  0  0  0  0  0  0  0  0
  1 23  1  0  0  0  0
  1 24  1  0  0  0  0
  1 25  1  0  0  0  0
  2  1  1  0  0  0  0
  2 26  1  0  0  0  0
  3  2  1  0  0  0  0
  3 27  1  0  0  0  0
  3 28  1  0  0  0  0
  3 29  1  0  0  0  0
  4  2  1  0  0  0  0
  4 30  1  0  0  0  0
  4 31  1  0  0  0  0
  5  4  1  0  0  0  0
  6  5  1  0  0  0  0
  7  6  2  0  0  0  0
  7 32  1  0  0  0  0
  8  7  1  0  0  0  0
  9  8  2  0  0  0  0
 10  9  1  0  0  0  0
 10 33  1  0  0  0  0
 11 10  2  0  0  0  0
 11  6  1  0  0  0  0
 11 34  1  0  0  0  0
 12  9  1  0  0  0  0
 13 12  2  0  0  0  0
 13 35  1  0  0  0  0
 14 13  1  0  0  0  0
 15 14  2  0  0  0  0
 16 14  1  0  0  0  0
 16  8  1  0  0  0  0
 17 12  1  0  0  0  0
 18 17  2  0  0  0  0
 18 36  1  0  0  0  0
 19 18  1  0  0  0  0
 19 37  1  0  0  0  0
 20 19  2  0  0  0  0
 20 38  1  0  0  0  0
 21 20  1  0  0  0  0
 21 39  1  0  0  0  0
 22 21  2  0  0  0  0
 22 17  1  0  0  0  0
 22 40  1  0  0  0  0
M  END
>  <MOL Chiral Flag>
0

>  <energy>
60.481323034221361

$$$$
> 349_AKC_j.cbi.2016.10.017
>334.sdf
 OpenBabel10062212453D

 27 28  0  0  0  0  0  0  0  0999 V2000
   -3.3917   -3.5308    2.0447 N   0  3  0  0  0  0  0  0  0  0  0  0
   -3.1963   -2.0795    2.0568 C   0  0  0  0  0  0  0  0  0  0  0  0
   -1.7668   -1.7038    1.6431 C   0  0  0  0  0  0  0  0  0  0  0  0
   -1.4712    0.0745    1.9829 S   0  0  0  0  0  0  0  0  0  0  0  0
   -0.4913    0.5912    0.5416 C   0  0  0  0  0  0  0  0  0  0  0  0
   -1.0109    1.6208   -0.2547 C   0  0  0  0  0  0  0  0  0  0  0  0
   -0.2757    2.1176   -1.3320 C   0  0  0  0  0  0  0  0  0  0  0  0
    0.9479    1.6064   -1.6184 N   0  0  0  0  0  0  0  0  0  0  0  0
    1.4964    0.6093   -0.8775 C   0  0  0  0  0  0  0  0  0  0  0  0
    2.7683    0.1261   -1.2080 C   0  0  0  0  0  0  0  0  0  0  0  0
    3.3502   -0.8931   -0.4524 C   0  0  0  0  0  0  0  0  0  0  0  0
    4.9430   -1.4966   -0.8728 Cl  0  0  0  0  0  0  0  0  0  0  0  0
    2.6673   -1.4281    0.6424 C   0  0  0  0  0  0  0  0  0  0  0  0
    1.4012   -0.9472    0.9904 C   0  0  0  0  0  0  0  0  0  0  0  0
    0.7927    0.0710    0.2331 C   0  0  0  0  0  0  0  0  0  0  0  0
   -2.7468   -3.9809    2.7359 H   0  0  0  0  0  0  0  0  0  0  0  0
   -3.2144   -3.9209    1.0916 H   0  0  0  0  0  0  0  0  0  0  0  0
   -4.3753   -3.7475    2.3277 H   0  0  0  0  0  0  0  0  0  0  0  0
   -3.3876   -1.7138    3.0903 H   0  0  0  0  0  0  0  0  0  0  0  0
   -3.9248   -1.5905    1.3730 H   0  0  0  0  0  0  0  0  0  0  0  0
   -1.6064   -1.9591    0.5737 H   0  0  0  0  0  0  0  0  0  0  0  0
   -1.0613   -2.2836    2.2725 H   0  0  0  0  0  0  0  0  0  0  0  0
   -1.9782    2.0516   -0.0294 H   0  0  0  0  0  0  0  0  0  0  0  0
   -0.6737    2.9227   -1.9357 H   0  0  0  0  0  0  0  0  0  0  0  0
    3.3050    0.5454   -2.0512 H   0  0  0  0  0  0  0  0  0  0  0  0
    3.1199   -2.2169    1.2292 H   0  0  0  0  0  0  0  0  0  0  0  0
    0.9136   -1.3760    1.8477 H   0  0  0  0  0  0  0  0  0  0  0  0
  1 16  1  0  0  0  0
  1 17  1  0  0  0  0
  1 18  1  0  0  0  0
  2  1  1  0  0  0  0
  2 19  1  0  0  0  0
  2 20  1  0  0  0  0
  3  2  1  0  0  0  0
  3 21  1  0  0  0  0
  3 22  1  0  0  0  0
  4  3  1  0  0  0  0
  5  4  1  0  0  0  0
  6  5  2  0  0  0  0
  6 23  1  0  0  0  0
  7  6  1  0  0  0  0
  7 24  1  0  0  0  0
  8  7  2  0  0  0  0
  9  8  1  0  0  0  0
 10  9  2  0  0  0  0
 10 25  1  0  0  0  0
 11 10  1  0  0  0  0
 12 11  1  0  0  0  0
 13 11  2  0  0  0  0
 13 26  1  0  0  0  0
 14 13  1  0  0  0  0
 14 27  1  0  0  0  0
 15 14  2  0  0  0  0
 15  5  1  0  0  0  0
 15  9  1  0  0  0  0
M  CHG  1   1   1
M  END
>  <MOL Chiral Flag>
0

>  <energy>
37.782439990825715

$$$$
> 350_AKC_j.exppara.2016.10.009
>335.sdf
 OpenBabel10062212453D

 33 35  0  0  0  0  0  0  0  0999 V2000
    3.9554    4.0525    1.9504 O   0  0  0  0  0  0  0  0  0  0  0  0
    3.3237    2.9734    1.4458 C   0  0  0  0  0  0  0  0  0  0  0  0
    3.1494    1.8359    2.2429 C   0  0  0  0  0  0  0  0  0  0  0  0
    2.4929    0.7103    1.7320 C   0  0  0  0  0  0  0  0  0  0  0  0
    2.0006    0.7197    0.4152 C   0  0  0  0  0  0  0  0  0  0  0  0
    1.2825   -0.4389   -0.1536 C   0  0  0  0  0  0  0  0  0  0  0  0
    1.1467   -1.5431    0.4996 N   0  0  0  0  0  0  0  0  0  0  0  0
    0.4149   -2.5965   -0.0240 N   0  0  0  0  0  0  0  0  0  0  0  0
   -0.7846   -2.3793   -0.7747 C   0  0  0  0  0  0  0  0  0  0  0  0
   -0.9973   -3.1557   -1.9241 C   0  0  0  0  0  0  0  0  0  0  0  0
   -2.1188   -2.9350   -2.7212 C   0  0  0  0  0  0  0  0  0  0  0  0
   -3.0224   -1.9816   -2.3862 N   0  0  0  0  0  0  0  0  0  0  0  0
   -2.8842   -1.2245   -1.2642 C   0  0  0  0  0  0  0  0  0  0  0  0
   -3.8650   -0.2769   -0.9506 C   0  0  0  0  0  0  0  0  0  0  0  0
   -3.7580    0.4874    0.2136 C   0  0  0  0  0  0  0  0  0  0  0  0
   -4.9960    1.6660    0.6077 Cl  0  0  0  0  0  0  0  0  0  0  0  0
   -2.6742    0.3025    1.0720 C   0  0  0  0  0  0  0  0  0  0  0  0
   -1.6833   -0.6334    0.7680 C   0  0  0  0  0  0  0  0  0  0  0  0
   -1.7622   -1.4057   -0.4163 C   0  0  0  0  0  0  0  0  0  0  0  0
    2.1784    1.8626   -0.3793 C   0  0  0  0  0  0  0  0  0  0  0  0
    2.8381    2.9820    0.1311 C   0  0  0  0  0  0  0  0  0  0  0  0
    4.0869    4.8553    1.4254 H   0  0  0  0  0  0  0  0  0  0  0  0
    3.5203    1.8259    3.2599 H   0  0  0  0  0  0  0  0  0  0  0  0
    2.3621   -0.1585    2.3648 H   0  0  0  0  0  0  0  0  0  0  0  0
    0.8643   -0.3449   -1.1531 H   0  0  0  0  0  0  0  0  0  0  0  0
    0.8925   -3.5045   -0.1056 H   0  0  0  0  0  0  0  0  0  0  0  0
   -0.2751   -3.9069   -2.2166 H   0  0  0  0  0  0  0  0  0  0  0  0
   -2.2651   -3.5198   -3.6199 H   0  0  0  0  0  0  0  0  0  0  0  0
   -4.7155   -0.1393   -1.6066 H   0  0  0  0  0  0  0  0  0  0  0  0
   -2.6000    0.8829    1.9836 H   0  0  0  0  0  0  0  0  0  0  0  0
   -0.8801   -0.7534    1.4752 H   0  0  0  0  0  0  0  0  0  0  0  0
    1.8053    1.8856   -1.3963 H   0  0  0  0  0  0  0  0  0  0  0  0
    2.9683    3.8560   -0.4947 H   0  0  0  0  0  0  0  0  0  0  0  0
  1 22  1  0  0  0  0
  2  1  1  0  0  0  0
  3  2  2  0  0  0  0
  3 23  1  0  0  0  0
  4  3  1  0  0  0  0
  4 24  1  0  0  0  0
  5  4  2  0  0  0  0
  6  5  1  0  0  0  0
  6 25  1  0  0  0  0
  7  6  2  0  0  0  0
  8  7  1  0  0  0  0
  8 26  1  0  0  0  0
  9  8  1  0  0  0  0
 10  9  2  0  0  0  0
 10 27  1  0  0  0  0
 11 10  1  0  0  0  0
 11 28  1  0  0  0  0
 12 11  2  0  0  0  0
 13 12  1  0  0  0  0
 14 13  2  0  0  0  0
 14 29  1  0  0  0  0
 15 14  1  0  0  0  0
 16 15  1  0  0  0  0
 17 15  2  0  0  0  0
 17 30  1  0  0  0  0
 18 17  1  0  0  0  0
 18 31  1  0  0  0  0
 19 18  2  0  0  0  0
 19  9  1  0  0  0  0
 19 13  1  0  0  0  0
 20  5  1  0  0  0  0
 20 32  1  0  0  0  0
 21 20  2  0  0  0  0
 21  2  1  0  0  0  0
 21 33  1  0  0  0  0
M  END
>  <MOL Chiral Flag>
0

>  <energy>
67.336566389641035

$$$$
> 351_AKC_j.parint.2016.08.003
>336.sdf
 OpenBabel10062212453D

 52 54  0  0  0  0  0  0  0  0999 V2000
    0.3753    4.9580   -0.2165 C   0  0  0  0  0  0  0  0  0  0  0  0
    0.3547    3.4837   -0.2931 N   0  3  2  0  0  0  0  0  0  0  0  0
   -0.5937    2.9675    0.7289 C   0  0  0  0  0  0  0  0  0  0  0  0
   -1.0384    1.5433    0.4876 C   0  0  0  0  0  0  0  0  0  0  0  0
   -0.8417    0.5608    1.4658 C   0  0  0  0  0  0  0  0  0  0  0  0
   -1.3044   -0.7421    1.2623 C   0  0  0  0  0  0  0  0  0  0  0  0
   -1.9768   -1.0975    0.0709 C   0  0  0  0  0  0  0  0  0  0  0  0
   -2.1643   -0.0957   -0.9096 C   0  0  0  0  0  0  0  0  0  0  0  0
   -1.7043    1.2050   -0.6980 C   0  0  0  0  0  0  0  0  0  0  0  0
   -2.4855   -2.5434   -0.1201 C   0  0  0  0  0  0  0  0  0  0  0  0
   -3.1901   -2.7675   -1.4807 C   0  0  0  0  0  0  0  0  0  0  0  0
   -1.2907   -3.5171   -0.0451 C   0  0  0  0  0  0  0  0  0  0  0  0
   -3.5034   -2.8840    0.9910 C   0  0  0  0  0  0  0  0  0  0  0  0
    1.7413    2.9746   -0.1053 C   0  0  0  0  0  0  0  0  0  0  0  0
    1.9540    1.5564   -0.6272 C   0  0  0  0  0  0  0  0  0  0  0  0
    2.4252    0.4671    0.1725 C   0  0  0  0  0  0  0  0  0  0  0  0
    2.7018    0.5888    1.5569 C   0  0  0  0  0  0  0  0  0  0  0  0
    3.1779   -0.5045    2.2863 C   0  0  0  0  0  0  0  0  0  0  0  0
    3.3875   -1.7329    1.6649 C   0  0  0  0  0  0  0  0  0  0  0  0
    3.1202   -1.8829    0.3067 C   0  0  0  0  0  0  0  0  0  0  0  0
    2.6424   -0.7994   -0.4456 C   0  0  0  0  0  0  0  0  0  0  0  0
    2.3923   -0.9700   -1.8126 C   0  0  0  0  0  0  0  0  0  0  0  0
    1.9377    0.0933   -2.5805 C   0  0  0  0  0  0  0  0  0  0  0  0
    1.7254    1.3396   -2.0007 C   0  0  0  0  0  0  0  0  0  0  0  0
   -0.6405    5.3749   -0.3982 H   0  0  0  0  0  0  0  0  0  0  0  0
    1.0321    5.3815   -1.0089 H   0  0  0  0  0  0  0  0  0  0  0  0
    0.7360    5.3072    0.7761 H   0  0  0  0  0  0  0  0  0  0  0  0
    0.0046    3.2649   -1.2529 H   0  0  0  0  0  0  0  0  0  0  0  0
   -1.5331    3.5661    0.7111 H   0  0  0  0  0  0  0  0  0  0  0  0
   -0.1618    3.0892    1.7486 H   0  0  0  0  0  0  0  0  0  0  0  0
   -0.3418    0.8056    2.3948 H   0  0  0  0  0  0  0  0  0  0  0  0
   -1.1427   -1.4723    2.0433 H   0  0  0  0  0  0  0  0  0  0  0  0
   -2.6738   -0.2988   -1.8388 H   0  0  0  0  0  0  0  0  0  0  0  0
   -1.8811    1.9542   -1.4589 H   0  0  0  0  0  0  0  0  0  0  0  0
   -2.4969   -2.5644   -2.3254 H   0  0  0  0  0  0  0  0  0  0  0  0
   -4.0855   -2.1158   -1.5783 H   0  0  0  0  0  0  0  0  0  0  0  0
   -3.5345   -3.8202   -1.5779 H   0  0  0  0  0  0  0  0  0  0  0  0
   -0.5516   -3.2824   -0.8415 H   0  0  0  0  0  0  0  0  0  0  0  0
   -1.6296   -4.5673   -0.1786 H   0  0  0  0  0  0  0  0  0  0  0  0
   -0.7743   -3.4578    0.9353 H   0  0  0  0  0  0  0  0  0  0  0  0
   -4.3742   -2.1942    0.9438 H   0  0  0  0  0  0  0  0  0  0  0  0
   -3.0526   -2.8037    2.0018 H   0  0  0  0  0  0  0  0  0  0  0  0
   -3.8792   -3.9241    0.8759 H   0  0  0  0  0  0  0  0  0  0  0  0
    2.0486    3.1365    0.9425 H   0  0  0  0  0  0  0  0  0  0  0  0
    2.4509    3.5933   -0.7008 H   0  0  0  0  0  0  0  0  0  0  0  0
    2.5610    1.5085    2.0954 H   0  0  0  0  0  0  0  0  0  0  0  0
    3.3887   -0.3967    3.3428 H   0  0  0  0  0  0  0  0  0  0  0  0
    3.7604   -2.5726    2.2373 H   0  0  0  0  0  0  0  0  0  0  0  0
    3.2923   -2.8452   -0.1616 H   0  0  0  0  0  0  0  0  0  0  0  0
    2.5603   -1.9294   -2.2877 H   0  0  0  0  0  0  0  0  0  0  0  0
    1.7583   -0.0446   -3.6390 H   0  0  0  0  0  0  0  0  0  0  0  0
    1.3922    2.1511   -2.6345 H   0  0  0  0  0  0  0  0  0  0  0  0
  1 25  1  0  0  0  0
  1 26  1  0  0  0  0
  1 27  1  0  0  0  0
  2  1  1  0  0  0  0
  2 28  1  6  0  0  0
  3  2  1  0  0  0  0
  3 29  1  0  0  0  0
  3 30  1  0  0  0  0
  4  3  1  0  0  0  0
  5  4  2  0  0  0  0
  5 31  1  0  0  0  0
  6  5  1  0  0  0  0
  6 32  1  0  0  0  0
  7  6  2  0  0  0  0
  8  7  1  0  0  0  0
  8 33  1  0  0  0  0
  9  8  2  0  0  0  0
  9  4  1  0  0  0  0
  9 34  1  0  0  0  0
 10  7  1  0  0  0  0
 11 10  1  0  0  0  0
 11 35  1  0  0  0  0
 11 36  1  0  0  0  0
 11 37  1  0  0  0  0
 12 10  1  0  0  0  0
 12 38  1  0  0  0  0
 12 39  1  0  0  0  0
 12 40  1  0  0  0  0
 13 10  1  0  0  0  0
 13 41  1  0  0  0  0
 13 42  1  0  0  0  0
 13 43  1  0  0  0  0
 14  2  1  0  0  0  0
 14 44  1  0  0  0  0
 14 45  1  0  0  0  0
 15 14  1  0  0  0  0
 16 15  2  0  0  0  0
 17 16  1  0  0  0  0
 17 46  1  0  0  0  0
 18 17  2  0  0  0  0
 18 47  1  0  0  0  0
 19 18  1  0  0  0  0
 19 48  1  0  0  0  0
 20 19  2  0  0  0  0
 20 49  1  0  0  0  0
 21 20  1  0  0  0  0
 21 16  1  0  0  0  0
 22 21  2  0  0  0  0
 22 50  1  0  0  0  0
 23 22  1  0  0  0  0
 23 51  1  0  0  0  0
 24 23  2  0  0  0  0
 24 15  1  0  0  0  0
 24 52  1  0  0  0  0
M  CHG  1   2   1
M  END
>  <MOL Chiral Flag>
0

>  <energy>
80.411693968839188

$$$$
> 352_AKC_AAC.01545-16
>337.sdf
 OpenBabel10062212463D

 51 54  0  0  0  0  0  0  0  0999 V2000
    2.2342    2.2379   -0.5866 O   0  0  0  0  0  0  0  0  0  0  0  0
    3.1931    1.7727    0.3250 C   0  0  1  0  0  0  0  0  0  0  0  0
    2.6173    0.7103    1.3069 C   0  0  0  0  0  0  0  0  0  0  0  0
    1.1706    0.9685    1.7835 C   0  0  0  0  0  0  0  0  0  0  0  0
    0.1539    0.5578    0.6915 C   0  0  2  0  0  0  0  0  0  0  0  0
   -1.4249    0.4621    1.1217 C   0  0  2  0  0  0  0  0  0  0  0  0
   -1.2760   -0.9669    0.9829 N   0  0  0  0  0  0  0  0  0  0  0  0
   -0.0321   -0.9156    0.6046 C   0  0  0  0  0  0  0  0  0  0  0  0
    0.7075   -1.8415    0.3116 O   0  0  0  0  0  0  0  0  0  0  0  0
   -2.1822   -2.0627    1.1241 C   0  0  0  0  0  0  0  0  0  0  0  0
   -3.2875   -1.9672    1.9858 C   0  0  0  0  0  0  0  0  0  0  0  0
   -4.2041   -3.0184    2.0808 C   0  0  0  0  0  0  0  0  0  0  0  0
   -4.0278   -4.1730    1.3153 C   0  0  0  0  0  0  0  0  0  0  0  0
   -4.9272   -5.1842    1.3953 F   0  0  0  0  0  0  0  0  0  0  0  0
   -2.9238   -4.2855    0.4674 C   0  0  0  0  0  0  0  0  0  0  0  0
   -1.9992   -3.2412    0.3768 C   0  0  0  0  0  0  0  0  0  0  0  0
   -2.4633    0.9524    0.0955 C   0  0  0  0  0  0  0  0  0  0  0  0
   -2.1150    1.4411   -1.1887 C   0  0  0  0  0  0  0  0  0  0  0  0
   -3.1029    1.7949   -2.1092 C   0  0  0  0  0  0  0  0  0  0  0  0
   -4.4545    1.6774   -1.7761 C   0  0  0  0  0  0  0  0  0  0  0  0
   -5.4124    1.9962   -2.6695 O   0  0  0  0  0  0  0  0  0  0  0  0
   -4.8142    1.2222   -0.5084 C   0  0  0  0  0  0  0  0  0  0  0  0
   -3.8313    0.8671    0.4188 C   0  0  0  0  0  0  0  0  0  0  0  0
    4.3347    1.1764   -0.4657 C   0  0  0  0  0  0  0  0  0  0  0  0
    5.6479    1.6508   -0.3266 C   0  0  0  0  0  0  0  0  0  0  0  0
    6.6794    1.0883   -1.0896 C   0  0  0  0  0  0  0  0  0  0  0  0
    6.4039    0.0585   -1.9966 C   0  0  0  0  0  0  0  0  0  0  0  0
    7.4027   -0.4805   -2.7379 F   0  0  0  0  0  0  0  0  0  0  0  0
    5.0982   -0.4130   -2.1426 C   0  0  0  0  0  0  0  0  0  0  0  0
    4.0686    0.1402   -1.3821 C   0  0  0  0  0  0  0  0  0  0  0  0
    2.5702    3.0994   -0.9498 H   0  0  0  0  0  0  0  0  0  0  0  0
    3.5143    2.6362    0.9561 H   0  0  0  0  0  0  0  0  0  0  0  0
    2.6423   -0.3098    0.8745 H   0  0  0  0  0  0  0  0  0  0  0  0
    3.3060    0.6877    2.1804 H   0  0  0  0  0  0  0  0  0  0  0  0
    1.0569    2.0368    2.0673 H   0  0  0  0  0  0  0  0  0  0  0  0
    0.9687    0.3543    2.6892 H   0  0  0  0  0  0  0  0  0  0  0  0
    0.3853    0.9301   -0.3052 H   0  0  0  0  0  0  0  0  0  0  0  0
   -1.6246    0.7759    2.1709 H   0  0  0  0  0  0  0  0  0  0  0  0
   -3.4322   -1.0893    2.5961 H   0  0  0  0  0  0  0  0  0  0  0  0
   -5.0541   -2.9344    2.7458 H   0  0  0  0  0  0  0  0  0  0  0  0
   -2.7882   -5.1782   -0.1293 H   0  0  0  0  0  0  0  0  0  0  0  0
   -1.1650   -3.3415   -0.3028 H   0  0  0  0  0  0  0  0  0  0  0  0
   -1.1015    1.5409   -1.5199 H   0  0  0  0  0  0  0  0  0  0  0  0
   -2.8128    2.1500   -3.0903 H   0  0  0  0  0  0  0  0  0  0  0  0
   -5.1929    2.2952   -3.5637 H   0  0  0  0  0  0  0  0  0  0  0  0
   -5.8595    1.1326   -0.2421 H   0  0  0  0  0  0  0  0  0  0  0  0
   -4.1483    0.5208    1.3856 H   0  0  0  0  0  0  0  0  0  0  0  0
    5.8719    2.4501    0.3682 H   0  0  0  0  0  0  0  0  0  0  0  0
    7.6921    1.4526   -0.9804 H   0  0  0  0  0  0  0  0  0  0  0  0
    4.8799   -1.2054   -2.8475 H   0  0  0  0  0  0  0  0  0  0  0  0
    3.0577   -0.2292   -1.5112 H   0  0  0  0  0  0  0  0  0  0  0  0
  1 31  1  0  0  0  0
  2  1  1  0  0  0  0
  2 32  1  1  0  0  0
  3  2  1  0  0  0  0
  3 33  1  0  0  0  0
  3 34  1  0  0  0  0
  4  3  1  0  0  0  0
  4 35  1  0  0  0  0
  4 36  1  0  0  0  0
  5  4  1  0  0  0  0
  5 37  1  6  0  0  0
  6  5  1  0  0  0  0
  6 38  1  1  0  0  0
  7  6  1  0  0  0  0
  8  7  1  0  0  0  0
  8  5  1  0  0  0  0
  9  8  2  0  0  0  0
 10  7  1  0  0  0  0
 11 10  2  0  0  0  0
 11 39  1  0  0  0  0
 12 11  1  0  0  0  0
 12 40  1  0  0  0  0
 13 12  2  0  0  0  0
 14 13  1  0  0  0  0
 15 13  1  0  0  0  0
 15 41  1  0  0  0  0
 16 15  2  0  0  0  0
 16 10  1  0  0  0  0
 16 42  1  0  0  0  0
 17  6  1  0  0  0  0
 18 17  2  0  0  0  0
 18 43  1  0  0  0  0
 19 18  1  0  0  0  0
 19 44  1  0  0  0  0
 20 19  2  0  0  0  0
 21 20  1  0  0  0  0
 21 45  1  0  0  0  0
 22 20  1  0  0  0  0
 22 46  1  0  0  0  0
 23 22  2  0  0  0  0
 23 17  1  0  0  0  0
 23 47  1  0  0  0  0
 24  2  1  0  0  0  0
 25 24  2  0  0  0  0
 25 48  1  0  0  0  0
 26 25  1  0  0  0  0
 26 49  1  0  0  0  0
 27 26  2  0  0  0  0
 28 27  1  0  0  0  0
 29 27  1  0  0  0  0
 29 50  1  0  0  0  0
 30 29  2  0  0  0  0
 30 24  1  0  0  0  0
 30 51  1  0  0  0  0
M  END
>  <MOL Chiral Flag>
0

>  <energy>
56.270774317886293

$$$$
> 353_AKC_j.ejmech.2016.06.004
>338.sdf
 OpenBabel10102215123D

 65 68  0  0  0  0  0  0  0  0999 V2000
   -4.7258    2.4765   -0.1838 C   0  0  2  0  0  0  0  0  0  0  0  0
   -4.2582    2.0483   -1.5821 C   0  0  0  0  0  0  0  0  0  0  0  0
   -2.7571    1.9985   -1.6838 C   0  0  0  0  0  0  0  0  0  0  0  0
   -2.2490    1.9055   -2.7899 O   0  0  0  0  0  0  0  0  0  0  0  0
   -1.9017    1.9323   -0.4619 C   0  0  0  0  0  0  0  0  0  0  0  0
   -2.4873    1.8354    0.8239 C   0  0  0  0  0  0  0  0  0  0  0  0
   -1.6471    1.6828    1.9446 C   0  0  0  0  0  0  0  0  0  0  0  0
   -0.2615    1.6506    1.8006 C   0  0  0  0  0  0  0  0  0  0  0  0
    0.3339    1.7432    0.5344 C   0  0  0  0  0  0  0  0  0  0  0  0
   -0.4991    1.8853   -0.5957 C   0  0  0  0  0  0  0  0  0  0  0  0
    1.8571    1.6330    0.4315 C   0  0  0  0  0  0  0  0  0  0  0  0
    2.5383    2.8068    1.1491 C   0  0  0  0  0  0  0  0  0  0  0  0
    2.3972    1.5328   -1.0048 C   0  0  0  0  0  0  0  0  0  0  0  0
   -4.0132    1.7462    0.9745 C   0  0  1  0  0  0  0  0  0  0  0  0
   -4.4992    2.4391    2.3191 C   0  0  0  0  0  0  0  0  0  0  0  0
   -5.7968    3.3071    2.2287 C   0  0  0  0  0  0  0  0  0  0  0  0
   -6.8858    2.6294    1.3839 C   0  0  1  0  0  0  0  0  0  0  0  0
   -7.3149    1.2981    2.0808 C   0  0  0  0  0  0  0  0  0  0  0  0
   -8.1650    3.5256    1.2215 C   0  0  0  0  0  0  0  0  0  0  0  0
   -8.7969    3.9406    2.4979 N   0  3  0  0  0  0  0  0  0  0  0  0
  -10.1987    4.3763    2.3411 C   0  0  0  0  0  0  0  0  0  0  0  0
  -11.0838    3.2883    1.7553 C   0  0  0  0  0  0  0  0  0  0  0  0
  -11.8416    3.5437    0.5990 C   0  0  0  0  0  0  0  0  0  0  0  0
  -12.6413    2.5398    0.0431 C   0  0  0  0  0  0  0  0  0  0  0  0
  -12.6840    1.2722    0.6284 C   0  0  0  0  0  0  0  0  0  0  0  0
  -11.9361    1.0080    1.7779 C   0  0  0  0  0  0  0  0  0  0  0  0
  -11.1450    2.0110    2.3466 C   0  0  0  0  0  0  0  0  0  0  0  0
   -6.2886    2.3830   -0.0629 C   0  0  0  0  0  0  0  0  0  0  0  0
   -4.4258    3.5460   -0.0810 H   0  0  0  0  0  0  0  0  0  0  0  0
   -4.6550    2.7927   -2.3072 H   0  0  0  0  0  0  0  0  0  0  0  0
   -4.6529    1.0495   -1.8667 H   0  0  0  0  0  0  0  0  0  0  0  0
   -2.0629    1.5649    2.9360 H   0  0  0  0  0  0  0  0  0  0  0  0
    0.3512    1.5184    2.6835 H   0  0  0  0  0  0  0  0  0  0  0  0
   -0.0712    1.9386   -1.5848 H   0  0  0  0  0  0  0  0  0  0  0  0
    2.1522    0.6876    0.9396 H   0  0  0  0  0  0  0  0  0  0  0  0
    2.2717    3.7670    0.6580 H   0  0  0  0  0  0  0  0  0  0  0  0
    3.6425    2.6842    1.1196 H   0  0  0  0  0  0  0  0  0  0  0  0
    2.2364    2.8554    2.2156 H   0  0  0  0  0  0  0  0  0  0  0  0
    2.1783    2.4555   -1.5828 H   0  0  0  0  0  0  0  0  0  0  0  0
    1.9513    0.6547   -1.5203 H   0  0  0  0  0  0  0  0  0  0  0  0
    3.4985    1.3857   -0.9886 H   0  0  0  0  0  0  0  0  0  0  0  0
   -4.3037    0.2185    0.9021 C   0  0  0  0  0  0  0  0  0  0  0  0
   -4.5754    1.6672    3.1141 H   0  0  0  0  0  0  0  0  0  0  0  0
   -3.7436    3.1729    2.6764 H   0  0  0  0  0  0  0  0  0  0  0  0
   -6.1421    3.5600    3.2542 H   0  0  0  0  0  0  0  0  0  0  0  0
   -5.5521    4.2727    1.7319 H   0  0  0  0  0  0  0  0  0  0  0  0
   -7.7390    1.4478    3.0876 H   0  0  0  0  0  0  0  0  0  0  0  0
   -6.4933    0.6146    2.3111 H   0  0  0  0  0  0  0  0  0  0  0  0
   -8.0683    0.7607    1.4663 H   0  0  0  0  0  0  0  0  0  0  0  0
   -8.8729    2.9384    0.5977 H   0  0  0  0  0  0  0  0  0  0  0  0
   -7.9228    4.4474    0.6451 H   0  0  0  0  0  0  0  0  0  0  0  0
   -8.2442    4.7288    2.9088 H   0  0  0  0  0  0  0  0  0  0  0  0
   -8.8027    3.1856    3.2085 H   0  0  0  0  0  0  0  0  0  0  0  0
  -10.2406    5.2982    1.7196 H   0  0  0  0  0  0  0  0  0  0  0  0
  -10.6001    4.6388    3.3454 H   0  0  0  0  0  0  0  0  0  0  0  0
  -11.8144    4.5192    0.1303 H   0  0  0  0  0  0  0  0  0  0  0  0
  -13.2248    2.7437   -0.8454 H   0  0  0  0  0  0  0  0  0  0  0  0
  -13.2968    0.4942    0.1910 H   0  0  0  0  0  0  0  0  0  0  0  0
  -11.9671    0.0237    2.2277 H   0  0  0  0  0  0  0  0  0  0  0  0
  -10.5716    1.7843    3.2352 H   0  0  0  0  0  0  0  0  0  0  0  0
   -6.6892    1.4239   -0.4560 H   0  0  0  0  0  0  0  0  0  0  0  0
   -6.6509    3.1594   -0.7734 H   0  0  0  0  0  0  0  0  0  0  0  0
   -3.8182   -0.2287    0.0081 H   0  0  0  0  0  0  0  0  0  0  0  0
   -5.3589   -0.0553    0.7748 H   0  0  0  0  0  0  0  0  0  0  0  0
   -3.8884   -0.3002    1.7927 H   0  0  0  0  0  0  0  0  0  0  0  0
  1 29  1  1  0  0  0
  2  1  1  0  0  0  0
  2 30  1  0  0  0  0
  2 31  1  0  0  0  0
  3  2  1  0  0  0  0
  4  3  2  0  0  0  0
  5  3  1  0  0  0  0
  6  5  2  0  0  0  0
  7  6  1  0  0  0  0
  7 32  1  0  0  0  0
  8  7  2  0  0  0  0
  8 33  1  0  0  0  0
  9  8  1  0  0  0  0
 10  9  2  0  0  0  0
 10  5  1  0  0  0  0
 10 34  1  0  0  0  0
 11  9  1  0  0  0  0
 11 35  1  0  0  0  0
 12 11  1  0  0  0  0
 12 36  1  0  0  0  0
 12 37  1  0  0  0  0
 12 38  1  0  0  0  0
 13 11  1  0  0  0  0
 13 39  1  0  0  0  0
 13 40  1  0  0  0  0
 13 41  1  0  0  0  0
 14  6  1  0  0  0  0
 14  1  1  0  0  0  0
 14 42  1  1  0  0  0
 15 14  1  0  0  0  0
 15 43  1  0  0  0  0
 15 44  1  0  0  0  0
 16 15  1  0  0  0  0
 16 45  1  0  0  0  0
 16 46  1  0  0  0  0
 17 16  1  0  0  0  0
 17 18  1  1  0  0  0
 18 47  1  0  0  0  0
 18 48  1  0  0  0  0
 18 49  1  0  0  0  0
 19 17  1  0  0  0  0
 19 50  1  0  0  0  0
 19 51  1  0  0  0  0
 20 19  1  0  0  0  0
 20 52  1  0  0  0  0
 20 53  1  0  0  0  0
 21 20  1  0  0  0  0
 21 54  1  0  0  0  0
 21 55  1  0  0  0  0
 22 21  1  0  0  0  0
 23 22  2  0  0  0  0
 23 56  1  0  0  0  0
 24 23  1  0  0  0  0
 24 57  1  0  0  0  0
 25 24  2  0  0  0  0
 25 58  1  0  0  0  0
 26 25  1  0  0  0  0
 26 59  1  0  0  0  0
 27 26  2  0  0  0  0
 27 22  1  0  0  0  0
 27 60  1  0  0  0  0
 28 17  1  0  0  0  0
 28  1  1  0  0  0  0
 28 61  1  0  0  0  0
 28 62  1  0  0  0  0
 42 63  1  0  0  0  0
 42 64  1  0  0  0  0
 42 65  1  0  0  0  0
M  CHG  1  20   1
M  END
>  <MOL Chiral Flag>
0

>  <energy>
119.40683964860816

$$$$
> 354_AKC_AAC.00352-16
>339.sdf
 OpenBabel10062212483D

 52 56  0  0  0  0  0  0  0  0999 V2000
    3.0789    3.5185   -0.2248 C   0  0  0  0  0  0  0  0  0  0  0  0
    2.4012    2.5403    0.4708 O   0  0  0  0  0  0  0  0  0  0  0  0
    2.9565    1.3508    0.8175 C   0  0  0  0  0  0  0  0  0  0  0  0
    4.1205    1.1005    0.5325 O   0  0  0  0  0  0  0  0  0  0  0  0
    2.1198    0.3373    1.5605 C   0  0  2  0  0  0  0  0  0  0  0  0
    2.8068   -0.9748    1.9168 C   0  0  0  0  0  0  0  0  0  0  0  0
    1.6025   -1.8236    2.3374 C   0  0  2  0  0  0  0  0  0  0  0  0
    1.7231   -3.3234    2.0664 C   0  0  0  0  0  0  0  0  0  0  0  0
    0.2647   -3.6816    1.8433 C   0  0  0  0  0  0  0  0  0  0  0  0
   -0.1633   -2.5323    0.9359 C   0  0  0  0  0  0  0  0  0  0  0  0
    0.4383   -1.3527    1.5748 N   0  0  2  0  0  0  0  0  0  0  0  0
    0.8618   -0.1619    0.8111 C   0  0  1  0  0  0  0  0  0  0  0  0
   -0.2425    0.8828    0.7735 C   0  0  0  0  0  0  0  0  0  0  0  0
   -0.7064    1.4078    1.7734 O   0  0  0  0  0  0  0  0  0  0  0  0
   -0.6301    1.2057   -0.4797 N   0  0  0  0  0  0  0  0  0  0  0  0
   -1.6473    2.1915   -0.8315 C   0  0  0  0  0  0  0  0  0  0  0  0
   -3.0510    1.6348   -0.6887 C   0  0  0  0  0  0  0  0  0  0  0  0
   -3.8398    1.4366   -1.8387 C   0  0  0  0  0  0  0  0  0  0  0  0
   -5.1358    0.9235   -1.7299 C   0  0  0  0  0  0  0  0  0  0  0  0
   -5.6616    0.6084   -0.4759 C   0  0  0  0  0  0  0  0  0  0  0  0
   -4.8934    0.8080    0.6722 C   0  0  0  0  0  0  0  0  0  0  0  0
   -3.5956    1.3186    0.5703 C   0  0  0  0  0  0  0  0  0  0  0  0
    0.1437    0.4629   -1.3832 C   0  0  0  0  0  0  0  0  0  0  0  0
    1.0239   -0.3609   -0.7084 C   0  0  0  0  0  0  0  0  0  0  0  0
    1.8871   -1.2055   -1.4262 C   0  0  0  0  0  0  0  0  0  0  0  0
    1.8409   -1.1959   -2.8285 C   0  0  0  0  0  0  0  0  0  0  0  0
    0.9415   -0.3544   -3.5044 C   0  0  0  0  0  0  0  0  0  0  0  0
    0.0804    0.4829   -2.7829 C   0  0  0  0  0  0  0  0  0  0  0  0
    3.9663    3.8555    0.3526 H   0  0  0  0  0  0  0  0  0  0  0  0
    2.4047    4.3855   -0.3816 H   0  0  0  0  0  0  0  0  0  0  0  0
    3.3988    3.1314   -1.2160 H   0  0  0  0  0  0  0  0  0  0  0  0
    1.7953    0.7884    2.5273 H   0  0  0  0  0  0  0  0  0  0  0  0
    3.2589   -1.3874    1.0000 H   0  0  0  0  0  0  0  0  0  0  0  0
    3.6097   -0.9124    2.6818 H   0  0  0  0  0  0  0  0  0  0  0  0
    1.3445   -1.6336    3.4039 H   0  0  0  0  0  0  0  0  0  0  0  0
    2.2443   -3.4917    1.0962 H   0  0  0  0  0  0  0  0  0  0  0  0
    2.2541   -3.8941    2.8569 H   0  0  0  0  0  0  0  0  0  0  0  0
   -0.2797   -3.6037    2.8122 H   0  0  0  0  0  0  0  0  0  0  0  0
    0.0973   -4.6906    1.4104 H   0  0  0  0  0  0  0  0  0  0  0  0
    0.2711   -2.7207   -0.0659 H   0  0  0  0  0  0  0  0  0  0  0  0
   -1.2654   -2.4411    0.8399 H   0  0  0  0  0  0  0  0  0  0  0  0
   -1.5019    2.4978   -1.8855 H   0  0  0  0  0  0  0  0  0  0  0  0
   -1.5099    3.1244   -0.2439 H   0  0  0  0  0  0  0  0  0  0  0  0
   -3.4493    1.6735   -2.8206 H   0  0  0  0  0  0  0  0  0  0  0  0
   -5.7330    0.7704   -2.6194 H   0  0  0  0  0  0  0  0  0  0  0  0
   -6.6656    0.2127   -0.3933 H   0  0  0  0  0  0  0  0  0  0  0  0
   -5.3048    0.5694    1.6446 H   0  0  0  0  0  0  0  0  0  0  0  0
   -3.0348    1.4734    1.4748 H   0  0  0  0  0  0  0  0  0  0  0  0
    2.5758   -1.8688   -0.9338 H   0  0  0  0  0  0  0  0  0  0  0  0
    2.4991   -1.8437   -3.3929 H   0  0  0  0  0  0  0  0  0  0  0  0
    0.9106   -0.3565   -4.5863 H   0  0  0  0  0  0  0  0  0  0  0  0
   -0.6115    1.1181   -3.3153 H   0  0  0  0  0  0  0  0  0  0  0  0
  1 29  1  0  0  0  0
  1 30  1  0  0  0  0
  1 31  1  0  0  0  0
  2  1  1  0  0  0  0
  3  2  1  0  0  0  0
  4  3  2  0  0  0  0
  5  3  1  0  0  0  0
  5 32  1  1  0  0  0
  6  5  1  0  0  0  0
  6 33  1  0  0  0  0
  6 34  1  0  0  0  0
  7  6  1  0  0  0  0
  7 35  1  1  0  0  0
  8  7  1  0  0  0  0
  8 36  1  0  0  0  0
  8 37  1  0  0  0  0
  9  8  1  0  0  0  0
  9 38  1  0  0  0  0
  9 39  1  0  0  0  0
 10  9  1  0  0  0  0
 10 40  1  0  0  0  0
 10 41  1  0  0  0  0
 11 10  1  6  0  0  0
 11  7  1  0  0  0  0
 12 11  1  0  0  0  0
 12  5  1  0  0  0  0
 12 13  1  1  0  0  0
 14 13  2  0  0  0  0
 15 13  1  0  0  0  0
 16 15  1  0  0  0  0
 16 42  1  0  0  0  0
 16 43  1  0  0  0  0
 17 16  1  0  0  0  0
 18 17  2  0  0  0  0
 18 44  1  0  0  0  0
 19 18  1  0  0  0  0
 19 45  1  0  0  0  0
 20 19  2  0  0  0  0
 20 46  1  0  0  0  0
 21 20  1  0  0  0  0
 21 47  1  0  0  0  0
 22 21  2  0  0  0  0
 22 17  1  0  0  0  0
 22 48  1  0  0  0  0
 23 15  1  0  0  0  0
 24 23  2  0  0  0  0
 24 12  1  0  0  0  0
 25 24  1  0  0  0  0
 25 49  1  0  0  0  0
 26 25  2  0  0  0  0
 26 50  1  0  0  0  0
 27 26  1  0  0  0  0
 27 51  1  0  0  0  0
 28 27  2  0  0  0  0
 28 23  1  0  0  0  0
 28 52  1  0  0  0  0
M  END
>  <MOL Chiral Flag>
0

>  <energy>
71.126513234267023

$$$$
> 355_AKC_s10495-016-1282-x
>340.sdf
 OpenBabel10062212493D

 42 42  0  0  0  0  0  0  0  0999 V2000
   -0.5374   -2.2958   -1.0060 H   0  0  0  0  0  0  0  0  0  0  0  0
   -0.1050   -1.3535   -1.4163 C   0  0  1  0  0  0  0  0  0  0  0  0
   -0.2077   -0.3175   -0.2858 C   0  0  0  0  0  0  0  0  0  0  0  0
   -1.6476   -0.2947    0.2615 C   0  0  0  0  0  0  0  0  0  0  0  0
   -2.7051   -0.2230   -0.8183 C   0  0  0  0  0  0  0  0  0  0  0  0
   -4.1175    0.1130   -0.4168 C   0  0  0  0  0  0  0  0  0  0  0  0
   -2.4065   -0.4620   -2.1155 C   0  0  0  0  0  0  0  0  0  0  0  0
   -1.0284   -0.8813   -2.5748 C   0  0  0  0  0  0  0  0  0  0  0  0
    1.3651   -1.7113   -1.8921 C   0  0  1  0  0  0  0  0  0  0  0  0
    2.1809   -2.2677   -0.7028 C   0  0  0  0  0  0  0  0  0  0  0  0
    1.2867   -2.7194   -2.8764 O   0  0  0  0  0  0  0  0  0  0  0  0
    2.0847   -0.4866   -2.5472 C   0  0  0  0  0  0  0  0  0  0  0  0
    3.5248   -0.7053   -3.0778 C   0  0  0  0  0  0  0  0  0  0  0  0
    4.5973   -0.6231   -2.0114 C   0  0  0  0  0  0  0  0  0  0  0  0
    5.9212   -0.6777   -2.2967 C   0  0  0  0  0  0  0  0  0  0  0  0
    6.9375   -0.5302   -1.1930 C   0  0  0  0  0  0  0  0  0  0  0  0
    6.4253   -0.8621   -3.7081 C   0  0  0  0  0  0  0  0  0  0  0  0
    0.4533   -0.5449    0.5731 H   0  0  0  0  0  0  0  0  0  0  0  0
    0.0660    0.6837   -0.6842 H   0  0  0  0  0  0  0  0  0  0  0  0
   -1.8564   -1.2050    0.8654 H   0  0  0  0  0  0  0  0  0  0  0  0
   -1.7273    0.5873    0.9335 H   0  0  0  0  0  0  0  0  0  0  0  0
   -4.1399    1.1081    0.0750 H   0  0  0  0  0  0  0  0  0  0  0  0
   -4.4892   -0.6500    0.2994 H   0  0  0  0  0  0  0  0  0  0  0  0
   -4.8093    0.1385   -1.2859 H   0  0  0  0  0  0  0  0  0  0  0  0
   -3.1782   -0.3520   -2.8718 H   0  0  0  0  0  0  0  0  0  0  0  0
   -0.6230   -0.0081   -3.1227 H   0  0  0  0  0  0  0  0  0  0  0  0
   -1.1326   -1.7258   -3.2882 H   0  0  0  0  0  0  0  0  0  0  0  0
    1.6437   -3.1185   -0.2306 H   0  0  0  0  0  0  0  0  0  0  0  0
    2.3670   -1.4959    0.0700 H   0  0  0  0  0  0  0  0  0  0  0  0
    3.1600   -2.6582   -1.0464 H   0  0  0  0  0  0  0  0  0  0  0  0
    0.8035   -3.4980   -2.4923 H   0  0  0  0  0  0  0  0  0  0  0  0
    1.4952   -0.2212   -3.4468 H   0  0  0  0  0  0  0  0  0  0  0  0
    2.0854    0.3976   -1.8750 H   0  0  0  0  0  0  0  0  0  0  0  0
    3.7354    0.1340   -3.7751 H   0  0  0  0  0  0  0  0  0  0  0  0
    3.5870   -1.6543   -3.6537 H   0  0  0  0  0  0  0  0  0  0  0  0
    4.2912   -0.4738   -0.9811 H   0  0  0  0  0  0  0  0  0  0  0  0
    6.4644   -0.3926   -0.1975 H   0  0  0  0  0  0  0  0  0  0  0  0
    7.5844   -1.4312   -1.1540 H   0  0  0  0  0  0  0  0  0  0  0  0
    7.5725    0.3583   -1.3981 H   0  0  0  0  0  0  0  0  0  0  0  0
    7.5368   -0.8632   -3.7323 H   0  0  0  0  0  0  0  0  0  0  0  0
    6.0735   -0.0330   -4.3566 H   0  0  0  0  0  0  0  0  0  0  0  0
    6.0723   -1.8313   -4.1178 H   0  0  0  0  0  0  0  0  0  0  0  0
  2  1  1  1  0  0  0
  3  2  1  0  0  0  0
  3 18  1  0  0  0  0
  3 19  1  0  0  0  0
  4  3  1  0  0  0  0
  4 20  1  0  0  0  0
  4 21  1  0  0  0  0
  5  4  1  0  0  0  0
  6  5  1  0  0  0  0
  6 22  1  0  0  0  0
  6 23  1  0  0  0  0
  6 24  1  0  0  0  0
  7  5  2  0  0  0  0
  7 25  1  0  0  0  0
  8  7  1  0  0  0  0
  8  2  1  0  0  0  0
  8 26  1  0  0  0  0
  8 27  1  0  0  0  0
  9  2  1  0  0  0  0
  9 10  1  1  0  0  0
 10 28  1  0  0  0  0
 10 29  1  0  0  0  0
 10 30  1  0  0  0  0
 11  9  1  0  0  0  0
 11 31  1  0  0  0  0
 12  9  1  0  0  0  0
 12 32  1  0  0  0  0
 12 33  1  0  0  0  0
 13 12  1  0  0  0  0
 13 34  1  0  0  0  0
 13 35  1  0  0  0  0
 14 13  1  0  0  0  0
 14 36  1  0  0  0  0
 15 14  2  0  0  0  0
 16 15  1  0  0  0  0
 16 37  1  0  0  0  0
 16 38  1  0  0  0  0
 16 39  1  0  0  0  0
 17 15  1  0  0  0  0
 17 40  1  0  0  0  0
 17 41  1  0  0  0  0
 17 42  1  0  0  0  0
M  END
>  <MOL Chiral Flag>
0

>  <energy>
46.086393706231469

$$$$
> 356_AKC_acs.jnatprod.6b00256
>341.sdf
 OpenBabel10062212503D

 48 52  0  0  0  0  0  0  0  0999 V2000
    1.3933   -1.4558   -2.7351 H   0  0  0  0  0  0  0  0  0  0  0  0
    0.4998   -1.2058   -2.2828 N   0  3  0  0  0  0  0  0  0  0  0  0
    0.4410   -0.1447   -1.5371 C   0  0  0  0  0  0  0  0  0  0  0  0
    1.5646    0.7217   -1.4222 N   0  0  0  0  0  0  0  0  0  0  0  0
    1.3650    2.1226   -1.0539 C   0  0  2  0  0  0  0  0  0  0  0  0
   -0.1120    2.5502   -1.2825 C   0  0  0  0  0  0  0  0  0  0  0  0
   -1.0582    1.5829   -0.5504 C   0  0  1  0  0  0  0  0  0  0  0  0
   -0.9659    1.6987    0.5533 H   0  0  0  0  0  0  0  0  0  0  0  0
   -2.5280    1.6896   -0.9733 C   0  0  0  0  0  0  0  0  0  0  0  0
   -3.0661    0.3296   -0.5087 C   0  0  0  0  0  0  0  0  0  0  0  0
   -1.9271   -0.6438   -0.8707 C   0  0  1  0  0  0  0  0  0  0  0  0
   -1.8745   -1.4404   -0.1068 H   0  0  0  0  0  0  0  0  0  0  0  0
   -2.0069   -1.2979   -2.2427 C   0  0  0  0  0  0  0  0  0  0  0  0
   -0.6697   -2.0298   -2.5792 C   0  0  2  0  0  0  0  0  0  0  0  0
   -0.4784   -3.4184   -1.9894 C   0  0  0  0  0  0  0  0  0  0  0  0
   -0.4790   -4.5373   -2.8467 C   0  0  0  0  0  0  0  0  0  0  0  0
   -0.2713   -5.8221   -2.3385 C   0  0  0  0  0  0  0  0  0  0  0  0
   -0.0581   -6.0082   -0.9724 C   0  0  0  0  0  0  0  0  0  0  0  0
   -0.0480   -4.9088   -0.1115 C   0  0  0  0  0  0  0  0  0  0  0  0
   -0.2527   -3.6187   -0.6133 C   0  0  0  0  0  0  0  0  0  0  0  0
   -0.7685    0.2118   -0.8683 N   0  0  0  0  0  0  0  0  0  0  0  0
    2.2950    2.9918   -1.8818 C   0  0  0  0  0  0  0  0  0  0  0  0
    2.2190    2.9709   -3.2897 C   0  0  0  0  0  0  0  0  0  0  0  0
    3.0866    3.7516   -4.0565 C   0  0  0  0  0  0  0  0  0  0  0  0
    4.0381    4.5590   -3.4310 C   0  0  0  0  0  0  0  0  0  0  0  0
    4.1235    4.5871   -2.0360 C   0  0  0  0  0  0  0  0  0  0  0  0
    3.2570    3.8068   -1.2613 C   0  0  0  0  0  0  0  0  0  0  0  0
    2.4316    0.4559   -1.9159 H   0  0  0  0  0  0  0  0  0  0  0  0
    1.5920    2.2331    0.0297 H   0  0  0  0  0  0  0  0  0  0  0  0
   -0.2905    3.5964   -0.9510 H   0  0  0  0  0  0  0  0  0  0  0  0
   -0.3356    2.4880   -2.3690 H   0  0  0  0  0  0  0  0  0  0  0  0
   -2.5912    1.7125   -2.0842 H   0  0  0  0  0  0  0  0  0  0  0  0
   -3.0638    2.5734   -0.5655 H   0  0  0  0  0  0  0  0  0  0  0  0
   -4.0763    0.0416   -0.8697 H   0  0  0  0  0  0  0  0  0  0  0  0
   -3.1074    0.3923    0.6030 H   0  0  0  0  0  0  0  0  0  0  0  0
   -2.1296   -0.4773   -2.9851 H   0  0  0  0  0  0  0  0  0  0  0  0
   -2.8816   -1.9758   -2.3446 H   0  0  0  0  0  0  0  0  0  0  0  0
   -0.7306   -2.1445   -3.6848 H   0  0  0  0  0  0  0  0  0  0  0  0
   -0.6351   -4.4148   -3.9114 H   0  0  0  0  0  0  0  0  0  0  0  0
   -0.2706   -6.6737   -3.0070 H   0  0  0  0  0  0  0  0  0  0  0  0
    0.1070   -7.0042   -0.5821 H   0  0  0  0  0  0  0  0  0  0  0  0
    0.1282   -5.0554    0.9462 H   0  0  0  0  0  0  0  0  0  0  0  0
   -0.2117   -2.7865    0.0709 H   0  0  0  0  0  0  0  0  0  0  0  0
    1.4939    2.3426   -3.7918 H   0  0  0  0  0  0  0  0  0  0  0  0
    3.0230    3.7266   -5.1371 H   0  0  0  0  0  0  0  0  0  0  0  0
    4.7112    5.1607   -4.0281 H   0  0  0  0  0  0  0  0  0  0  0  0
    4.8645    5.2119   -1.5550 H   0  0  0  0  0  0  0  0  0  0  0  0
    3.3386    3.8353   -0.1824 H   0  0  0  0  0  0  0  0  0  0  0  0
  2  1  1  0  0  0  0
  3  2  2  0  0  0  0
  4  3  1  0  0  0  0
  4 28  1  0  0  0  0
  5  4  1  0  0  0  0
  5 29  1  1  0  0  0
  6  5  1  0  0  0  0
  6 30  1  0  0  0  0
  6 31  1  0  0  0  0
  7  6  1  0  0  0  0
  7  8  1  1  0  0  0
  9  7  1  0  0  0  0
  9 32  1  0  0  0  0
  9 33  1  0  0  0  0
 10  9  1  0  0  0  0
 10 34  1  0  0  0  0
 10 35  1  0  0  0  0
 11 10  1  0  0  0  0
 11 12  1  1  0  0  0
 13 11  1  0  0  0  0
 13 36  1  0  0  0  0
 13 37  1  0  0  0  0
 14 13  1  0  0  0  0
 14  2  1  0  0  0  0
 14 38  1  6  0  0  0
 15 14  1  0  0  0  0
 16 15  2  0  0  0  0
 16 39  1  0  0  0  0
 17 16  1  0  0  0  0
 17 40  1  0  0  0  0
 18 17  2  0  0  0  0
 18 41  1  0  0  0  0
 19 18  1  0  0  0  0
 19 42  1  0  0  0  0
 20 19  2  0  0  0  0
 20 15  1  0  0  0  0
 20 43  1  0  0  0  0
 21 11  1  0  0  0  0
 21  3  1  0  0  0  0
 21  7  1  0  0  0  0
 22  5  1  0  0  0  0
 23 22  2  0  0  0  0
 23 44  1  0  0  0  0
 24 23  1  0  0  0  0
 24 45  1  0  0  0  0
 25 24  2  0  0  0  0
 25 46  1  0  0  0  0
 26 25  1  0  0  0  0
 26 47  1  0  0  0  0
 27 26  2  0  0  0  0
 27 22  1  0  0  0  0
 27 48  1  0  0  0  0
M  CHG  1   2   1
M  END
>  <MOL Chiral Flag>
0

>  <energy>
18.528196442031479

$$$$
> 357_AKC_acs.jnatprod.6b00256
>342.sdf
 OpenBabel10062212513D

 57 60  0  0  0  0  0  0  0  0999 V2000
    3.3938   -0.9730    2.2777 H   0  0  0  0  0  0  0  0  0  0  0  0
    3.4454   -0.9215    1.2470 N   0  3  0  0  0  0  0  0  0  0  0  0
    2.5090   -1.4792    0.5427 C   0  0  0  0  0  0  0  0  0  0  0  0
    1.4295   -2.1463    1.1865 N   0  0  0  0  0  0  0  0  0  0  0  0
    0.3224   -2.6793    0.4049 C   0  0  1  0  0  0  0  0  0  0  0  0
    0.6332   -3.6515   -0.0424 H   0  0  0  0  0  0  0  0  0  0  0  0
   -0.8666   -2.9659    1.3446 C   0  0  0  0  0  0  0  0  0  0  0  0
   -2.1100   -3.5579    0.6626 C   0  0  0  0  0  0  0  0  0  0  0  0
   -3.0926   -4.0589    1.7345 C   0  0  0  0  0  0  0  0  0  0  0  0
   -4.3866   -4.6150    1.1422 C   0  0  0  0  0  0  0  0  0  0  0  0
   -5.1456   -5.1785    2.1935 O   0  0  0  0  0  0  0  0  0  0  0  0
   -6.5057   -5.3293    1.8346 C   0  0  0  0  0  0  0  0  0  0  0  0
   -6.9741   -6.7055    2.2243 C   0  0  0  0  0  0  0  0  0  0  0  0
   -7.9772   -6.8741    3.1952 C   0  0  0  0  0  0  0  0  0  0  0  0
   -8.4113   -8.1581    3.5425 C   0  0  0  0  0  0  0  0  0  0  0  0
   -7.8523   -9.2790    2.9225 C   0  0  0  0  0  0  0  0  0  0  0  0
   -6.8551   -9.1190    1.9565 C   0  0  0  0  0  0  0  0  0  0  0  0
   -6.4143   -7.8377    1.6086 C   0  0  0  0  0  0  0  0  0  0  0  0
    0.0375   -1.7115   -0.7674 C   0  0  0  0  0  0  0  0  0  0  0  0
    1.3149   -1.6868   -1.6425 C   0  0  1  0  0  0  0  0  0  0  0  0
    1.4738   -2.7147   -2.0407 H   0  0  0  0  0  0  0  0  0  0  0  0
    1.3108   -0.7273   -2.8454 C   0  0  0  0  0  0  0  0  0  0  0  0
    2.5164    0.2058   -2.6417 C   0  0  0  0  0  0  0  0  0  0  0  0
    3.3885   -0.4512   -1.5687 C   0  0  1  0  0  0  0  0  0  0  0  0
    4.1700   -1.0919   -2.0354 H   0  0  0  0  0  0  0  0  0  0  0  0
    4.0014    0.5797   -0.6001 C   0  0  0  0  0  0  0  0  0  0  0  0
    4.5328   -0.1727    0.6268 C   0  0  1  0  0  0  0  0  0  0  0  0
    5.3186   -0.8822    0.2859 H   0  0  0  0  0  0  0  0  0  0  0  0
    5.1394    0.8064    1.6399 C   0  0  0  0  0  0  0  0  0  0  0  0
    2.4961   -1.3479   -0.8854 N   0  0  0  0  0  0  0  0  0  0  0  0
    1.3654   -2.1115    2.2166 H   0  0  0  0  0  0  0  0  0  0  0  0
   -1.1592   -2.0400    1.8868 H   0  0  0  0  0  0  0  0  0  0  0  0
   -0.4961   -3.7037    2.0917 H   0  0  0  0  0  0  0  0  0  0  0  0
   -2.5885   -2.7826    0.0257 H   0  0  0  0  0  0  0  0  0  0  0  0
   -1.8187   -4.4213    0.0257 H   0  0  0  0  0  0  0  0  0  0  0  0
   -3.3502   -3.2346    2.4356 H   0  0  0  0  0  0  0  0  0  0  0  0
   -2.5925   -4.8687    2.3114 H   0  0  0  0  0  0  0  0  0  0  0  0
   -4.9172   -3.7675    0.6470 H   0  0  0  0  0  0  0  0  0  0  0  0
   -4.1472   -5.4088    0.4008 H   0  0  0  0  0  0  0  0  0  0  0  0
   -7.0873   -4.5463    2.3672 H   0  0  0  0  0  0  0  0  0  0  0  0
   -6.7055   -5.2132    0.7427 H   0  0  0  0  0  0  0  0  0  0  0  0
   -8.4204   -6.0147    3.6825 H   0  0  0  0  0  0  0  0  0  0  0  0
   -9.1829   -8.2843    4.2912 H   0  0  0  0  0  0  0  0  0  0  0  0
   -8.1923  -10.2714    3.1901 H   0  0  0  0  0  0  0  0  0  0  0  0
   -6.4247   -9.9882    1.4759 H   0  0  0  0  0  0  0  0  0  0  0  0
   -5.6432   -7.7249    0.8567 H   0  0  0  0  0  0  0  0  0  0  0  0
   -0.2003   -0.6989   -0.3750 H   0  0  0  0  0  0  0  0  0  0  0  0
   -0.8101   -2.0702   -1.3890 H   0  0  0  0  0  0  0  0  0  0  0  0
    1.4387   -1.3250   -3.7725 H   0  0  0  0  0  0  0  0  0  0  0  0
    0.3769   -0.1270   -2.9354 H   0  0  0  0  0  0  0  0  0  0  0  0
    3.0602    0.4874   -3.5720 H   0  0  0  0  0  0  0  0  0  0  0  0
    2.0928    1.1366   -2.2123 H   0  0  0  0  0  0  0  0  0  0  0  0
    4.7920    1.1696   -1.1116 H   0  0  0  0  0  0  0  0  0  0  0  0
    3.2097    1.2779   -0.2436 H   0  0  0  0  0  0  0  0  0  0  0  0
    4.3620    1.5170    1.9997 H   0  0  0  0  0  0  0  0  0  0  0  0
    5.9642    1.3866    1.1762 H   0  0  0  0  0  0  0  0  0  0  0  0
    5.5416    0.2536    2.5149 H   0  0  0  0  0  0  0  0  0  0  0  0
  2  1  1  0  0  0  0
  3  2  2  0  0  0  0
  4  3  1  0  0  0  0
  4 31  1  0  0  0  0
  5  4  1  0  0  0  0
  5  6  1  6  0  0  0
  7  5  1  0  0  0  0
  7 32  1  0  0  0  0
  7 33  1  0  0  0  0
  8  7  1  0  0  0  0
  8 34  1  0  0  0  0
  8 35  1  0  0  0  0
  9  8  1  0  0  0  0
  9 36  1  0  0  0  0
  9 37  1  0  0  0  0
 10  9  1  0  0  0  0
 10 38  1  0  0  0  0
 10 39  1  0  0  0  0
 11 10  1  0  0  0  0
 12 11  1  0  0  0  0
 12 40  1  0  0  0  0
 12 41  1  0  0  0  0
 13 12  1  0  0  0  0
 14 13  2  0  0  0  0
 14 42  1  0  0  0  0
 15 14  1  0  0  0  0
 15 43  1  0  0  0  0
 16 15  2  0  0  0  0
 16 44  1  0  0  0  0
 17 16  1  0  0  0  0
 17 45  1  0  0  0  0
 18 17  2  0  0  0  0
 18 13  1  0  0  0  0
 18 46  1  0  0  0  0
 19  5  1  0  0  0  0
 19 47  1  0  0  0  0
 19 48  1  0  0  0  0
 20 19  1  0  0  0  0
 20 21  1  6  0  0  0
 22 20  1  0  0  0  0
 22 49  1  0  0  0  0
 22 50  1  0  0  0  0
 23 22  1  0  0  0  0
 23 51  1  0  0  0  0
 23 52  1  0  0  0  0
 24 23  1  0  0  0  0
 24 25  1  6  0  0  0
 26 24  1  0  0  0  0
 26 53  1  0  0  0  0
 26 54  1  0  0  0  0
 27 26  1  0  0  0  0
 27  2  1  0  0  0  0
 27 28  1  6  0  0  0
 29 27  1  0  0  0  0
 29 55  1  0  0  0  0
 29 56  1  0  0  0  0
 29 57  1  0  0  0  0
 30 24  1  0  0  0  0
 30  3  1  0  0  0  0
 30 20  1  0  0  0  0
M  CHG  1   2   1
M  END
>  <MOL Chiral Flag>
0

>  <energy>
-114.70928142847748

$$$$
> 358_AKC_j.exppara.2016.03.007
>343.sdf
 OpenBabel10062212513D

 44 46  0  0  0  0  0  0  0  0999 V2000
   -3.9702   -3.9817   -1.7591 C   0  0  0  0  0  0  0  0  0  0  0  0
   -3.3004   -3.6979   -0.5848 O   0  0  0  0  0  0  0  0  0  0  0  0
   -2.8229   -2.4735   -0.2335 C   0  0  0  0  0  0  0  0  0  0  0  0
   -2.2458   -2.3142    1.0349 C   0  0  0  0  0  0  0  0  0  0  0  0
   -1.7701   -1.0640    1.4498 C   0  0  0  0  0  0  0  0  0  0  0  0
   -1.8652    0.0406    0.5945 C   0  0  0  0  0  0  0  0  0  0  0  0
   -2.4327   -0.1141   -0.6779 C   0  0  0  0  0  0  0  0  0  0  0  0
   -2.9051   -1.3602   -1.0947 C   0  0  0  0  0  0  0  0  0  0  0  0
   -1.4539    1.3860    1.0366 C   0  0  0  0  0  0  0  0  0  0  0  0
   -2.4496    2.2452    1.5313 C   0  0  0  0  0  0  0  0  0  0  0  0
   -2.1365    3.5510    1.9113 C   0  0  0  0  0  0  0  0  0  0  0  0
   -0.8316    4.0217    1.7822 C   0  0  0  0  0  0  0  0  0  0  0  0
    0.1658    3.1873    1.2774 C   0  0  0  0  0  0  0  0  0  0  0  0
   -0.1267    1.8626    0.9100 C   0  0  0  0  0  0  0  0  0  0  0  0
    0.9863    1.0303    0.4116 C   0  0  0  0  0  0  0  0  0  0  0  0
    1.5791    1.3172   -0.8244 C   0  0  0  0  0  0  0  0  0  0  0  0
    2.7012    0.5848   -1.2648 C   0  0  0  0  0  0  0  0  0  0  0  0
    3.2949    0.8142   -2.4648 O   0  0  0  0  0  0  0  0  0  0  0  0
    2.9034    1.7725   -3.3782 C   0  0  0  0  0  0  0  0  0  0  0  0
    3.2411   -0.4027   -0.4309 C   0  0  0  0  0  0  0  0  0  0  0  0
    2.6643   -0.6795    0.8242 C   0  0  0  0  0  0  0  0  0  0  0  0
    3.2015   -1.5843    1.6867 O   0  0  0  0  0  0  0  0  0  0  0  0
    4.4700   -2.1196    1.5779 C   0  0  0  0  0  0  0  0  0  0  0  0
    1.5221    0.0229    1.2256 C   0  0  0  0  0  0  0  0  0  0  0  0
   -4.8971   -3.3716   -1.8296 H   0  0  0  0  0  0  0  0  0  0  0  0
   -3.3174   -3.7870   -2.6362 H   0  0  0  0  0  0  0  0  0  0  0  0
   -4.2576   -5.0531   -1.7639 H   0  0  0  0  0  0  0  0  0  0  0  0
   -2.1838   -3.1597    1.7081 H   0  0  0  0  0  0  0  0  0  0  0  0
   -1.3517   -0.9524    2.4420 H   0  0  0  0  0  0  0  0  0  0  0  0
   -2.5197    0.7372   -1.3425 H   0  0  0  0  0  0  0  0  0  0  0  0
   -3.3443   -1.4458   -2.0795 H   0  0  0  0  0  0  0  0  0  0  0  0
   -3.4722    1.8986    1.6209 H   0  0  0  0  0  0  0  0  0  0  0  0
   -2.9096    4.2013    2.2992 H   0  0  0  0  0  0  0  0  0  0  0  0
   -0.5905    5.0355    2.0742 H   0  0  0  0  0  0  0  0  0  0  0  0
    1.1769    3.5663    1.1874 H   0  0  0  0  0  0  0  0  0  0  0  0
    1.1624    2.1071   -1.4365 H   0  0  0  0  0  0  0  0  0  0  0  0
    3.5623    1.7134   -4.2686 H   0  0  0  0  0  0  0  0  0  0  0  0
    3.0002    2.7857   -2.9337 H   0  0  0  0  0  0  0  0  0  0  0  0
    1.8564    1.5933   -3.7038 H   0  0  0  0  0  0  0  0  0  0  0  0
    4.1190   -0.9384   -0.7672 H   0  0  0  0  0  0  0  0  0  0  0  0
    5.2261   -1.3038    1.6095 H   0  0  0  0  0  0  0  0  0  0  0  0
    4.6543   -2.7934    2.4394 H   0  0  0  0  0  0  0  0  0  0  0  0
    4.5780   -2.7044    0.6415 H   0  0  0  0  0  0  0  0  0  0  0  0
    1.0893   -0.1737    2.1981 H   0  0  0  0  0  0  0  0  0  0  0  0
  1 25  1  0  0  0  0
  1 26  1  0  0  0  0
  1 27  1  0  0  0  0
  2  1  1  0  0  0  0
  3  2  1  0  0  0  0
  4  3  2  0  0  0  0
  4 28  1  0  0  0  0
  5  4  1  0  0  0  0
  5 29  1  0  0  0  0
  6  5  2  0  0  0  0
  7  6  1  0  0  0  0
  7 30  1  0  0  0  0
  8  7  2  0  0  0  0
  8  3  1  0  0  0  0
  8 31  1  0  0  0  0
  9  6  1  0  0  0  0
 10  9  2  0  0  0  0
 10 32  1  0  0  0  0
 11 10  1  0  0  0  0
 11 33  1  0  0  0  0
 12 11  2  0  0  0  0
 12 34  1  0  0  0  0
 13 12  1  0  0  0  0
 13 35  1  0  0  0  0
 14 13  2  0  0  0  0
 14  9  1  0  0  0  0
 15 14  1  0  0  0  0
 16 15  2  0  0  0  0
 16 36  1  0  0  0  0
 17 16  1  0  0  0  0
 18 17  1  0  0  0  0
 19 18  1  0  0  0  0
 19 37  1  0  0  0  0
 19 38  1  0  0  0  0
 19 39  1  0  0  0  0
 20 17  2  0  0  0  0
 20 40  1  0  0  0  0
 21 20  1  0  0  0  0
 22 21  1  0  0  0  0
 23 22  1  0  0  0  0
 23 41  1  0  0  0  0
 23 42  1  0  0  0  0
 23 43  1  0  0  0  0
 24 21  2  0  0  0  0
 24 15  1  0  0  0  0
 24 44  1  0  0  0  0
M  END
>  <MOL Chiral Flag>
0

>  <energy>
78.659018445391069

$$$$
> 359_AKC_s00109-016-1384-5
>344.sdf
 OpenBabel10042216403D

 51 51  0  0  0  0  0  0  0  0999 V2000
    3.6379   -3.7252    1.1075 C   0  0  0  0  0  0  0  0  0  0  0  0
    4.1231   -2.3289    0.7623 C   0  0  0  0  0  0  0  0  0  0  0  0
    3.4599   -1.8002   -0.5077 C   0  0  0  0  0  0  0  0  0  0  0  0
    3.9090   -0.3678   -0.7904 C   0  0  0  0  0  0  0  0  0  0  0  0
    3.2170    0.2232   -2.0230 C   0  0  0  0  0  0  0  0  0  0  0  0
    2.7674    1.6250   -1.7323 C   0  0  0  0  0  0  0  0  0  0  0  0
    1.4885    1.9393   -1.4801 C   0  0  0  0  0  0  0  0  0  0  0  0
    1.0834    3.2550   -1.0578 C   0  0  0  0  0  0  0  0  0  0  0  0
   -0.0470    3.5213   -0.3918 C   0  0  0  0  0  0  0  0  0  0  0  0
   -1.1651    2.6431    0.1130 C   0  0  1  0  0  0  0  0  0  0  0  0
   -0.7580    1.7049    1.2723 C   0  0  0  0  0  0  0  0  0  0  0  0
   -0.5376    0.2688    0.8668 C   0  0  0  0  0  0  0  0  0  0  0  0
   -1.4454   -0.7197    0.9248 C   0  0  0  0  0  0  0  0  0  0  0  0
   -2.8776   -0.5615    1.3535 C   0  0  0  0  0  0  0  0  0  0  0  0
   -3.7810   -1.7272    0.9423 C   0  0  0  0  0  0  0  0  0  0  0  0
   -3.9858   -1.8353   -0.5644 C   0  0  0  0  0  0  0  0  0  0  0  0
   -5.0284   -2.8737   -0.8673 C   0  0  0  0  0  0  0  0  0  0  0  0
   -4.5717   -4.1315   -0.7064 O   0  0  0  0  0  0  0  0  0  0  0  0
   -6.1777   -2.6623   -1.2102 O   0  0  0  0  0  0  0  0  0  0  0  0
   -2.1702    3.6538    0.6165 C   0  0  0  0  0  0  0  0  0  0  0  0
   -1.7413    4.9192    0.5756 C   0  0  0  0  0  0  0  0  0  0  0  0
   -0.3923    4.9216   -0.0110 C   0  0  0  0  0  0  0  0  0  0  0  0
    0.3001    5.9102   -0.1537 O   0  0  0  0  0  0  0  0  0  0  0  0
    2.5649   -3.7200    1.3244 H   0  0  0  0  0  0  0  0  0  0  0  0
    4.1615   -4.1007    1.9917 H   0  0  0  0  0  0  0  0  0  0  0  0
    3.8213   -4.4161    0.2794 H   0  0  0  0  0  0  0  0  0  0  0  0
    5.2102   -2.3419    0.6303 H   0  0  0  0  0  0  0  0  0  0  0  0
    3.9078   -1.6592    1.6028 H   0  0  0  0  0  0  0  0  0  0  0  0
    3.7099   -2.4471   -1.3568 H   0  0  0  0  0  0  0  0  0  0  0  0
    2.3708   -1.8262   -0.3848 H   0  0  0  0  0  0  0  0  0  0  0  0
    4.9954   -0.3500   -0.9416 H   0  0  0  0  0  0  0  0  0  0  0  0
    3.7088    0.2391    0.1020 H   0  0  0  0  0  0  0  0  0  0  0  0
    3.9127    0.2415   -2.8690 H   0  0  0  0  0  0  0  0  0  0  0  0
    2.3632   -0.3934   -2.3317 H   0  0  0  0  0  0  0  0  0  0  0  0
    3.5475    2.3789   -1.6428 H   0  0  0  0  0  0  0  0  0  0  0  0
    0.7243    1.1676   -1.5397 H   0  0  0  0  0  0  0  0  0  0  0  0
    1.7624    4.0757   -1.2914 H   0  0  0  0  0  0  0  0  0  0  0  0
   -1.6198    2.0926   -0.7191 H   0  0  0  0  0  0  0  0  0  0  0  0
   -1.5127    1.7253    2.0684 H   0  0  0  0  0  0  0  0  0  0  0  0
    0.1611    2.0582    1.7560 H   0  0  0  0  0  0  0  0  0  0  0  0
    0.4790    0.0120    0.5699 H   0  0  0  0  0  0  0  0  0  0  0  0
   -1.1158   -1.7267    0.6657 H   0  0  0  0  0  0  0  0  0  0  0  0
   -2.9005   -0.4879    2.4467 H   0  0  0  0  0  0  0  0  0  0  0  0
   -3.2937    0.3686    0.9509 H   0  0  0  0  0  0  0  0  0  0  0  0
   -4.7595   -1.5898    1.4230 H   0  0  0  0  0  0  0  0  0  0  0  0
   -3.3734   -2.6701    1.3338 H   0  0  0  0  0  0  0  0  0  0  0  0
   -4.3388   -0.8814   -0.9727 H   0  0  0  0  0  0  0  0  0  0  0  0
   -3.0621   -2.0897   -1.0961 H   0  0  0  0  0  0  0  0  0  0  0  0
   -5.3443   -4.6927   -0.9300 H   0  0  0  0  0  0  0  0  0  0  0  0
   -3.1426    3.3651    0.9972 H   0  0  0  0  0  0  0  0  0  0  0  0
   -2.2445    5.8159    0.8948 H   0  0  0  0  0  0  0  0  0  0  0  0
  1 24  1  0  0  0  0
  1 25  1  0  0  0  0
  1 26  1  0  0  0  0
  2  1  1  0  0  0  0
  2 27  1  0  0  0  0
  2 28  1  0  0  0  0
  3  2  1  0  0  0  0
  3 29  1  0  0  0  0
  3 30  1  0  0  0  0
  4  3  1  0  0  0  0
  4 31  1  0  0  0  0
  4 32  1  0  0  0  0
  5  4  1  0  0  0  0
  5 33  1  0  0  0  0
  5 34  1  0  0  0  0
  6  5  1  0  0  0  0
  6 35  1  0  0  0  0
  7  6  2  0  0  0  0
  7 36  1  0  0  0  0
  8  7  1  0  0  0  0
  8 37  1  0  0  0  0
  9  8  2  0  0  0  0
 10  9  1  0  0  0  0
 10 38  1  6  0  0  0
 11 10  1  0  0  0  0
 11 39  1  0  0  0  0
 11 40  1  0  0  0  0
 12 11  1  0  0  0  0
 12 41  1  0  0  0  0
 13 12  2  0  0  0  0
 13 42  1  0  0  0  0
 14 13  1  0  0  0  0
 14 43  1  0  0  0  0
 14 44  1  0  0  0  0
 15 14  1  0  0  0  0
 15 45  1  0  0  0  0
 15 46  1  0  0  0  0
 16 15  1  0  0  0  0
 16 47  1  0  0  0  0
 16 48  1  0  0  0  0
 17 16  1  0  0  0  0
 18 17  1  0  0  0  0
 18 49  1  0  0  0  0
 19 17  2  0  0  0  0
 20 10  1  0  0  0  0
 20 50  1  0  0  0  0
 21 20  2  0  0  0  0
 21 51  1  0  0  0  0
 22 21  1  0  0  0  0
 22  9  1  0  0  0  0
 23 22  2  0  0  0  0
M  END
>  <energy>
13.266764028114197

$$$$
> 360_AKC_j.parint.2016.01.001
>345.sdf
 OpenBabel10062212533D

 80 84  0  0  0  0  0  0  0  0999 V2000
    5.0597   -3.2229   -1.1334 C   0  0  0  0  0  0  0  0  0  0  0  0
    4.8626   -1.7032   -1.3308 C   0  0  0  0  0  0  0  0  0  0  0  0
    5.3368   -1.3603   -2.7662 C   0  0  0  0  0  0  0  0  0  0  0  0
    5.6805   -0.9483   -0.2504 C   0  0  0  0  0  0  0  0  0  0  0  0
    5.4509    0.5695   -0.3175 C   0  0  0  0  0  0  0  0  0  0  0  0
    3.9551    0.9966   -0.1729 C   0  0  2  0  0  0  0  0  0  0  0  0
    3.4273    0.7558    1.2837 C   0  0  0  0  0  0  0  0  0  0  0  0
    1.9484    1.2087    1.4486 C   0  0  0  0  0  0  0  0  0  0  0  0
    0.9279    0.5228    0.4691 C   0  0  2  0  0  0  0  0  0  0  0  0
    0.7440   -0.9414    0.9957 C   0  0  0  0  0  0  0  0  0  0  0  0
    1.5659    0.4680   -0.9550 C   0  0  0  0  0  0  0  0  0  0  0  0
    0.8330    0.6887   -2.0714 C   0  0  0  0  0  0  0  0  0  0  0  0
   -0.6453    0.9432   -2.0977 C   0  0  0  0  0  0  0  0  0  0  0  0
   -1.3671    0.7262   -0.7449 C   0  0  2  0  0  0  0  0  0  0  0  0
   -2.9363    1.0713   -0.7934 C   0  0  1  0  0  0  0  0  0  0  0  0
   -3.2185    2.5163   -1.3285 C   0  0  0  0  0  0  0  0  0  0  0  0
   -3.6393    0.0762   -1.7753 C   0  0  0  0  0  0  0  0  0  0  0  0
   -5.1808    0.1265   -1.7055 C   0  0  0  0  0  0  0  0  0  0  0  0
   -5.6687   -0.1940   -0.2843 C   0  0  2  0  0  0  0  0  0  0  0  0
   -7.0752   -0.2008   -0.2558 O   0  0  0  0  0  0  0  0  0  0  0  0
   -5.1004    0.7836    0.7977 C   0  0  0  0  0  0  0  0  0  0  0  0
   -5.4965    0.2002    2.1850 C   0  0  0  0  0  0  0  0  0  0  0  0
   -5.7684    2.1826    0.7264 C   0  0  0  0  0  0  0  0  0  0  0  0
   -3.5191    0.7948    0.6516 C   0  0  2  0  0  0  0  0  0  0  0  0
   -2.7569    1.6469    1.7065 C   0  0  0  0  0  0  0  0  0  0  0  0
   -1.2882    1.1899    1.7669 C   0  0  0  0  0  0  0  0  0  0  0  0
   -0.4988    1.3321    0.4247 C   0  0  1  0  0  0  0  0  0  0  0  0
   -0.2454    2.8604    0.1966 C   0  0  0  0  0  0  0  0  0  0  0  0
    3.0672    0.1722   -1.1567 C   0  0  2  0  0  0  0  0  0  0  0  0
    3.3670   -1.3566   -1.1263 C   0  0  0  0  0  0  0  0  0  0  0  0
    3.9308    2.4836   -0.5633 C   0  0  0  0  0  0  0  0  0  0  0  0
    4.2605    2.8469   -1.8193 O   0  0  0  0  0  0  0  0  0  0  0  0
    3.6972    3.3576    0.2567 O   0  0  0  0  0  0  0  0  0  0  0  0
    4.4619   -3.7966   -1.8746 H   0  0  0  0  0  0  0  0  0  0  0  0
    4.7388   -3.5377   -0.1166 H   0  0  0  0  0  0  0  0  0  0  0  0
    6.1289   -3.5007   -1.2557 H   0  0  0  0  0  0  0  0  0  0  0  0
    6.4066   -1.6328   -2.8932 H   0  0  0  0  0  0  0  0  0  0  0  0
    4.7438   -1.9318   -3.5126 H   0  0  0  0  0  0  0  0  0  0  0  0
    5.2382   -0.2902   -3.0254 H   0  0  0  0  0  0  0  0  0  0  0  0
    5.3917   -1.3072    0.7605 H   0  0  0  0  0  0  0  0  0  0  0  0
    6.7649   -1.1621   -0.3749 H   0  0  0  0  0  0  0  0  0  0  0  0
    6.0631    1.0752    0.4613 H   0  0  0  0  0  0  0  0  0  0  0  0
    5.8513    0.9128   -1.2938 H   0  0  0  0  0  0  0  0  0  0  0  0
    4.0546    1.3266    2.0032 H   0  0  0  0  0  0  0  0  0  0  0  0
    3.5177   -0.3082    1.5691 H   0  0  0  0  0  0  0  0  0  0  0  0
    1.6211    1.0786    2.5026 H   0  0  0  0  0  0  0  0  0  0  0  0
    1.9752    2.2836    1.2866 H   0  0  0  0  0  0  0  0  0  0  0  0
    0.1287   -1.5751    0.3303 H   0  0  0  0  0  0  0  0  0  0  0  0
    1.6740   -1.4792    1.1691 H   0  0  0  0  0  0  0  0  0  0  0  0
    0.3336   -0.9768    2.0192 H   0  0  0  0  0  0  0  0  0  0  0  0
    1.3266    0.6834   -3.0395 H   0  0  0  0  0  0  0  0  0  0  0  0
   -1.0907    0.2623   -2.8501 H   0  0  0  0  0  0  0  0  0  0  0  0
   -0.7385    1.9797   -2.4684 H   0  0  0  0  0  0  0  0  0  0  0  0
   -1.3552   -0.3620   -0.5553 H   0  0  0  0  0  0  0  0  0  0  0  0
   -3.0137    3.3264   -0.6221 H   0  0  0  0  0  0  0  0  0  0  0  0
   -4.2525    2.6893   -1.6254 H   0  0  0  0  0  0  0  0  0  0  0  0
   -2.7010    2.7155   -2.2824 H   0  0  0  0  0  0  0  0  0  0  0  0
   -3.3424   -0.9655   -1.5195 H   0  0  0  0  0  0  0  0  0  0  0  0
   -3.3261    0.2626   -2.8240 H   0  0  0  0  0  0  0  0  0  0  0  0
   -5.5858   -0.6377   -2.4045 H   0  0  0  0  0  0  0  0  0  0  0  0
   -5.5859    1.0987   -2.0416 H   0  0  0  0  0  0  0  0  0  0  0  0
   -5.2868   -1.2168   -0.0404 H   0  0  0  0  0  0  0  0  0  0  0  0
   -7.3708   -1.1128   -0.5142 H   0  0  0  0  0  0  0  0  0  0  0  0
   -5.0509   -0.8059    2.3397 H   0  0  0  0  0  0  0  0  0  0  0  0
   -5.1882    0.8532    3.0248 H   0  0  0  0  0  0  0  0  0  0  0  0
   -6.5998    0.0935    2.2699 H   0  0  0  0  0  0  0  0  0  0  0  0
   -5.7217    2.6781   -0.2451 H   0  0  0  0  0  0  0  0  0  0  0  0
   -5.3364    2.8621    1.4907 H   0  0  0  0  0  0  0  0  0  0  0  0
   -6.8566    2.0993    0.9358 H   0  0  0  0  0  0  0  0  0  0  0  0
   -3.2554   -0.2666    0.8737 H   0  0  0  0  0  0  0  0  0  0  0  0
   -2.8561    2.7331    1.5203 H   0  0  0  0  0  0  0  0  0  0  0  0
   -3.1553    1.4624    2.7216 H   0  0  0  0  0  0  0  0  0  0  0  0
   -1.3784    0.1325    2.0637 H   0  0  0  0  0  0  0  0  0  0  0  0
   -0.7539    1.7142    2.5884 H   0  0  0  0  0  0  0  0  0  0  0  0
   -1.1482    3.4580    0.1085 H   0  0  0  0  0  0  0  0  0  0  0  0
    0.3794    3.0556   -0.6977 H   0  0  0  0  0  0  0  0  0  0  0  0
    0.2363    3.3403    1.0685 H   0  0  0  0  0  0  0  0  0  0  0  0
    3.3513    0.4654   -2.1889 H   0  0  0  0  0  0  0  0  0  0  0  0
    2.7469   -1.8738   -1.8920 H   0  0  0  0  0  0  0  0  0  0  0  0
    3.1130   -1.7878   -0.1601 H   0  0  0  0  0  0  0  0  0  0  0  0
  1 34  1  0  0  0  0
  1 35  1  0  0  0  0
  1 36  1  0  0  0  0
  2  1  1  0  0  0  0
  3  2  1  0  0  0  0
  3 37  1  0  0  0  0
  3 38  1  0  0  0  0
  3 39  1  0  0  0  0
  4  2  1  0  0  0  0
  4 40  1  0  0  0  0
  4 41  1  0  0  0  0
  5  4  1  0  0  0  0
  5 42  1  0  0  0  0
  5 43  1  0  0  0  0
  6  5  1  0  0  0  0
  6 31  1  6  0  0  0
  7  6  1  0  0  0  0
  7 44  1  0  0  0  0
  7 45  1  0  0  0  0
  8  7  1  0  0  0  0
  8 46  1  0  0  0  0
  8 47  1  0  0  0  0
  9  8  1  0  0  0  0
  9 10  1  1  0  0  0
 10 48  1  0  0  0  0
 10 49  1  0  0  0  0
 10 50  1  0  0  0  0
 11  9  1  0  0  0  0
 12 11  2  0  0  0  0
 12 51  1  0  0  0  0
 13 12  1  0  0  0  0
 13 52  1  0  0  0  0
 13 53  1  0  0  0  0
 14 13  1  0  0  0  0
 14 54  1  1  0  0  0
 15 14  1  0  0  0  0
 15 16  1  6  0  0  0
 16 55  1  0  0  0  0
 16 56  1  0  0  0  0
 16 57  1  0  0  0  0
 17 15  1  0  0  0  0
 17 58  1  0  0  0  0
 17 59  1  0  0  0  0
 18 17  1  0  0  0  0
 18 60  1  0  0  0  0
 18 61  1  0  0  0  0
 19 18  1  0  0  0  0
 19 62  1  1  0  0  0
 20 19  1  0  0  0  0
 20 63  1  0  0  0  0
 21 19  1  0  0  0  0
 22 21  1  0  0  0  0
 22 64  1  0  0  0  0
 22 65  1  0  0  0  0
 22 66  1  0  0  0  0
 23 21  1  0  0  0  0
 23 67  1  0  0  0  0
 23 68  1  0  0  0  0
 23 69  1  0  0  0  0
 24 21  1  0  0  0  0
 24 15  1  0  0  0  0
 24 70  1  1  0  0  0
 25 24  1  0  0  0  0
 25 71  1  0  0  0  0
 25 72  1  0  0  0  0
 26 25  1  0  0  0  0
 26 73  1  0  0  0  0
 26 74  1  0  0  0  0
 27 26  1  0  0  0  0
 27  9  1  0  0  0  0
 27 14  1  0  0  0  0
 27 28  1  6  0  0  0
 28 75  1  0  0  0  0
 28 76  1  0  0  0  0
 28 77  1  0  0  0  0
 29 11  1  0  0  0  0
 29  6  1  0  0  0  0
 29 78  1  6  0  0  0
 30 29  1  0  0  0  0
 30  2  1  0  0  0  0
 30 79  1  0  0  0  0
 30 80  1  0  0  0  0
 32 31  1  0  0  0  0
 33 31  2  0  0  0  0
M  END
>  <MOL Chiral Flag>
0

>  <energy>
145.06611595727017

$$$$
> 361_AKC_DDDT.S96650
>346.sdf
 OpenBabel10062212543D

 31 32  0  0  0  0  0  0  0  0999 V2000
   -3.5555    2.9553    0.4863 O   0  5  0  0  0  0  0  0  0  0  0  0
   -2.7832    2.0034    0.0095 N   0  3  0  0  0  0  0  0  0  0  0  0
   -1.7686    2.3114   -0.5377 O   0  0  0  0  0  0  0  0  0  0  0  0
   -3.1052    0.6262    0.2559 C   0  0  0  0  0  0  0  0  0  0  0  0
   -2.4220   -0.4634   -0.3687 C   0  0  0  0  0  0  0  0  0  0  0  0
   -2.7659   -1.7817   -0.0285 C   0  0  0  0  0  0  0  0  0  0  0  0
   -3.7678   -2.0404    0.9032 C   0  0  0  0  0  0  0  0  0  0  0  0
   -4.4491   -0.9874    1.5035 C   0  0  0  0  0  0  0  0  0  0  0  0
   -4.1291    0.3311    1.1807 C   0  0  0  0  0  0  0  0  0  0  0  0
   -1.0609   -0.2540   -1.5301 S   0  0  0  0  0  0  0  0  0  0  0  0
   -1.1849    0.8587   -2.5845 O   0  0  0  0  0  0  0  0  0  0  0  0
   -0.7755   -1.5115   -2.3683 O   0  0  0  0  0  0  0  0  0  0  0  0
    0.4248    0.0335   -0.6236 N   0  0  0  0  0  0  0  0  0  0  0  0
    1.5957    0.2634   -1.4659 C   0  0  0  0  0  0  0  0  0  0  0  0
    2.8049    0.2269   -0.5747 C   0  0  0  0  0  0  0  0  0  0  0  0
    3.0586   -0.9067    0.1388 N   0  0  0  0  0  0  0  0  0  0  0  0
    4.0981   -0.9944    1.0065 C   0  0  0  0  0  0  0  0  0  0  0  0
    4.9495    0.0951    1.1849 C   0  0  0  0  0  0  0  0  0  0  0  0
    4.7221    1.2677    0.4606 C   0  0  0  0  0  0  0  0  0  0  0  0
    3.6432    1.3410   -0.4254 C   0  0  0  0  0  0  0  0  0  0  0  0
   -2.2401   -2.6154   -0.4771 H   0  0  0  0  0  0  0  0  0  0  0  0
   -4.0108   -3.0620    1.1657 H   0  0  0  0  0  0  0  0  0  0  0  0
   -5.2220   -1.1914    2.2327 H   0  0  0  0  0  0  0  0  0  0  0  0
   -4.6652    1.1282    1.6778 H   0  0  0  0  0  0  0  0  0  0  0  0
    0.5560   -0.8445   -0.0701 H   0  0  0  0  0  0  0  0  0  0  0  0
    1.6924   -0.5318   -2.2359 H   0  0  0  0  0  0  0  0  0  0  0  0
    1.4958    1.2473   -1.9753 H   0  0  0  0  0  0  0  0  0  0  0  0
    4.2561   -1.9089    1.5623 H   0  0  0  0  0  0  0  0  0  0  0  0
    5.7757    0.0300    1.8801 H   0  0  0  0  0  0  0  0  0  0  0  0
    5.3754    2.1196    0.5930 H   0  0  0  0  0  0  0  0  0  0  0  0
    3.4571    2.2547   -0.9758 H   0  0  0  0  0  0  0  0  0  0  0  0
  2  1  1  0  0  0  0
  3  2  2  0  0  0  0
  4  2  1  0  0  0  0
  5  4  2  0  0  0  0
  6  5  1  0  0  0  0
  6 21  1  0  0  0  0
  7  6  2  0  0  0  0
  7 22  1  0  0  0  0
  8  7  1  0  0  0  0
  8 23  1  0  0  0  0
  9  8  2  0  0  0  0
  9  4  1  0  0  0  0
  9 24  1  0  0  0  0
 10  5  1  0  0  0  0
 11 10  2  0  0  0  0
 12 10  2  0  0  0  0
 13 10  1  0  0  0  0
 13 25  1  0  0  0  0
 14 13  1  0  0  0  0
 14 26  1  0  0  0  0
 14 27  1  0  0  0  0
 15 14  1  0  0  0  0
 16 15  2  0  0  0  0
 17 16  1  0  0  0  0
 17 28  1  0  0  0  0
 18 17  2  0  0  0  0
 18 29  1  0  0  0  0
 19 18  1  0  0  0  0
 19 30  1  0  0  0  0
 20 19  2  0  0  0  0
 20 15  1  0  0  0  0
 20 31  1  0  0  0  0
M  CHG  2   1  -1   2   1
M  END
>  <MOL Chiral Flag>
0

>  <energy>
-41.010067816785821

$$$$
> 362_AKC_j.bmcl.2016.03.082
>347.sdf
 OpenBabel10062212543D

 54 57  0  0  0  0  0  0  0  0999 V2000
   -2.3909   -2.9374   -2.7030 C   0  0  0  0  0  0  0  0  0  0  0  0
   -2.9507   -2.0984   -1.5444 C   0  0  0  0  0  0  0  0  0  0  0  0
   -4.3279   -2.6326   -1.1445 C   0  0  0  0  0  0  0  0  0  0  0  0
   -2.1167   -2.1284   -0.4328 O   0  0  0  0  0  0  0  0  0  0  0  0
   -0.8326   -1.6978   -0.4583 C   0  0  0  0  0  0  0  0  0  0  0  0
   -0.4867   -0.3498   -0.1764 C   0  0  0  0  0  0  0  0  0  0  0  0
    0.8646    0.0298   -0.2681 C   0  0  0  0  0  0  0  0  0  0  0  0
    1.8532   -0.8965   -0.5999 C   0  0  0  0  0  0  0  0  0  0  0  0
    1.5205   -2.2410   -0.8399 C   0  0  0  0  0  0  0  0  0  0  0  0
    2.5014   -3.2213   -1.2011 N   0  0  0  0  0  0  0  0  0  0  0  0
    3.9252   -3.0739   -1.0721 C   0  0  0  0  0  0  0  0  0  0  0  0
    4.6823   -3.6304   -1.9594 N   0  0  0  0  0  0  0  0  0  0  0  0
    4.5639   -2.3615    0.0865 C   0  0  0  0  0  0  0  0  0  0  0  0
    5.8762   -1.9951    0.0027 N   0  0  0  0  0  0  0  0  0  0  0  0
    6.5209   -1.3675    1.0224 C   0  0  0  0  0  0  0  0  0  0  0  0
    5.8459   -1.0893    2.2103 C   0  0  0  0  0  0  0  0  0  0  0  0
    4.5113   -1.4674    2.3406 C   0  0  0  0  0  0  0  0  0  0  0  0
    3.8641   -2.1096    1.2839 C   0  0  0  0  0  0  0  0  0  0  0  0
    0.1735   -2.6212   -0.7809 C   0  0  0  0  0  0  0  0  0  0  0  0
   -1.4763    0.6963    0.2122 C   0  0  0  0  0  0  0  0  0  0  0  0
   -2.8195    0.5464    0.5225 C   0  0  0  0  0  0  0  0  0  0  0  0
   -3.2870    1.8036    0.8300 C   0  0  0  0  0  0  0  0  0  0  0  0
   -2.2075    2.6571    0.6978 C   0  0  0  0  0  0  0  0  0  0  0  0
   -1.1502    1.9660    0.3351 O   0  0  0  0  0  0  0  0  0  0  0  0
   -2.1895    4.1218    0.9215 C   0  0  0  0  0  0  0  0  0  0  0  0
   -3.3501    4.8178    1.3126 C   0  0  0  0  0  0  0  0  0  0  0  0
   -3.3072    6.2007    1.5167 C   0  0  0  0  0  0  0  0  0  0  0  0
   -2.1127    6.9007    1.3337 C   0  0  0  0  0  0  0  0  0  0  0  0
   -0.9567    6.2198    0.9460 C   0  0  0  0  0  0  0  0  0  0  0  0
   -0.9922    4.8373    0.7403 C   0  0  0  0  0  0  0  0  0  0  0  0
   -3.0852   -2.9042   -3.5697 H   0  0  0  0  0  0  0  0  0  0  0  0
   -2.2572   -3.9950   -2.3900 H   0  0  0  0  0  0  0  0  0  0  0  0
   -1.4147   -2.5329   -3.0423 H   0  0  0  0  0  0  0  0  0  0  0  0
   -3.0671   -1.0481   -1.8928 H   0  0  0  0  0  0  0  0  0  0  0  0
   -4.7616   -2.0206   -0.3274 H   0  0  0  0  0  0  0  0  0  0  0  0
   -5.0232   -2.5936   -2.0101 H   0  0  0  0  0  0  0  0  0  0  0  0
   -4.2487   -3.6836   -0.7926 H   0  0  0  0  0  0  0  0  0  0  0  0
    1.1604    1.0541   -0.0771 H   0  0  0  0  0  0  0  0  0  0  0  0
    2.8730   -0.5507   -0.6768 H   0  0  0  0  0  0  0  0  0  0  0  0
    2.1596   -4.0525   -1.7083 H   0  0  0  0  0  0  0  0  0  0  0  0
    5.7097   -3.5788   -1.9007 H   0  0  0  0  0  0  0  0  0  0  0  0
    7.5596   -1.0869    0.9108 H   0  0  0  0  0  0  0  0  0  0  0  0
    6.3557   -0.5923    3.0255 H   0  0  0  0  0  0  0  0  0  0  0  0
    3.9792   -1.2690    3.2621 H   0  0  0  0  0  0  0  0  0  0  0  0
    2.8362   -2.4160    1.4119 H   0  0  0  0  0  0  0  0  0  0  0  0
   -0.0992   -3.6489   -0.9875 H   0  0  0  0  0  0  0  0  0  0  0  0
   -3.4100   -0.3513    0.5469 H   0  0  0  0  0  0  0  0  0  0  0  0
   -4.2986    2.0501    1.1206 H   0  0  0  0  0  0  0  0  0  0  0  0
   -4.2869    4.2996    1.4607 H   0  0  0  0  0  0  0  0  0  0  0  0
   -4.2022    6.7302    1.8171 H   0  0  0  0  0  0  0  0  0  0  0  0
   -2.0828    7.9709    1.4923 H   0  0  0  0  0  0  0  0  0  0  0  0
   -0.0316    6.7635    0.8044 H   0  0  0  0  0  0  0  0  0  0  0  0
   -0.0861    4.3258    0.4396 H   0  0  0  0  0  0  0  0  0  0  0  0
    4.2678   -4.1432   -2.7517 H   0  0  0  0  0  0  0  0  0  0  0  0
  1 31  1  0  0  0  0
  1 32  1  0  0  0  0
  1 33  1  0  0  0  0
  2  1  1  0  0  0  0
  2 34  1  0  0  0  0
  3  2  1  0  0  0  0
  3 35  1  0  0  0  0
  3 36  1  0  0  0  0
  3 37  1  0  0  0  0
  4  2  1  0  0  0  0
  5  4  1  0  0  0  0
  6  5  2  0  0  0  0
  7  6  1  0  0  0  0
  7 38  1  0  0  0  0
  8  7  2  0  0  0  0
  8 39  1  0  0  0  0
  9  8  1  0  0  0  0
 10  9  1  0  0  0  0
 10 40  1  0  0  0  0
 11 10  1  0  0  0  0
 12 11  2  0  0  0  0
 12 41  1  0  0  0  0
 12 54  1  0  0  0  0
 13 11  1  0  0  0  0
 14 13  2  0  0  0  0
 15 14  1  0  0  0  0
 15 42  1  0  0  0  0
 16 15  2  0  0  0  0
 16 43  1  0  0  0  0
 17 16  1  0  0  0  0
 17 44  1  0  0  0  0
 18 17  2  0  0  0  0
 18 13  1  0  0  0  0
 18 45  1  0  0  0  0
 19  9  2  0  0  0  0
 19  5  1  0  0  0  0
 19 46  1  0  0  0  0
 20  6  1  0  0  0  0
 21 20  2  0  0  0  0
 21 47  1  0  0  0  0
 22 21  1  0  0  0  0
 22 48  1  0  0  0  0
 23 22  2  0  0  0  0
 24 23  1  0  0  0  0
 24 20  1  0  0  0  0
 25 23  1  0  0  0  0
 26 25  2  0  0  0  0
 26 49  1  0  0  0  0
 27 26  1  0  0  0  0
 27 50  1  0  0  0  0
 28 27  2  0  0  0  0
 28 51  1  0  0  0  0
 29 28  1  0  0  0  0
 29 52  1  0  0  0  0
 30 29  2  0  0  0  0
 30 25  1  0  0  0  0
 30 53  1  0  0  0  0
M  END
>  <MOL Chiral Flag>
0

>  <energy>
108.01357492448759

$$$$
> 363_AKC_s11030-015-9652-9
>348.sdf
 OpenBabel10062212553D

 52 56  0  0  0  0  0  0  0  0999 V2000
   -1.3056    4.3554   -1.1527 N   0  0  0  0  0  0  0  0  0  0  0  0
   -2.2763    3.7736   -0.3017 C   0  0  0  0  0  0  0  0  0  0  0  0
   -2.5850    2.4245   -0.3995 N   0  0  0  0  0  0  0  0  0  0  0  0
   -3.5784    1.9320    0.3938 C   0  0  0  0  0  0  0  0  0  0  0  0
   -4.2428    2.7271    1.2717 C   0  0  0  0  0  0  0  0  0  0  0  0
   -5.1706    2.0228    1.9308 N   0  0  0  0  0  0  0  0  0  0  0  0
   -5.0524    0.7691    1.4311 C   0  0  0  0  0  0  0  0  0  0  0  0
   -4.0834    0.6694    0.4848 N   0  0  0  0  0  0  0  0  0  0  0  0
   -3.7065   -0.6469   -0.0723 C   0  0  2  0  0  0  0  0  0  0  0  0
   -2.6906   -1.2025    0.7277 O   0  0  0  0  0  0  0  0  0  0  0  0
   -1.7116   -1.7316   -0.1331 C   0  0  2  0  0  0  0  0  0  0  0  0
   -0.5513   -0.7145   -0.1539 C   0  0  0  0  0  0  0  0  0  0  0  0
    0.7483   -1.3620   -0.2440 N   0  0  0  0  0  0  0  0  0  0  0  0
    1.6412   -1.4135    0.7547 C   0  0  0  0  0  0  0  0  0  0  0  0
    2.7221   -2.0954    0.2772 C   0  0  0  0  0  0  0  0  0  0  0  0
    3.9562   -2.4344    1.0447 C   0  0  0  0  0  0  0  0  0  0  0  0
    4.5924   -1.3448    1.6185 O   0  0  0  0  0  0  0  0  0  0  0  0
    5.2545   -0.3532    0.9669 C   0  0  0  0  0  0  0  0  0  0  0  0
    6.5250    0.0153    1.4391 C   0  0  0  0  0  0  0  0  0  0  0  0
    7.2187   -0.7933    2.8377 Cl  0  0  0  0  0  0  0  0  0  0  0  0
    7.2615    1.0077    0.7863 C   0  0  0  0  0  0  0  0  0  0  0  0
    6.7292    1.6562   -0.3288 C   0  0  0  0  0  0  0  0  0  0  0  0
    5.4563    1.3170   -0.7928 C   0  0  0  0  0  0  0  0  0  0  0  0
    4.7182    0.3139   -0.1544 C   0  0  0  0  0  0  0  0  0  0  0  0
    2.4664   -2.4458   -1.0030 N   0  0  0  0  0  0  0  0  0  0  0  0
    1.2528   -1.9894   -1.2945 N   0  0  0  0  0  0  0  0  0  0  0  0
   -2.4136   -1.9786   -1.4765 C   0  0  1  0  0  0  0  0  0  0  0  0
   -3.2570   -3.1041   -1.3577 O   0  0  0  0  0  0  0  0  0  0  0  0
   -3.2696   -0.7196   -1.5460 C   0  0  1  0  0  0  0  0  0  0  0  0
   -4.3341   -0.8672   -2.4525 O   0  0  0  0  0  0  0  0  0  0  0  0
   -3.9206    4.0627    1.4099 C   0  0  0  0  0  0  0  0  0  0  0  0
   -4.5012    4.7699    2.2159 O   0  0  0  0  0  0  0  0  0  0  0  0
   -2.9330    4.5729    0.6074 N   0  0  0  0  0  0  0  0  0  0  0  0
   -1.1250    5.3724   -1.1080 H   0  0  0  0  0  0  0  0  0  0  0  0
   -0.8204    3.7956   -1.8654 H   0  0  0  0  0  0  0  0  0  0  0  0
   -5.6404   -0.0670    1.7826 H   0  0  0  0  0  0  0  0  0  0  0  0
   -4.5614   -1.3511    0.0549 H   0  0  0  0  0  0  0  0  0  0  0  0
   -1.3397   -2.6860    0.3051 H   0  0  0  0  0  0  0  0  0  0  0  0
   -0.5709   -0.2059    0.8354 H   0  0  0  0  0  0  0  0  0  0  0  0
   -0.6590    0.0878   -0.9092 H   0  0  0  0  0  0  0  0  0  0  0  0
    1.5052   -0.9953    1.7439 H   0  0  0  0  0  0  0  0  0  0  0  0
    4.6745   -2.9958    0.4122 H   0  0  0  0  0  0  0  0  0  0  0  0
    3.6395   -3.0985    1.8760 H   0  0  0  0  0  0  0  0  0  0  0  0
    8.2487    1.2725    1.1427 H   0  0  0  0  0  0  0  0  0  0  0  0
    7.3031    2.4237   -0.8315 H   0  0  0  0  0  0  0  0  0  0  0  0
    5.0422    1.8307   -1.6510 H   0  0  0  0  0  0  0  0  0  0  0  0
    3.7370    0.0812   -0.5335 H   0  0  0  0  0  0  0  0  0  0  0  0
   -1.7437   -2.1229   -2.3551 H   0  0  0  0  0  0  0  0  0  0  0  0
   -2.6897   -3.9114   -1.4756 H   0  0  0  0  0  0  0  0  0  0  0  0
   -2.6316    0.1383   -1.8319 H   0  0  0  0  0  0  0  0  0  0  0  0
   -5.0557   -0.2493   -2.1687 H   0  0  0  0  0  0  0  0  0  0  0  0
   -2.6870    5.5887    0.6839 H   0  0  0  0  0  0  0  0  0  0  0  0
  1 34  1  0  0  0  0
  1 35  1  0  0  0  0
  2  1  1  0  0  0  0
  3  2  2  0  0  0  0
  4  3  1  0  0  0  0
  5  4  2  0  0  0  0
  6  5  1  0  0  0  0
  7  6  2  0  0  0  0
  7 36  1  0  0  0  0
  8  7  1  0  0  0  0
  8  4  1  0  0  0  0
  9  8  1  0  0  0  0
  9 37  1  1  0  0  0
 10  9  1  0  0  0  0
 11 10  1  0  0  0  0
 11 38  1  1  0  0  0
 12 11  1  0  0  0  0
 12 39  1  0  0  0  0
 12 40  1  0  0  0  0
 13 12  1  0  0  0  0
 14 13  1  0  0  0  0
 14 41  1  0  0  0  0
 15 14  2  0  0  0  0
 16 15  1  0  0  0  0
 16 42  1  0  0  0  0
 16 43  1  0  0  0  0
 17 16  1  0  0  0  0
 18 17  1  0  0  0  0
 19 18  2  0  0  0  0
 20 19  1  0  0  0  0
 21 19  1  0  0  0  0
 21 44  1  0  0  0  0
 22 21  2  0  0  0  0
 22 45  1  0  0  0  0
 23 22  1  0  0  0  0
 23 46  1  0  0  0  0
 24 23  2  0  0  0  0
 24 18  1  0  0  0  0
 24 47  1  0  0  0  0
 25 15  1  0  0  0  0
 26 25  2  0  0  0  0
 26 13  1  0  0  0  0
 27 11  1  0  0  0  0
 27 48  1  6  0  0  0
 28 27  1  0  0  0  0
 28 49  1  0  0  0  0
 29 27  1  0  0  0  0
 29  9  1  0  0  0  0
 29 50  1  6  0  0  0
 30 29  1  0  0  0  0
 30 51  1  0  0  0  0
 31  5  1  0  0  0  0
 32 31  2  0  0  0  0
 33 31  1  0  0  0  0
 33  2  1  0  0  0  0
 33 52  1  0  0  0  0
M  END
>  <MOL Chiral Flag>
0

>  <energy>
54.998209358935725

$$$$
> 364_AKC_0103-5053.20150330
>349.sdf
 OpenBabel10062212553D

 30 31  0  0  0  0  0  0  0  0999 V2000
    0.9291    2.0619   -0.9867 C   0  0  0  0  0  0  0  0  0  0  0  0
    1.3972    0.7271   -0.4436 C   0  0  0  0  0  0  0  0  0  0  0  0
    0.5566   -0.2232   -0.1778 N   0  0  0  0  0  0  0  0  0  0  0  0
   -0.8096   -0.1151   -0.3540 N   0  0  0  0  0  0  0  0  0  0  0  0
   -1.6308   -1.0369    0.2208 C   0  0  0  0  0  0  0  0  0  0  0  0
   -1.1336   -1.9676    0.8409 O   0  0  0  0  0  0  0  0  0  0  0  0
   -3.1264   -0.9188    0.1744 C   0  0  0  0  0  0  0  0  0  0  0  0
   -3.7933    0.0690   -0.5811 C   0  0  0  0  0  0  0  0  0  0  0  0
   -5.1892    0.1372   -0.5560 C   0  0  0  0  0  0  0  0  0  0  0  0
   -5.9062   -0.7392    0.1940 N   0  0  0  0  0  0  0  0  0  0  0  0
   -5.2978   -1.7032    0.9313 C   0  0  0  0  0  0  0  0  0  0  0  0
   -3.9065   -1.8132    0.9330 C   0  0  0  0  0  0  0  0  0  0  0  0
    2.8387    0.5135   -0.1315 C   0  0  0  0  0  0  0  0  0  0  0  0
    3.7168    1.5532   -0.2234 N   0  0  0  0  0  0  0  0  0  0  0  0
    5.0322    1.4167    0.0941 C   0  0  0  0  0  0  0  0  0  0  0  0
    5.5245    0.1835    0.5227 C   0  0  0  0  0  0  0  0  0  0  0  0
    4.6558   -0.9026    0.6192 C   0  0  0  0  0  0  0  0  0  0  0  0
    3.3074   -0.7435    0.2968 C   0  0  0  0  0  0  0  0  0  0  0  0
    0.2071    2.5236   -0.2807 H   0  0  0  0  0  0  0  0  0  0  0  0
    1.7629    2.7777   -1.1320 H   0  0  0  0  0  0  0  0  0  0  0  0
    0.4430    1.9161   -1.9745 H   0  0  0  0  0  0  0  0  0  0  0  0
   -1.2017    0.6908   -0.8509 H   0  0  0  0  0  0  0  0  0  0  0  0
   -3.2650    0.7847   -1.1893 H   0  0  0  0  0  0  0  0  0  0  0  0
   -5.7033    0.8938   -1.1336 H   0  0  0  0  0  0  0  0  0  0  0  0
   -5.8944   -2.3842    1.5236 H   0  0  0  0  0  0  0  0  0  0  0  0
   -3.4425   -2.5848    1.5346 H   0  0  0  0  0  0  0  0  0  0  0  0
    5.6950    2.2682    0.0190 H   0  0  0  0  0  0  0  0  0  0  0  0
    6.5700    0.0714    0.7792 H   0  0  0  0  0  0  0  0  0  0  0  0
    5.0248   -1.8651    0.9492 H   0  0  0  0  0  0  0  0  0  0  0  0
    2.6389   -1.5910    0.3823 H   0  0  0  0  0  0  0  0  0  0  0  0
  1 19  1  0  0  0  0
  1 20  1  0  0  0  0
  1 21  1  0  0  0  0
  2  1  1  0  0  0  0
  3  2  2  0  0  0  0
  4  3  1  0  0  0  0
  4 22  1  0  0  0  0
  5  4  1  0  0  0  0
  6  5  2  0  0  0  0
  7  5  1  0  0  0  0
  8  7  2  0  0  0  0
  8 23  1  0  0  0  0
  9  8  1  0  0  0  0
  9 24  1  0  0  0  0
 10  9  2  0  0  0  0
 11 10  1  0  0  0  0
 11 25  1  0  0  0  0
 12 11  2  0  0  0  0
 12  7  1  0  0  0  0
 12 26  1  0  0  0  0
 13  2  1  0  0  0  0
 14 13  2  0  0  0  0
 15 14  1  0  0  0  0
 15 27  1  0  0  0  0
 16 15  2  0  0  0  0
 16 28  1  0  0  0  0
 17 16  1  0  0  0  0
 17 29  1  0  0  0  0
 18 17  2  0  0  0  0
 18 13  1  0  0  0  0
 18 30  1  0  0  0  0
M  END
>  <MOL Chiral Flag>
0

>  <energy>
104.27177458692913

$$$$
> 365_AKC_j.exppara.2016.01.007
>350.sdf
 OpenBabel10062212553D

 28 29  0  0  0  0  0  0  0  0999 V2000
    1.0608   -0.3483   -2.3378 O   0  0  0  0  0  0  0  0  0  0  0  0
    1.2804   -0.7649   -1.2088 C   0  0  0  0  0  0  0  0  0  0  0  0
    0.2517   -1.1420   -0.4089 N   0  0  0  0  0  0  0  0  0  0  0  0
   -1.0007   -0.6180   -0.6047 N   0  0  0  0  0  0  0  0  0  0  0  0
   -2.0084   -1.0536    0.0601 C   0  0  0  0  0  0  0  0  0  0  0  0
   -3.1995   -0.2127    0.2035 C   0  0  0  0  0  0  0  0  0  0  0  0
   -4.4016   -0.5836    0.7673 C   0  0  0  0  0  0  0  0  0  0  0  0
   -5.1982    0.4625    0.8087 O   0  0  0  0  0  0  0  0  0  0  0  0
   -4.5618    1.5008    0.3096 C   0  0  0  0  0  0  0  0  0  0  0  0
   -3.2961    1.1312   -0.0960 C   0  0  0  0  0  0  0  0  0  0  0  0
   -5.1068    2.8083    0.2569 N   0  0  0  0  0  0  0  0  0  0  0  0
   -6.2207    3.0055    0.6313 O   0  0  0  0  0  0  0  0  0  0  0  0
   -4.4378    3.7247   -0.1205 O   0  0  0  0  0  0  0  0  0  0  0  0
    2.6533   -0.6820   -0.6502 C   0  0  0  0  0  0  0  0  0  0  0  0
    2.8101   -0.4553    0.7336 C   0  0  0  0  0  0  0  0  0  0  0  0
    4.0683   -0.2282    1.2781 C   0  0  0  0  0  0  0  0  0  0  0  0
    5.1945   -0.2403    0.4590 C   0  0  0  0  0  0  0  0  0  0  0  0
    5.0605   -0.4773   -0.9136 C   0  0  0  0  0  0  0  0  0  0  0  0
    3.7922   -0.6848   -1.4742 C   0  0  0  0  0  0  0  0  0  0  0  0
    0.4487   -1.6045    0.4911 H   0  0  0  0  0  0  0  0  0  0  0  0
   -1.9306   -1.9587    0.6578 H   0  0  0  0  0  0  0  0  0  0  0  0
   -4.6575   -1.5669    1.1376 H   0  0  0  0  0  0  0  0  0  0  0  0
   -2.5258    1.7706   -0.5119 H   0  0  0  0  0  0  0  0  0  0  0  0
    1.9557   -0.3915    1.3931 H   0  0  0  0  0  0  0  0  0  0  0  0
    4.1613   -0.0205    2.3364 H   0  0  0  0  0  0  0  0  0  0  0  0
    6.1685   -0.0517    0.8888 H   0  0  0  0  0  0  0  0  0  0  0  0
    5.9389   -0.4786   -1.5442 H   0  0  0  0  0  0  0  0  0  0  0  0
    3.7004   -0.8398   -2.5422 H   0  0  0  0  0  0  0  0  0  0  0  0
  2  1  2  0  0  0  0
  3  2  1  0  0  0  0
  3 20  1  0  0  0  0
  4  3  1  0  0  0  0
  5  4  2  0  0  0  0
  5 21  1  0  0  0  0
  6  5  1  0  0  0  0
  7  6  2  0  0  0  0
  7 22  1  0  0  0  0
  8  7  1  0  0  0  0
  9  8  1  0  0  0  0
 10  9  2  0  0  0  0
 10  6  1  0  0  0  0
 10 23  1  0  0  0  0
 11  9  1  0  0  0  0
 12 11  2  0  0  0  0
 13 11  2  0  0  0  0
 14  2  1  0  0  0  0
 15 14  2  0  0  0  0
 15 24  1  0  0  0  0
 16 15  1  0  0  0  0
 16 25  1  0  0  0  0
 17 16  2  0  0  0  0
 17 26  1  0  0  0  0
 18 17  1  0  0  0  0
 18 27  1  0  0  0  0
 19 18  2  0  0  0  0
 19 14  1  0  0  0  0
 19 28  1  0  0  0  0
M  END
>  <MOL Chiral Flag>
0

>  <energy>
126.46373512886589

$$$$
> 366_AKC_C5MD00498E
>351.sdf
 OpenBabel10062212563D

 74 77  0  0  0  0  0  0  0  0999 V2000
   -5.8593   -3.8100    0.0749 C   0  0  0  0  0  0  0  0  0  0  0  0
   -5.0062   -3.0006   -0.9171 C   0  0  0  0  0  0  0  0  0  0  0  0
   -4.1132   -3.9742   -1.7063 C   0  0  0  0  0  0  0  0  0  0  0  0
   -4.1513   -1.9063   -0.2737 C   0  0  0  0  0  0  0  0  0  0  0  0
   -4.0626   -1.7341    1.1208 C   0  0  0  0  0  0  0  0  0  0  0  0
   -3.2493   -0.7413    1.6675 C   0  0  0  0  0  0  0  0  0  0  0  0
   -2.4924    0.1161    0.8393 C   0  0  0  0  0  0  0  0  0  0  0  0
   -2.5827   -0.0511   -0.5645 C   0  0  0  0  0  0  0  0  0  0  0  0
   -3.4166   -1.0441   -1.1044 C   0  0  0  0  0  0  0  0  0  0  0  0
   -1.7694    0.8037   -1.4668 C   0  0  0  0  0  0  0  0  0  0  0  0
   -2.0228    0.8540   -2.6615 O   0  0  0  0  0  0  0  0  0  0  0  0
   -0.6142    1.6059   -0.9287 C   0  0  0  0  0  0  0  0  0  0  0  0
   -0.2569    1.1949    0.5383 C   0  0  1  0  0  0  0  0  0  0  0  0
    1.0371    1.9312    1.1042 C   0  0  1  0  0  0  0  0  0  0  0  0
    0.9647    3.4715    0.9144 C   0  0  0  0  0  0  0  0  0  0  0  0
    1.1848    1.5962    2.6139 C   0  0  0  0  0  0  0  0  0  0  0  0
   -0.0910    1.8518    3.4215 C   0  0  0  0  0  0  0  0  0  0  0  0
   -1.2103    0.9471    2.9007 C   0  0  0  0  0  0  0  0  0  0  0  0
   -1.5751    1.2249    1.4127 C   0  0  2  0  0  0  0  0  0  0  0  0
   -2.3878    2.5495    1.3403 C   0  0  0  0  0  0  0  0  0  0  0  0
    2.3689    1.4738    0.4364 C   0  0  0  0  0  0  0  0  0  0  0  0
    3.4075    2.0082    0.8072 O   0  0  0  0  0  0  0  0  0  0  0  0
    2.4272    0.5203   -0.5494 N   0  0  0  0  0  0  0  0  0  0  0  0
    3.6595    0.1823   -1.2566 C   0  0  1  0  0  0  0  0  0  0  0  0
    3.7757   -1.3498   -1.4375 C   0  0  0  0  0  0  0  0  0  0  0  0
    3.9329   -2.1789   -0.1437 C   0  0  0  0  0  0  0  0  0  0  0  0
    3.8566   -3.6820   -0.5082 C   0  0  0  0  0  0  0  0  0  0  0  0
    4.0470   -4.5662    0.7295 C   0  0  0  0  0  0  0  0  0  0  0  0
    5.3995   -4.2692    1.3847 C   0  0  0  0  0  0  0  0  0  0  0  0
    5.4766   -2.7897    1.7829 C   0  0  0  0  0  0  0  0  0  0  0  0
    5.2837   -1.8885    0.5539 C   0  0  0  0  0  0  0  0  0  0  0  0
    3.6406    0.8254   -2.6269 C   0  0  0  0  0  0  0  0  0  0  0  0
    4.6934    0.6709   -3.4530 O   0  0  0  0  0  0  0  0  0  0  0  0
    2.6897    1.5023   -2.9884 O   0  0  0  0  0  0  0  0  0  0  0  0
   -6.5484   -3.1375    0.6284 H   0  0  0  0  0  0  0  0  0  0  0  0
   -6.4794   -4.5524   -0.4718 H   0  0  0  0  0  0  0  0  0  0  0  0
   -5.2182   -4.3621    0.7960 H   0  0  0  0  0  0  0  0  0  0  0  0
   -5.7117   -2.5091   -1.6225 H   0  0  0  0  0  0  0  0  0  0  0  0
   -3.3955   -4.4804   -1.0244 H   0  0  0  0  0  0  0  0  0  0  0  0
   -3.5366   -3.4489   -2.4951 H   0  0  0  0  0  0  0  0  0  0  0  0
   -4.7325   -4.7476   -2.2085 H   0  0  0  0  0  0  0  0  0  0  0  0
   -4.6119   -2.3667    1.8021 H   0  0  0  0  0  0  0  0  0  0  0  0
   -3.2232   -0.6550    2.7425 H   0  0  0  0  0  0  0  0  0  0  0  0
   -3.4748   -1.1636   -2.1790 H   0  0  0  0  0  0  0  0  0  0  0  0
    0.2434    1.4642   -1.6062 H   0  0  0  0  0  0  0  0  0  0  0  0
   -0.8756    2.6799   -1.0134 H   0  0  0  0  0  0  0  0  0  0  0  0
    0.0233    0.1173    0.5665 H   0  0  0  0  0  0  0  0  0  0  0  0
    1.8609    3.9626    1.3510 H   0  0  0  0  0  0  0  0  0  0  0  0
    0.1049    3.9451    1.4016 H   0  0  0  0  0  0  0  0  0  0  0  0
    0.9473    3.7401   -0.1621 H   0  0  0  0  0  0  0  0  0  0  0  0
    2.0204    2.1799    3.0601 H   0  0  0  0  0  0  0  0  0  0  0  0
    1.4410    0.5180    2.7261 H   0  0  0  0  0  0  0  0  0  0  0  0
    0.1054    1.5922    4.4842 H   0  0  0  0  0  0  0  0  0  0  0  0
   -0.3818    2.9209    3.3960 H   0  0  0  0  0  0  0  0  0  0  0  0
   -0.8536   -0.1025    3.0029 H   0  0  0  0  0  0  0  0  0  0  0  0
   -2.1006    1.0720    3.5552 H   0  0  0  0  0  0  0  0  0  0  0  0
   -3.3213    2.4431    1.9345 H   0  0  0  0  0  0  0  0  0  0  0  0
   -2.7072    2.7946    0.3074 H   0  0  0  0  0  0  0  0  0  0  0  0
   -1.8708    3.4236    1.7576 H   0  0  0  0  0  0  0  0  0  0  0  0
    1.5774    0.0566   -0.8821 H   0  0  0  0  0  0  0  0  0  0  0  0
    4.5555    0.5877   -0.7421 H   0  0  0  0  0  0  0  0  0  0  0  0
    2.8587   -1.6896   -1.9706 H   0  0  0  0  0  0  0  0  0  0  0  0
    4.6446   -1.5797   -2.0940 H   0  0  0  0  0  0  0  0  0  0  0  0
    3.0960   -1.9467    0.5526 H   0  0  0  0  0  0  0  0  0  0  0  0
    4.6479   -3.9315   -1.2505 H   0  0  0  0  0  0  0  0  0  0  0  0
    2.8696   -3.9118   -0.9663 H   0  0  0  0  0  0  0  0  0  0  0  0
    3.2282   -4.3734    1.4570 H   0  0  0  0  0  0  0  0  0  0  0  0
    4.0036   -5.6364    0.4320 H   0  0  0  0  0  0  0  0  0  0  0  0
    6.2191   -4.5083    0.6705 H   0  0  0  0  0  0  0  0  0  0  0  0
    5.5277   -4.9084    2.2843 H   0  0  0  0  0  0  0  0  0  0  0  0
    4.6876   -2.5676    2.5342 H   0  0  0  0  0  0  0  0  0  0  0  0
    6.4663   -2.5827    2.2439 H   0  0  0  0  0  0  0  0  0  0  0  0
    6.1178   -2.0777   -0.1585 H   0  0  0  0  0  0  0  0  0  0  0  0
    5.3364   -0.8289    0.8787 H   0  0  0  0  0  0  0  0  0  0  0  0
  1 35  1  0  0  0  0
  1 36  1  0  0  0  0
  1 37  1  0  0  0  0
  2  1  1  0  0  0  0
  2 38  1  0  0  0  0
  3  2  1  0  0  0  0
  3 39  1  0  0  0  0
  3 40  1  0  0  0  0
  3 41  1  0  0  0  0
  4  2  1  0  0  0  0
  5  4  2  0  0  0  0
  5 42  1  0  0  0  0
  6  5  1  0  0  0  0
  6 43  1  0  0  0  0
  7  6  2  0  0  0  0
  8  7  1  0  0  0  0
  9  8  2  0  0  0  0
  9  4  1  0  0  0  0
  9 44  1  0  0  0  0
 10  8  1  0  0  0  0
 11 10  2  0  0  0  0
 12 10  1  0  0  0  0
 12 45  1  0  0  0  0
 12 46  1  0  0  0  0
 13 12  1  0  0  0  0
 13 47  1  6  0  0  0
 14 13  1  0  0  0  0
 14 15  1  6  0  0  0
 15 48  1  0  0  0  0
 15 49  1  0  0  0  0
 15 50  1  0  0  0  0
 16 14  1  0  0  0  0
 16 51  1  0  0  0  0
 16 52  1  0  0  0  0
 17 16  1  0  0  0  0
 17 53  1  0  0  0  0
 17 54  1  0  0  0  0
 18 17  1  0  0  0  0
 18 55  1  0  0  0  0
 18 56  1  0  0  0  0
 19 18  1  0  0  0  0
 19  7  1  0  0  0  0
 19 13  1  0  0  0  0
 19 20  1  6  0  0  0
 20 57  1  0  0  0  0
 20 58  1  0  0  0  0
 20 59  1  0  0  0  0
 21 14  1  0  0  0  0
 22 21  2  0  0  0  0
 23 21  1  0  0  0  0
 23 60  1  0  0  0  0
 24 23  1  0  0  0  0
 24 61  1  1  0  0  0
 25 24  1  0  0  0  0
 25 62  1  0  0  0  0
 25 63  1  0  0  0  0
 26 25  1  0  0  0  0
 26 64  1  0  0  0  0
 27 26  1  0  0  0  0
 27 65  1  0  0  0  0
 27 66  1  0  0  0  0
 28 27  1  0  0  0  0
 28 67  1  0  0  0  0
 28 68  1  0  0  0  0
 29 28  1  0  0  0  0
 29 69  1  0  0  0  0
 29 70  1  0  0  0  0
 30 29  1  0  0  0  0
 30 71  1  0  0  0  0
 30 72  1  0  0  0  0
 31 30  1  0  0  0  0
 31 26  1  0  0  0  0
 31 73  1  0  0  0  0
 31 74  1  0  0  0  0
 32 24  1  0  0  0  0
 33 32  1  0  0  0  0
 34 32  2  0  0  0  0
M  END
>  <MOL Chiral Flag>
0

>  <energy>
112.23873157264757

$$$$
> 367_AKC_j.steroids.2015.12.020
>352.sdf
 OpenBabel10062212573D

 75 78  0  0  0  0  0  0  0  0999 V2000
    2.5155   -3.4267    1.1073 C   0  0  0  0  0  0  0  0  0  0  0  0
    3.9951   -2.9927    1.1411 C   0  0  0  0  0  0  0  0  0  0  0  0
    4.5722   -3.3065    2.5263 C   0  0  0  0  0  0  0  0  0  0  0  0
    4.2013   -1.4868    0.8150 C   0  0  0  0  0  0  0  0  0  0  0  0
    3.7240   -1.1219   -0.6024 C   0  0  0  0  0  0  0  0  0  0  0  0
    3.9898    0.3478   -1.0445 C   0  0  0  0  0  0  0  0  0  0  0  0
    3.3012    1.4814   -0.2244 C   0  0  1  0  0  0  0  0  0  0  0  0
    4.1736    2.7503   -0.3103 C   0  0  0  0  0  0  0  0  0  0  0  0
    1.8052    1.8879   -0.5369 C   0  0  1  0  0  0  0  0  0  0  0  0
    1.4940    2.8140   -1.7348 C   0  0  0  0  0  0  0  0  0  0  0  0
   -0.0643    2.8182   -1.8448 C   0  0  0  0  0  0  0  0  0  0  0  0
   -0.5278    1.7897   -0.7898 C   0  0  1  0  0  0  0  0  0  0  0  0
   -1.8777    1.0410   -0.9530 C   0  0  2  0  0  0  0  0  0  0  0  0
   -3.0764    2.0157   -1.0440 C   0  0  2  0  0  0  0  0  0  0  0  0
   -2.9789    3.0715   -0.1180 O   0  0  0  0  0  0  0  0  0  0  0  0
   -4.4168    1.3350   -0.8708 C   0  0  0  0  0  0  0  0  0  0  0  0
   -4.5795    0.0599   -0.4488 C   0  0  0  0  0  0  0  0  0  0  0  0
   -6.0145   -0.4168   -0.2162 C   0  0  0  0  0  0  0  0  0  0  0  0
   -6.1029   -1.9048    0.1248 C   0  0  2  0  0  0  0  0  0  0  0  0
   -7.4167   -2.2621    0.4636 O   0  0  0  0  0  0  0  0  0  0  0  0
   -5.1121   -2.3468    1.2256 C   0  0  0  0  0  0  0  0  0  0  0  0
   -3.8149   -1.5060    1.2967 C   0  0  0  0  0  0  0  0  0  0  0  0
   -3.3830   -0.8412   -0.0401 C   0  0  1  0  0  0  0  0  0  0  0  0
   -3.0900   -1.9174   -1.1338 C   0  0  0  0  0  0  0  0  0  0  0  0
   -2.0915    0.0438    0.2301 C   0  0  1  0  0  0  0  0  0  0  0  0
   -0.8176   -0.8141    0.5596 C   0  0  0  0  0  0  0  0  0  0  0  0
    0.4627    0.0256    0.6430 C   0  0  0  0  0  0  0  0  0  0  0  0
    0.6679    0.8359   -0.6622 C   0  0  2  0  0  0  0  0  0  0  0  0
    0.7589   -0.0469   -1.9810 C   0  0  0  0  0  0  0  0  0  0  0  0
    2.4278   -4.5033    1.3671 H   0  0  0  0  0  0  0  0  0  0  0  0
    2.0729   -3.3172    0.0973 H   0  0  0  0  0  0  0  0  0  0  0  0
    1.9144   -2.8389    1.8333 H   0  0  0  0  0  0  0  0  0  0  0  0
    4.5526   -3.6003    0.3941 H   0  0  0  0  0  0  0  0  0  0  0  0
    5.6520   -3.0511    2.5614 H   0  0  0  0  0  0  0  0  0  0  0  0
    4.0388   -2.7301    3.3128 H   0  0  0  0  0  0  0  0  0  0  0  0
    4.4679   -4.3908    2.7481 H   0  0  0  0  0  0  0  0  0  0  0  0
    3.6639   -0.8824    1.5744 H   0  0  0  0  0  0  0  0  0  0  0  0
    5.2860   -1.2533    0.8847 H   0  0  0  0  0  0  0  0  0  0  0  0
    4.2590   -1.7801   -1.3213 H   0  0  0  0  0  0  0  0  0  0  0  0
    2.6730   -1.3813   -0.6382 H   0  0  0  0  0  0  0  0  0  0  0  0
    5.0927    0.4458   -0.9347 H   0  0  0  0  0  0  0  0  0  0  0  0
    3.7683    0.4987   -2.1223 H   0  0  0  0  0  0  0  0  0  0  0  0
    3.3459    1.1726    0.8391 H   0  0  0  0  0  0  0  0  0  0  0  0
    3.7618    3.5561    0.3342 H   0  0  0  0  0  0  0  0  0  0  0  0
    4.2342    3.1182   -1.3568 H   0  0  0  0  0  0  0  0  0  0  0  0
    5.2066    2.5411    0.0418 H   0  0  0  0  0  0  0  0  0  0  0  0
    1.5637    2.5250    0.3502 H   0  0  0  0  0  0  0  0  0  0  0  0
    1.9211    2.3516   -2.6503 H   0  0  0  0  0  0  0  0  0  0  0  0
    1.9248    3.8342   -1.6539 H   0  0  0  0  0  0  0  0  0  0  0  0
   -0.5267    3.8074   -1.6380 H   0  0  0  0  0  0  0  0  0  0  0  0
   -0.3428    2.5161   -2.8770 H   0  0  0  0  0  0  0  0  0  0  0  0
   -0.5972    2.3624    0.1679 H   0  0  0  0  0  0  0  0  0  0  0  0
   -1.8511    0.4741   -1.8993 H   0  0  0  0  0  0  0  0  0  0  0  0
   -3.0401    2.4706   -2.0572 H   0  0  0  0  0  0  0  0  0  0  0  0
   -3.1526    2.7128    0.7909 H   0  0  0  0  0  0  0  0  0  0  0  0
   -5.3008    1.9404   -1.0598 H   0  0  0  0  0  0  0  0  0  0  0  0
   -6.4410    0.1878    0.6136 H   0  0  0  0  0  0  0  0  0  0  0  0
   -6.6281   -0.2437   -1.1287 H   0  0  0  0  0  0  0  0  0  0  0  0
   -5.8563   -2.4109   -0.8256 H   0  0  0  0  0  0  0  0  0  0  0  0
   -7.4863   -3.2465    0.3475 H   0  0  0  0  0  0  0  0  0  0  0  0
   -4.8798   -3.4159    1.0266 H   0  0  0  0  0  0  0  0  0  0  0  0
   -5.5758   -2.2971    2.2353 H   0  0  0  0  0  0  0  0  0  0  0  0
   -4.0246   -0.6607    1.9927 H   0  0  0  0  0  0  0  0  0  0  0  0
   -3.0264   -2.1188    1.7792 H   0  0  0  0  0  0  0  0  0  0  0  0
   -2.7651   -1.4618   -2.0875 H   0  0  0  0  0  0  0  0  0  0  0  0
   -2.3225   -2.6404   -0.8005 H   0  0  0  0  0  0  0  0  0  0  0  0
   -3.9301   -2.5633   -1.3992 H   0  0  0  0  0  0  0  0  0  0  0  0
   -2.2566    0.6778    1.1293 H   0  0  0  0  0  0  0  0  0  0  0  0
   -0.6208   -1.5837   -0.1989 H   0  0  0  0  0  0  0  0  0  0  0  0
   -0.9506   -1.3483    1.5225 H   0  0  0  0  0  0  0  0  0  0  0  0
    0.3672    0.7224    1.5065 H   0  0  0  0  0  0  0  0  0  0  0  0
    1.3218   -0.6268    0.8669 H   0  0  0  0  0  0  0  0  0  0  0  0
    0.6902    0.5485   -2.9074 H   0  0  0  0  0  0  0  0  0  0  0  0
    1.6724   -0.6061   -2.1520 H   0  0  0  0  0  0  0  0  0  0  0  0
   -0.0633   -0.7760   -2.0776 H   0  0  0  0  0  0  0  0  0  0  0  0
  1 30  1  0  0  0  0
  1 31  1  0  0  0  0
  1 32  1  0  0  0  0
  2  1  1  0  0  0  0
  2 33  1  0  0  0  0
  3  2  1  0  0  0  0
  3 34  1  0  0  0  0
  3 35  1  0  0  0  0
  3 36  1  0  0  0  0
  4  2  1  0  0  0  0
  4 37  1  0  0  0  0
  4 38  1  0  0  0  0
  5  4  1  0  0  0  0
  5 39  1  0  0  0  0
  5 40  1  0  0  0  0
  6  5  1  0  0  0  0
  6 41  1  0  0  0  0
  6 42  1  0  0  0  0
  7  6  1  0  0  0  0
  7 43  1  1  0  0  0
  8  7  1  0  0  0  0
  8 44  1  0  0  0  0
  8 45  1  0  0  0  0
  8 46  1  0  0  0  0
  9  7  1  0  0  0  0
  9 47  1  1  0  0  0
 10  9  1  0  0  0  0
 10 48  1  0  0  0  0
 10 49  1  0  0  0  0
 11 10  1  0  0  0  0
 11 50  1  0  0  0  0
 11 51  1  0  0  0  0
 12 11  1  0  0  0  0
 12 52  1  1  0  0  0
 13 12  1  0  0  0  0
 13 53  1  6  0  0  0
 14 13  1  0  0  0  0
 14 54  1  6  0  0  0
 15 14  1  0  0  0  0
 15 55  1  0  0  0  0
 16 14  1  0  0  0  0
 16 56  1  0  0  0  0
 17 16  2  0  0  0  0
 18 17  1  0  0  0  0
 18 57  1  0  0  0  0
 18 58  1  0  0  0  0
 19 18  1  0  0  0  0
 19 59  1  6  0  0  0
 20 19  1  0  0  0  0
 20 60  1  0  0  0  0
 21 19  1  0  0  0  0
 21 61  1  0  0  0  0
 21 62  1  0  0  0  0
 22 21  1  0  0  0  0
 22 63  1  0  0  0  0
 22 64  1  0  0  0  0
 23 22  1  0  0  0  0
 23 17  1  0  0  0  0
 23 24  1  6  0  0  0
 24 65  1  0  0  0  0
 24 66  1  0  0  0  0
 24 67  1  0  0  0  0
 25 23  1  0  0  0  0
 25 13  1  0  0  0  0
 25 68  1  1  0  0  0
 26 25  1  0  0  0  0
 26 69  1  0  0  0  0
 26 70  1  0  0  0  0
 27 26  1  0  0  0  0
 27 71  1  0  0  0  0
 27 72  1  0  0  0  0
 28 27  1  0  0  0  0
 28  9  1  0  0  0  0
 28 12  1  0  0  0  0
 28 29  1  6  0  0  0
 29 73  1  0  0  0  0
 29 74  1  0  0  0  0
 29 75  1  0  0  0  0
M  END
>  <MOL Chiral Flag>
0

>  <energy>
117.63372754446374

$$$$
> 368_AKC_acs.jnatprod.5b00990
>353.sdf
 OpenBabel10062212573D

 58 60  0  0  0  0  0  0  0  0999 V2000
    0.3672   -1.1829   -1.0267 H   0  0  0  0  0  0  0  0  0  0  0  0
    0.7925   -1.5740   -0.0798 C   0  0  2  0  0  0  0  0  0  0  0  0
    2.1462   -0.8714    0.0779 C   0  0  0  0  0  0  0  0  0  0  0  0
    1.9819    0.6240   -0.2085 C   0  0  0  0  0  0  0  0  0  0  0  0
    0.7519    1.2527    0.4015 C   0  0  0  0  0  0  0  0  0  0  0  0
   -0.2778    0.4813    1.0043 C   0  0  0  0  0  0  0  0  0  0  0  0
   -1.3620    1.1643    1.5970 C   0  0  0  0  0  0  0  0  0  0  0  0
   -1.4479    2.5546    1.5541 C   0  0  0  0  0  0  0  0  0  0  0  0
   -0.4538    3.3206    0.9289 C   0  0  0  0  0  0  0  0  0  0  0  0
    0.6443    2.6525    0.3522 C   0  0  0  0  0  0  0  0  0  0  0  0
   -0.6049    4.8438    0.8984 C   0  0  0  0  0  0  0  0  0  0  0  0
    0.4697    5.5767    0.0768 C   0  0  0  0  0  0  0  0  0  0  0  0
   -0.6131    5.4138    2.3262 C   0  0  0  0  0  0  0  0  0  0  0  0
   -0.2112   -1.0633    1.0453 C   0  0  2  0  0  0  0  0  0  0  0  0
    0.1544   -1.3849    2.5246 C   0  0  0  0  0  0  0  0  0  0  0  0
   -1.5941   -1.7047    0.7080 C   0  0  0  0  0  0  0  0  0  0  0  0
   -1.5309   -3.2427    0.6194 C   0  0  0  0  0  0  0  0  0  0  0  0
   -0.5790   -3.6805   -0.5003 C   0  0  0  0  0  0  0  0  0  0  0  0
    0.8719   -3.1445   -0.3160 C   0  0  2  0  0  0  0  0  0  0  0  0
    1.5809   -3.9123    0.8325 C   0  0  0  0  0  0  0  0  0  0  0  0
    1.7014   -3.5101   -1.6061 C   0  0  0  0  0  0  0  0  0  0  0  0
    1.2159   -2.9133   -2.8458 N   0  0  0  0  0  0  0  0  0  0  0  0
    1.7874   -3.1072   -4.0771 C   0  0  0  0  0  0  0  0  0  0  0  0
    1.2837   -2.5507   -5.0414 O   0  0  0  0  0  0  0  0  0  0  0  0
    2.9919   -3.9550   -4.3401 C   0  0  0  0  0  0  0  0  0  0  0  0
    3.6607   -4.6344   -3.4067 C   0  0  0  0  0  0  0  0  0  0  0  0
    2.9183   -1.2277   -0.6296 H   0  0  0  0  0  0  0  0  0  0  0  0
    2.5376   -1.0483    1.0992 H   0  0  0  0  0  0  0  0  0  0  0  0
    1.9044    0.7887   -1.3060 H   0  0  0  0  0  0  0  0  0  0  0  0
    2.9047    1.1304    0.1499 H   0  0  0  0  0  0  0  0  0  0  0  0
   -2.1571    0.6259    2.0896 H   0  0  0  0  0  0  0  0  0  0  0  0
   -2.3050    3.0371    2.0062 H   0  0  0  0  0  0  0  0  0  0  0  0
    1.4374    3.2078   -0.1276 H   0  0  0  0  0  0  0  0  0  0  0  0
   -1.5826    5.0726    0.4191 H   0  0  0  0  0  0  0  0  0  0  0  0
    0.2593    6.6676    0.0591 H   0  0  0  0  0  0  0  0  0  0  0  0
    1.4800    5.4276    0.5152 H   0  0  0  0  0  0  0  0  0  0  0  0
    0.4628    5.2169   -0.9743 H   0  0  0  0  0  0  0  0  0  0  0  0
   -1.4329    4.9761    2.9318 H   0  0  0  0  0  0  0  0  0  0  0  0
    0.3534    5.2034    2.8329 H   0  0  0  0  0  0  0  0  0  0  0  0
   -0.7710    6.5133    2.3010 H   0  0  0  0  0  0  0  0  0  0  0  0
    0.1360   -2.4396    2.8047 H   0  0  0  0  0  0  0  0  0  0  0  0
   -0.5939   -0.9293    3.2082 H   0  0  0  0  0  0  0  0  0  0  0  0
    1.1386   -0.9602    2.8071 H   0  0  0  0  0  0  0  0  0  0  0  0
   -1.9547   -1.3142   -0.2701 H   0  0  0  0  0  0  0  0  0  0  0  0
   -2.3561   -1.4468    1.4711 H   0  0  0  0  0  0  0  0  0  0  0  0
   -2.5470   -3.6294    0.3879 H   0  0  0  0  0  0  0  0  0  0  0  0
   -1.2322   -3.6891    1.5873 H   0  0  0  0  0  0  0  0  0  0  0  0
   -1.0168   -3.2865   -1.4405 H   0  0  0  0  0  0  0  0  0  0  0  0
   -0.5771   -4.7894   -0.5851 H   0  0  0  0  0  0  0  0  0  0  0  0
    2.6106   -3.5277    0.9892 H   0  0  0  0  0  0  0  0  0  0  0  0
    1.6625   -4.9916    0.5787 H   0  0  0  0  0  0  0  0  0  0  0  0
    1.0594   -3.9101    1.7896 H   0  0  0  0  0  0  0  0  0  0  0  0
    1.6755   -4.6161   -1.7257 H   0  0  0  0  0  0  0  0  0  0  0  0
    2.7567   -3.2081   -1.4549 H   0  0  0  0  0  0  0  0  0  0  0  0
    0.3863   -2.3066   -2.8166 H   0  0  0  0  0  0  0  0  0  0  0  0
    3.3418   -4.0200   -5.3687 H   0  0  0  0  0  0  0  0  0  0  0  0
    3.9932   -5.6065   -3.7565 H   0  0  0  0  0  0  0  0  0  0  0  0
    4.7341   -4.6150   -3.5658 H   0  0  0  0  0  0  0  0  0  0  0  0
  2  1  1  6  0  0  0
  3  2  1  0  0  0  0
  3 27  1  0  0  0  0
  3 28  1  0  0  0  0
  4  3  1  0  0  0  0
  4 29  1  0  0  0  0
  4 30  1  0  0  0  0
  5  4  1  0  0  0  0
  6  5  2  0  0  0  0
  7  6  1  0  0  0  0
  7 31  1  0  0  0  0
  8  7  2  0  0  0  0
  8 32  1  0  0  0  0
  9  8  1  0  0  0  0
 10  9  2  0  0  0  0
 10  5  1  0  0  0  0
 10 33  1  0  0  0  0
 11  9  1  0  0  0  0
 11 34  1  0  0  0  0
 12 11  1  0  0  0  0
 12 35  1  0  0  0  0
 12 36  1  0  0  0  0
 12 37  1  0  0  0  0
 13 11  1  0  0  0  0
 13 38  1  0  0  0  0
 13 39  1  0  0  0  0
 13 40  1  0  0  0  0
 14  6  1  0  0  0  0
 14  2  1  0  0  0  0
 14 15  1  1  0  0  0
 15 41  1  0  0  0  0
 15 42  1  0  0  0  0
 15 43  1  0  0  0  0
 16 14  1  0  0  0  0
 16 44  1  0  0  0  0
 16 45  1  0  0  0  0
 17 16  1  0  0  0  0
 17 46  1  0  0  0  0
 17 47  1  0  0  0  0
 18 17  1  0  0  0  0
 18 48  1  0  0  0  0
 18 49  1  0  0  0  0
 19 18  1  0  0  0  0
 19  2  1  0  0  0  0
 19 20  1  1  0  0  0
 20 50  1  0  0  0  0
 20 51  1  0  0  0  0
 20 52  1  0  0  0  0
 21 19  1  0  0  0  0
 21 53  1  0  0  0  0
 21 54  1  0  0  0  0
 22 21  1  0  0  0  0
 22 55  1  0  0  0  0
 23 22  1  0  0  0  0
 24 23  2  0  0  0  0
 25 23  1  0  0  0  0
 25 56  1  0  0  0  0
 26 25  2  0  0  0  0
 26 57  1  0  0  0  0
 26 58  1  0  0  0  0
M  END
>  <MOL Chiral Flag>
0

>  <energy>
66.5098670678465

$$$$
> 369_AKC_j.bmcl.2016.01.040
>354.sdf
 OpenBabel10062212583D

 43 43  0  0  0  0  0  0  0  0999 V2000
   -9.9408   -2.2953    2.0322 C   0  0  0  0  0  0  0  0  0  0  0  0
   -8.9342   -2.0094    0.9184 C   0  0  0  0  0  0  0  0  0  0  0  0
   -7.5290   -2.4719    1.3172 C   0  0  0  0  0  0  0  0  0  0  0  0
   -6.4947   -2.1866    0.2148 C   0  0  0  0  0  0  0  0  0  0  0  0
   -5.1071   -2.6554    0.6689 C   0  0  0  0  0  0  0  0  0  0  0  0
   -3.9806   -2.2820   -0.3121 C   0  0  0  0  0  0  0  0  0  0  0  0
   -2.6405   -2.7575    0.2699 C   0  0  0  0  0  0  0  0  0  0  0  0
   -1.3932   -2.2777   -0.4975 C   0  0  0  0  0  0  0  0  0  0  0  0
   -0.1924   -2.8075    0.1738 N   0  3  0  0  0  0  0  0  0  0  0  0
    1.0811   -2.4561   -0.4801 C   0  0  0  0  0  0  0  0  0  0  0  0
    1.5624   -1.0425   -0.2106 C   0  0  0  0  0  0  0  0  0  0  0  0
    1.7784   -0.5959    1.1071 C   0  0  0  0  0  0  0  0  0  0  0  0
    2.2960    0.6828    1.3455 C   0  0  0  0  0  0  0  0  0  0  0  0
    2.6125    1.5256    0.2714 C   0  0  0  0  0  0  0  0  0  0  0  0
    3.1362    2.7508    0.4888 O   0  0  0  0  0  0  0  0  0  0  0  0
    2.3951    1.0898   -1.0391 C   0  0  0  0  0  0  0  0  0  0  0  0
    1.8708   -0.1859   -1.2813 C   0  0  0  0  0  0  0  0  0  0  0  0
   -9.6560   -1.7567    2.9616 H   0  0  0  0  0  0  0  0  0  0  0  0
  -10.9507   -1.9544    1.7214 H   0  0  0  0  0  0  0  0  0  0  0  0
   -9.9843   -3.3851    2.2442 H   0  0  0  0  0  0  0  0  0  0  0  0
   -9.2553   -2.5427   -0.0020 H   0  0  0  0  0  0  0  0  0  0  0  0
   -8.9254   -0.9161    0.7159 H   0  0  0  0  0  0  0  0  0  0  0  0
   -7.2268   -1.9344    2.2443 H   0  0  0  0  0  0  0  0  0  0  0  0
   -7.5497   -3.5632    1.5314 H   0  0  0  0  0  0  0  0  0  0  0  0
   -6.4706   -1.0924    0.0195 H   0  0  0  0  0  0  0  0  0  0  0  0
   -6.7782   -2.7140   -0.7225 H   0  0  0  0  0  0  0  0  0  0  0  0
   -5.1271   -3.7577    0.8213 H   0  0  0  0  0  0  0  0  0  0  0  0
   -4.8814   -2.1684    1.6435 H   0  0  0  0  0  0  0  0  0  0  0  0
   -3.9630   -1.1773   -0.4287 H   0  0  0  0  0  0  0  0  0  0  0  0
   -4.1524   -2.7470   -1.3087 H   0  0  0  0  0  0  0  0  0  0  0  0
   -2.6502   -3.8704    0.3062 H   0  0  0  0  0  0  0  0  0  0  0  0
   -2.5499   -2.3737    1.3089 H   0  0  0  0  0  0  0  0  0  0  0  0
   -1.3686   -1.1655   -0.5049 H   0  0  0  0  0  0  0  0  0  0  0  0
   -1.4388   -2.6439   -1.5481 H   0  0  0  0  0  0  0  0  0  0  0  0
   -0.2616   -3.8525    0.1543 H   0  0  0  0  0  0  0  0  0  0  0  0
   -0.1773   -2.5135    1.1774 H   0  0  0  0  0  0  0  0  0  0  0  0
    1.0211   -2.6688   -1.5706 H   0  0  0  0  0  0  0  0  0  0  0  0
    1.8712   -3.1231   -0.0691 H   0  0  0  0  0  0  0  0  0  0  0  0
    1.5642   -1.2395    1.9500 H   0  0  0  0  0  0  0  0  0  0  0  0
    2.4644    1.0113    2.3637 H   0  0  0  0  0  0  0  0  0  0  0  0
    3.3202    3.0759    1.3818 H   0  0  0  0  0  0  0  0  0  0  0  0
    2.6465    1.7344   -1.8719 H   0  0  0  0  0  0  0  0  0  0  0  0
    1.7300   -0.5135   -2.3032 H   0  0  0  0  0  0  0  0  0  0  0  0
  1 18  1  0  0  0  0
  1 19  1  0  0  0  0
  1 20  1  0  0  0  0
  2  1  1  0  0  0  0
  2 21  1  0  0  0  0
  2 22  1  0  0  0  0
  3  2  1  0  0  0  0
  3 23  1  0  0  0  0
  3 24  1  0  0  0  0
  4  3  1  0  0  0  0
  4 25  1  0  0  0  0
  4 26  1  0  0  0  0
  5  4  1  0  0  0  0
  5 27  1  0  0  0  0
  5 28  1  0  0  0  0
  6  5  1  0  0  0  0
  6 29  1  0  0  0  0
  6 30  1  0  0  0  0
  7  6  1  0  0  0  0
  7 31  1  0  0  0  0
  7 32  1  0  0  0  0
  8  7  1  0  0  0  0
  8 33  1  0  0  0  0
  8 34  1  0  0  0  0
  9  8  1  0  0  0  0
  9 35  1  0  0  0  0
  9 36  1  0  0  0  0
 10  9  1  0  0  0  0
 10 37  1  0  0  0  0
 10 38  1  0  0  0  0
 11 10  1  0  0  0  0
 12 11  2  0  0  0  0
 12 39  1  0  0  0  0
 13 12  1  0  0  0  0
 13 40  1  0  0  0  0
 14 13  2  0  0  0  0
 15 14  1  0  0  0  0
 15 41  1  0  0  0  0
 16 14  1  0  0  0  0
 16 42  1  0  0  0  0
 17 16  2  0  0  0  0
 17 11  1  0  0  0  0
 17 43  1  0  0  0  0
M  CHG  1   9   1
M  END
>  <MOL Chiral Flag>
0

>  <energy>
10.072671461201073

$$$$
> 370_AKC_journal.pntd.0004442
>355.sdf
 OpenBabel10062212583D

 30 32  0  0  0  0  0  0  0  0999 V2000
   -5.7556   -0.8799   -1.7267 O   0  0  0  0  0  0  0  0  0  0  0  0
   -4.5268   -0.5810   -1.2594 C   0  0  0  0  0  0  0  0  0  0  0  0
   -4.3225   -0.4381    0.1184 C   0  0  0  0  0  0  0  0  0  0  0  0
   -3.0531   -0.1148    0.6132 C   0  0  0  0  0  0  0  0  0  0  0  0
   -1.9704    0.0335   -0.2717 C   0  0  0  0  0  0  0  0  0  0  0  0
   -2.1785   -0.1296   -1.6495 C   0  0  0  0  0  0  0  0  0  0  0  0
   -3.4516   -0.4160   -2.1426 C   0  0  0  0  0  0  0  0  0  0  0  0
   -0.6081    0.3155    0.2182 C   0  0  0  0  0  0  0  0  0  0  0  0
   -0.3652    1.2013    1.2779 C   0  0  0  0  0  0  0  0  0  0  0  0
    0.9531    1.4274    1.6908 C   0  0  0  0  0  0  0  0  0  0  0  0
    1.1721    2.2192    2.5899 O   0  0  0  0  0  0  0  0  0  0  0  0
    2.0035    0.7191    1.0629 C   0  0  0  0  0  0  0  0  0  0  0  0
    3.3645    0.8500    1.4420 C   0  0  0  0  0  0  0  0  0  0  0  0
    3.7316    1.6957    2.4276 O   0  0  0  0  0  0  0  0  0  0  0  0
    4.3429    0.0788    0.7890 C   0  0  0  0  0  0  0  0  0  0  0  0
    3.9884   -0.8090   -0.2292 C   0  0  0  0  0  0  0  0  0  0  0  0
    4.9397   -1.5519   -0.8307 O   0  0  0  0  0  0  0  0  0  0  0  0
    2.6510   -0.9246   -0.6173 C   0  0  0  0  0  0  0  0  0  0  0  0
    1.6656   -0.1678    0.0164 C   0  0  0  0  0  0  0  0  0  0  0  0
    0.4050   -0.3090   -0.3711 O   0  0  0  0  0  0  0  0  0  0  0  0
   -5.9258   -0.9811   -2.6745 H   0  0  0  0  0  0  0  0  0  0  0  0
   -5.1468   -0.5827    0.8056 H   0  0  0  0  0  0  0  0  0  0  0  0
   -2.9079   -0.0240    1.6826 H   0  0  0  0  0  0  0  0  0  0  0  0
   -1.3559   -0.0087   -2.3441 H   0  0  0  0  0  0  0  0  0  0  0  0
   -3.5996   -0.5159   -3.2102 H   0  0  0  0  0  0  0  0  0  0  0  0
   -1.1830    1.7319    1.7533 H   0  0  0  0  0  0  0  0  0  0  0  0
    4.6573    1.7935    2.6954 H   0  0  0  0  0  0  0  0  0  0  0  0
    5.3826    0.1646    1.0806 H   0  0  0  0  0  0  0  0  0  0  0  0
    4.7220   -2.1835   -1.5315 H   0  0  0  0  0  0  0  0  0  0  0  0
    2.3716   -1.6128   -1.4052 H   0  0  0  0  0  0  0  0  0  0  0  0
  1 21  1  0  0  0  0
  2  1  1  0  0  0  0
  3  2  2  0  0  0  0
  3 22  1  0  0  0  0
  4  3  1  0  0  0  0
  4 23  1  0  0  0  0
  5  4  2  0  0  0  0
  6  5  1  0  0  0  0
  6 24  1  0  0  0  0
  7  6  2  0  0  0  0
  7  2  1  0  0  0  0
  7 25  1  0  0  0  0
  8  5  1  0  0  0  0
  9  8  2  0  0  0  0
  9 26  1  0  0  0  0
 10  9  1  0  0  0  0
 11 10  2  0  0  0  0
 12 10  1  0  0  0  0
 13 12  2  0  0  0  0
 14 13  1  0  0  0  0
 14 27  1  0  0  0  0
 15 13  1  0  0  0  0
 15 28  1  0  0  0  0
 16 15  2  0  0  0  0
 17 16  1  0  0  0  0
 17 29  1  0  0  0  0
 18 16  1  0  0  0  0
 18 30  1  0  0  0  0
 19 18  2  0  0  0  0
 19 12  1  0  0  0  0
 20 19  1  0  0  0  0
 20  8  1  0  0  0  0
M  END
>  <MOL Chiral Flag>
0

>  <energy>
33.003544033502038

$$$$
> 371_AKC_AAC.00426-15
>356.sdf
 OpenBabel10062212583D

 88 91  0  0  0  0  0  0  0  0999 V2000
    2.0757   -0.5378   -2.8822 C   0  0  0  0  0  0  0  0  0  0  0  0
    2.3670   -1.3412   -1.6075 C   0  0  0  0  0  0  0  0  0  0  0  0
    3.6974   -2.0937   -1.7725 C   0  0  0  0  0  0  0  0  0  0  0  0
    1.1869   -2.3015   -1.3098 C   0  0  0  0  0  0  0  0  0  0  0  0
    1.2531   -2.9520    0.0921 C   0  0  1  0  0  0  0  0  0  0  0  0
    1.1831   -1.9223    1.1116 N   0  0  0  0  0  0  0  0  0  0  0  0
    2.1292   -1.7419    2.0672 C   0  0  0  0  0  0  0  0  0  0  0  0
    3.0915   -2.4979    2.1312 O   0  0  0  0  0  0  0  0  0  0  0  0
    1.9781   -0.7141    2.9450 O   0  0  0  0  0  0  0  0  0  0  0  0
    2.8054   -0.2283    3.9562 C   0  0  0  0  0  0  0  0  0  0  0  0
    3.1014    1.2400    3.6249 C   0  0  0  0  0  0  0  0  0  0  0  0
    4.1446   -0.9829    4.1187 C   0  0  0  0  0  0  0  0  0  0  0  0
    2.0262   -0.3067    5.2774 C   0  0  0  0  0  0  0  0  0  0  0  0
    0.2542   -4.0993    0.3349 C   0  0  0  0  0  0  0  0  0  0  0  0
    0.7542   -5.1975    0.5461 O   0  0  0  0  0  0  0  0  0  0  0  0
   -1.1264   -4.0136    0.2999 N   0  0  0  0  0  0  0  0  0  0  0  0
   -1.9286   -5.2234    0.2948 C   0  0  0  0  0  0  0  0  0  0  0  0
   -3.0150   -4.8633   -0.6973 C   0  0  0  0  0  0  0  0  0  0  0  0
   -3.3123   -3.4452   -0.2607 C   0  0  0  0  0  0  0  0  0  0  0  0
   -1.9315   -2.8422   -0.0315 C   0  0  1  0  0  0  0  0  0  0  0  0
   -2.0362   -1.7753    1.0460 C   0  0  0  0  0  0  0  0  0  0  0  0
   -1.5314   -1.9691    2.1421 O   0  0  0  0  0  0  0  0  0  0  0  0
   -2.7084   -0.6112    0.8163 N   0  0  0  0  0  0  0  0  0  0  0  0
   -3.0052    0.5731    1.4617 C   0  0  2  0  0  0  0  0  0  0  0  0
   -3.4694    0.1147   -0.0911 C   0  0  2  0  0  0  0  0  0  0  0  0
   -4.8610   -0.4800   -0.1936 C   0  0  0  0  0  0  0  0  0  0  0  0
   -5.5153   -0.6446    0.8276 O   0  0  0  0  0  0  0  0  0  0  0  0
   -5.3832   -0.8634   -1.3960 O   0  0  0  0  0  0  0  0  0  0  0  0
   -6.1097   -2.0440   -1.5218 C   0  0  0  0  0  0  0  0  0  0  0  0
   -7.5748   -1.8963   -1.7979 C   0  0  0  0  0  0  0  0  0  0  0  0
   -8.1565   -2.6326   -2.8449 C   0  0  0  0  0  0  0  0  0  0  0  0
   -9.5398   -2.6185   -3.0300 C   0  0  0  0  0  0  0  0  0  0  0  0
  -10.3504   -1.8601   -2.1824 C   0  0  0  0  0  0  0  0  0  0  0  0
   -9.7769   -1.1089   -1.1516 C   0  0  0  0  0  0  0  0  0  0  0  0
   -8.3926   -1.1300   -0.9538 C   0  0  0  0  0  0  0  0  0  0  0  0
   -1.7591    1.3884    1.6721 C   0  0  0  0  0  0  0  0  0  0  0  0
   -0.9429    1.0444    2.5153 O   0  0  0  0  0  0  0  0  0  0  0  0
   -1.6057    2.5586    1.0030 O   0  0  0  0  0  0  0  0  0  0  0  0
   -1.1365    3.7238    1.5857 C   0  0  0  0  0  0  0  0  0  0  0  0
    0.3340    3.9697    1.3538 C   0  0  0  0  0  0  0  0  0  0  0  0
    1.1804    4.2226    2.4487 C   0  0  0  0  0  0  0  0  0  0  0  0
    2.5344    4.5056    2.2458 C   0  0  0  0  0  0  0  0  0  0  0  0
    3.0571    4.5324    0.9516 C   0  0  0  0  0  0  0  0  0  0  0  0
    2.2258    4.2769   -0.1434 C   0  0  0  0  0  0  0  0  0  0  0  0
    0.8662    4.0001    0.0536 C   0  0  0  0  0  0  0  0  0  0  0  0
    2.9030    0.1761   -3.0829 H   0  0  0  0  0  0  0  0  0  0  0  0
    1.9571   -1.2106   -3.7580 H   0  0  0  0  0  0  0  0  0  0  0  0
    1.1432    0.0541   -2.7559 H   0  0  0  0  0  0  0  0  0  0  0  0
    2.4650   -0.6069   -0.7779 H   0  0  0  0  0  0  0  0  0  0  0  0
    4.5142   -1.3769   -2.0004 H   0  0  0  0  0  0  0  0  0  0  0  0
    3.9865   -2.6297   -0.8479 H   0  0  0  0  0  0  0  0  0  0  0  0
    3.6267   -2.8266   -2.6055 H   0  0  0  0  0  0  0  0  0  0  0  0
    0.2744   -1.6878   -1.3664 H   0  0  0  0  0  0  0  0  0  0  0  0
    1.1414   -3.0833   -2.0997 H   0  0  0  0  0  0  0  0  0  0  0  0
    2.2368   -3.4619    0.1500 H   0  0  0  0  0  0  0  0  0  0  0  0
    0.4094   -1.2498    1.0801 H   0  0  0  0  0  0  0  0  0  0  0  0
    2.1506    1.8060    3.5329 H   0  0  0  0  0  0  0  0  0  0  0  0
    3.7209    1.7147    4.4153 H   0  0  0  0  0  0  0  0  0  0  0  0
    3.6406    1.3133    2.6554 H   0  0  0  0  0  0  0  0  0  0  0  0
    4.7431   -0.9331    3.1837 H   0  0  0  0  0  0  0  0  0  0  0  0
    4.7510   -0.5253    4.9297 H   0  0  0  0  0  0  0  0  0  0  0  0
    3.9715   -2.0453    4.3944 H   0  0  0  0  0  0  0  0  0  0  0  0
    1.7878   -1.3645    5.5209 H   0  0  0  0  0  0  0  0  0  0  0  0
    2.6174    0.1255    6.1136 H   0  0  0  0  0  0  0  0  0  0  0  0
    1.0689    0.2529    5.1975 H   0  0  0  0  0  0  0  0  0  0  0  0
   -2.3751   -5.3661    1.3045 H   0  0  0  0  0  0  0  0  0  0  0  0
   -1.3948   -6.1448   -0.0247 H   0  0  0  0  0  0  0  0  0  0  0  0
   -2.5733   -4.8337   -1.7198 H   0  0  0  0  0  0  0  0  0  0  0  0
   -3.8957   -5.5407   -0.6988 H   0  0  0  0  0  0  0  0  0  0  0  0
   -3.8732   -3.5177    0.7022 H   0  0  0  0  0  0  0  0  0  0  0  0
   -3.8643   -2.8746   -1.0015 H   0  0  0  0  0  0  0  0  0  0  0  0
   -1.5877   -2.4455   -0.9982 H   0  0  0  0  0  0  0  0  0  0  0  0
   -3.6423    0.3556    2.3448 H   0  0  0  0  0  0  0  0  0  0  0  0
   -2.8466    0.2847   -0.9947 H   0  0  0  0  0  0  0  0  0  0  0  0
   -6.0591   -2.6292   -0.5771 H   0  0  0  0  0  0  0  0  0  0  0  0
   -5.6329   -2.6618   -2.3135 H   0  0  0  0  0  0  0  0  0  0  0  0
   -7.5433   -3.2511   -3.4899 H   0  0  0  0  0  0  0  0  0  0  0  0
   -9.9836   -3.2124   -3.8185 H   0  0  0  0  0  0  0  0  0  0  0  0
  -11.4235   -1.8630   -2.3184 H   0  0  0  0  0  0  0  0  0  0  0  0
  -10.4073   -0.5271   -0.4926 H   0  0  0  0  0  0  0  0  0  0  0  0
   -7.9637   -0.5686   -0.1348 H   0  0  0  0  0  0  0  0  0  0  0  0
   -1.3743    3.7347    2.6733 H   0  0  0  0  0  0  0  0  0  0  0  0
   -1.7027    4.5644    1.1343 H   0  0  0  0  0  0  0  0  0  0  0  0
    0.7887    4.2175    3.4583 H   0  0  0  0  0  0  0  0  0  0  0  0
    3.1766    4.7103    3.0933 H   0  0  0  0  0  0  0  0  0  0  0  0
    4.1055    4.7557    0.7977 H   0  0  0  0  0  0  0  0  0  0  0  0
    2.6347    4.3019   -1.1452 H   0  0  0  0  0  0  0  0  0  0  0  0
    0.2302    3.8157   -0.8025 H   0  0  0  0  0  0  0  0  0  0  0  0
  1 46  1  0  0  0  0
  1 47  1  0  0  0  0
  1 48  1  0  0  0  0
  2  1  1  0  0  0  0
  2 49  1  0  0  0  0
  3  2  1  0  0  0  0
  3 50  1  0  0  0  0
  3 51  1  0  0  0  0
  3 52  1  0  0  0  0
  4  2  1  0  0  0  0
  4 53  1  0  0  0  0
  4 54  1  0  0  0  0
  5  4  1  0  0  0  0
  5 55  1  1  0  0  0
  6  5  1  0  0  0  0
  6 56  1  0  0  0  0
  7  6  1  0  0  0  0
  8  7  2  0  0  0  0
  9  7  1  0  0  0  0
 10  9  1  0  0  0  0
 11 10  1  0  0  0  0
 11 57  1  0  0  0  0
 11 58  1  0  0  0  0
 11 59  1  0  0  0  0
 12 10  1  0  0  0  0
 12 60  1  0  0  0  0
 12 61  1  0  0  0  0
 12 62  1  0  0  0  0
 13 10  1  0  0  0  0
 13 63  1  0  0  0  0
 13 64  1  0  0  0  0
 13 65  1  0  0  0  0
 14  5  1  0  0  0  0
 15 14  2  0  0  0  0
 16 14  1  0  0  0  0
 17 16  1  0  0  0  0
 17 66  1  0  0  0  0
 17 67  1  0  0  0  0
 18 17  1  0  0  0  0
 18 68  1  0  0  0  0
 18 69  1  0  0  0  0
 19 18  1  0  0  0  0
 19 70  1  0  0  0  0
 19 71  1  0  0  0  0
 20 19  1  0  0  0  0
 20 16  1  0  0  0  0
 20 72  1  6  0  0  0
 21 20  1  0  0  0  0
 22 21  2  0  0  0  0
 23 21  1  0  0  0  0
 24 23  1  0  0  0  0
 24 73  1  1  0  0  0
 25 24  1  0  0  0  0
 25 23  1  0  0  0  0
 25 74  1  6  0  0  0
 26 25  1  0  0  0  0
 27 26  2  0  0  0  0
 28 26  1  0  0  0  0
 29 28  1  0  0  0  0
 29 75  1  0  0  0  0
 29 76  1  0  0  0  0
 30 29  1  0  0  0  0
 31 30  2  0  0  0  0
 31 77  1  0  0  0  0
 32 31  1  0  0  0  0
 32 78  1  0  0  0  0
 33 32  2  0  0  0  0
 33 79  1  0  0  0  0
 34 33  1  0  0  0  0
 34 80  1  0  0  0  0
 35 34  2  0  0  0  0
 35 30  1  0  0  0  0
 35 81  1  0  0  0  0
 36 24  1  0  0  0  0
 37 36  2  0  0  0  0
 38 36  1  0  0  0  0
 39 38  1  0  0  0  0
 39 82  1  0  0  0  0
 39 83  1  0  0  0  0
 40 39  1  0  0  0  0
 41 40  2  0  0  0  0
 41 84  1  0  0  0  0
 42 41  1  0  0  0  0
 42 85  1  0  0  0  0
 43 42  2  0  0  0  0
 43 86  1  0  0  0  0
 44 43  1  0  0  0  0
 44 87  1  0  0  0  0
 45 44  2  0  0  0  0
 45 40  1  0  0  0  0
 45 88  1  0  0  0  0
M  END
>  <MOL Chiral Flag>
0

>  <energy>
70.257467853316939

$$$$
> 372_AKC_ajtmh.15-0448
>357.sdf
 OpenBabel10062212593D

 45 48  0  0  0  0  0  0  0  0999 V2000
    1.9109   -0.8534    2.3339 O   0  0  0  0  0  0  0  0  0  0  0  0
    1.7858   -1.0711    1.0048 C   0  0  0  0  0  0  0  0  0  0  0  0
    1.1121   -0.1253    0.1994 C   0  0  0  0  0  0  0  0  0  0  0  0
    0.9760   -0.3642   -1.1823 C   0  0  0  0  0  0  0  0  0  0  0  0
    1.4918   -1.5211   -1.7615 C   0  0  0  0  0  0  0  0  0  0  0  0
    2.1462   -2.4688   -0.9696 C   0  0  0  0  0  0  0  0  0  0  0  0
    2.3010   -2.2457    0.4173 C   0  0  0  0  0  0  0  0  0  0  0  0
    2.9307   -3.1823    1.1816 N   0  0  0  0  0  0  0  0  0  0  0  0
    3.4150   -4.3356    0.6476 C   0  0  0  0  0  0  0  0  0  0  0  0
    3.2775   -4.5897   -0.7185 C   0  0  0  0  0  0  0  0  0  0  0  0
    2.6428   -3.6512   -1.5315 C   0  0  0  0  0  0  0  0  0  0  0  0
    0.4502    1.1104    0.8077 C   0  0  2  0  0  0  0  0  0  0  0  0
   -0.9775    1.0328    0.4969 N   0  0  0  0  0  0  0  0  0  0  0  0
   -1.7418   -0.0225    0.9262 C   0  0  0  0  0  0  0  0  0  0  0  0
   -1.2407   -0.8655    1.6574 O   0  0  0  0  0  0  0  0  0  0  0  0
   -3.1654   -0.2146    0.4922 C   0  0  0  0  0  0  0  0  0  0  0  0
   -3.8354    0.6883   -0.3635 C   0  0  0  0  0  0  0  0  0  0  0  0
   -5.1512    0.4363   -0.7668 C   0  0  0  0  0  0  0  0  0  0  0  0
   -5.8157   -0.7100   -0.3296 C   0  0  0  0  0  0  0  0  0  0  0  0
   -5.1699   -1.6091    0.5168 C   0  0  0  0  0  0  0  0  0  0  0  0
   -3.8574   -1.3669    0.9268 C   0  0  0  0  0  0  0  0  0  0  0  0
    1.0368    2.4452    0.3384 C   0  0  0  0  0  0  0  0  0  0  0  0
    2.1344    2.5374   -0.5488 C   0  0  0  0  0  0  0  0  0  0  0  0
    2.6302    3.7873   -0.9341 C   0  0  0  0  0  0  0  0  0  0  0  0
    2.0495    4.9567   -0.4419 C   0  0  0  0  0  0  0  0  0  0  0  0
    0.9724    4.8818    0.4415 C   0  0  0  0  0  0  0  0  0  0  0  0
    0.4700    3.6370    0.8319 C   0  0  0  0  0  0  0  0  0  0  0  0
    2.3575   -1.4744    2.9258 H   0  0  0  0  0  0  0  0  0  0  0  0
    0.4490    0.3472   -1.8067 H   0  0  0  0  0  0  0  0  0  0  0  0
    1.3638   -1.6848   -2.8248 H   0  0  0  0  0  0  0  0  0  0  0  0
    3.9044   -5.0592    1.2854 H   0  0  0  0  0  0  0  0  0  0  0  0
    3.6584   -5.5092   -1.1434 H   0  0  0  0  0  0  0  0  0  0  0  0
    2.5318   -3.8490   -2.5911 H   0  0  0  0  0  0  0  0  0  0  0  0
    0.5677    1.1132    1.9132 H   0  0  0  0  0  0  0  0  0  0  0  0
   -1.3852    1.7644   -0.0959 H   0  0  0  0  0  0  0  0  0  0  0  0
   -3.3634    1.5822   -0.7352 H   0  0  0  0  0  0  0  0  0  0  0  0
   -5.6551    1.1307   -1.4264 H   0  0  0  0  0  0  0  0  0  0  0  0
   -6.8312   -0.9032   -0.6496 H   0  0  0  0  0  0  0  0  0  0  0  0
   -5.6839   -2.5005    0.8529 H   0  0  0  0  0  0  0  0  0  0  0  0
   -3.3777   -2.0880    1.5769 H   0  0  0  0  0  0  0  0  0  0  0  0
    2.6176    1.6567   -0.9431 H   0  0  0  0  0  0  0  0  0  0  0  0
    3.4697    3.8483   -1.6148 H   0  0  0  0  0  0  0  0  0  0  0  0
    2.4374    5.9217   -0.7424 H   0  0  0  0  0  0  0  0  0  0  0  0
    0.5260    5.7899    0.8261 H   0  0  0  0  0  0  0  0  0  0  0  0
   -0.3650    3.5983    1.5208 H   0  0  0  0  0  0  0  0  0  0  0  0
  1 28  1  0  0  0  0
  2  1  1  0  0  0  0
  3  2  2  0  0  0  0
  4  3  1  0  0  0  0
  4 29  1  0  0  0  0
  5  4  2  0  0  0  0
  5 30  1  0  0  0  0
  6  5  1  0  0  0  0
  7  6  2  0  0  0  0
  7  2  1  0  0  0  0
  8  7  1  0  0  0  0
  9  8  2  0  0  0  0
  9 31  1  0  0  0  0
 10  9  1  0  0  0  0
 10 32  1  0  0  0  0
 11 10  2  0  0  0  0
 11  6  1  0  0  0  0
 11 33  1  0  0  0  0
 12  3  1  0  0  0  0
 12 34  1  1  0  0  0
 13 12  1  0  0  0  0
 13 35  1  0  0  0  0
 14 13  1  0  0  0  0
 15 14  2  0  0  0  0
 16 14  1  0  0  0  0
 17 16  2  0  0  0  0
 17 36  1  0  0  0  0
 18 17  1  0  0  0  0
 18 37  1  0  0  0  0
 19 18  2  0  0  0  0
 19 38  1  0  0  0  0
 20 19  1  0  0  0  0
 20 39  1  0  0  0  0
 21 20  2  0  0  0  0
 21 16  1  0  0  0  0
 21 40  1  0  0  0  0
 22 12  1  0  0  0  0
 23 22  2  0  0  0  0
 23 41  1  0  0  0  0
 24 23  1  0  0  0  0
 24 42  1  0  0  0  0
 25 24  2  0  0  0  0
 25 43  1  0  0  0  0
 26 25  1  0  0  0  0
 26 44  1  0  0  0  0
 27 26  2  0  0  0  0
 27 22  1  0  0  0  0
 27 45  1  0  0  0  0
M  END
>  <MOL Chiral Flag>
0

>  <energy>
78.140244725605911

$$$$
> 373_AKC_ajtmh.15-0448
>358.sdf
 OpenBabel10062213003D

 58 63  0  0  0  0  0  0  0  0999 V2000
    2.7489    0.3152   -0.8176 C   0  0  0  0  0  0  0  0  0  0  0  0
    1.8055   -0.7687   -1.1254 N   0  0  0  0  0  0  0  0  0  0  0  0
    0.4578   -0.7220   -0.9832 C   0  0  0  0  0  0  0  0  0  0  0  0
   -0.2138    0.4234   -0.5025 N   0  0  0  0  0  0  0  0  0  0  0  0
   -1.4313    0.4320   -0.2359 N   0  0  0  0  0  0  0  0  0  0  0  0
   -2.0258    1.6459    0.2039 C   0  0  0  0  0  0  0  0  0  0  0  0
   -1.8703    2.8454   -0.5455 C   0  0  0  0  0  0  0  0  0  0  0  0
   -1.2619    2.8536   -1.8221 C   0  0  0  0  0  0  0  0  0  0  0  0
   -1.1251    4.0463   -2.5347 C   0  0  0  0  0  0  0  0  0  0  0  0
   -1.5851    5.2455   -1.9936 C   0  0  0  0  0  0  0  0  0  0  0  0
   -2.1901    5.2609   -0.7360 C   0  0  0  0  0  0  0  0  0  0  0  0
   -2.3406    4.0695   -0.0075 C   0  0  0  0  0  0  0  0  0  0  0  0
   -2.9416    4.0919    1.2554 C   0  0  0  0  0  0  0  0  0  0  0  0
   -3.1024    2.9136    1.9813 C   0  0  0  0  0  0  0  0  0  0  0  0
   -2.6794    1.6837    1.4611 C   0  0  0  0  0  0  0  0  0  0  0  0
   -2.8585    0.5072    2.2515 N   0  0  0  0  0  0  0  0  0  0  0  0
   -3.3205   -0.7441    1.7333 C   0  0  0  0  0  0  0  0  0  0  0  0
   -3.9546   -0.8382    0.4748 C   0  0  0  0  0  0  0  0  0  0  0  0
   -4.4458   -2.0649    0.0210 C   0  0  0  0  0  0  0  0  0  0  0  0
   -4.3114   -3.2087    0.8094 C   0  0  0  0  0  0  0  0  0  0  0  0
   -3.6919   -3.1271    2.0584 C   0  0  0  0  0  0  0  0  0  0  0  0
   -3.2070   -1.9003    2.5234 C   0  0  0  0  0  0  0  0  0  0  0  0
   -0.1542   -1.8729   -1.3620 N   0  0  0  0  0  0  0  0  0  0  0  0
    0.8670   -2.6557   -1.7696 C   0  0  0  0  0  0  0  0  0  0  0  0
    0.8065   -3.9475   -2.2829 C   0  0  0  0  0  0  0  0  0  0  0  0
    2.0178   -4.5610   -2.6615 C   0  0  0  0  0  0  0  0  0  0  0  0
    3.2462   -3.8708   -2.5157 C   0  0  0  0  0  0  0  0  0  0  0  0
    3.2700   -2.5640   -1.9910 C   0  0  0  0  0  0  0  0  0  0  0  0
    2.0521   -1.9900   -1.6281 C   0  0  0  0  0  0  0  0  0  0  0  0
    3.6507    0.0508    0.3728 C   0  0  0  0  0  0  0  0  0  0  0  0
    3.6185   -1.1497    1.1140 C   0  0  0  0  0  0  0  0  0  0  0  0
    4.4650   -1.3199    2.2156 C   0  0  0  0  0  0  0  0  0  0  0  0
    5.3400   -0.2995    2.5949 C   0  0  0  0  0  0  0  0  0  0  0  0
    5.3744    0.8940    1.8727 C   0  0  0  0  0  0  0  0  0  0  0  0
    4.5376    1.0682    0.7673 C   0  0  0  0  0  0  0  0  0  0  0  0
    3.3559    0.5371   -1.7211 H   0  0  0  0  0  0  0  0  0  0  0  0
    2.1770    1.2350   -0.5685 H   0  0  0  0  0  0  0  0  0  0  0  0
   -0.9035    1.9454   -2.2845 H   0  0  0  0  0  0  0  0  0  0  0  0
   -0.6617    4.0386   -3.5132 H   0  0  0  0  0  0  0  0  0  0  0  0
   -1.4741    6.1660   -2.5519 H   0  0  0  0  0  0  0  0  0  0  0  0
   -2.5414    6.2020   -0.3304 H   0  0  0  0  0  0  0  0  0  0  0  0
   -3.2908    5.0256    1.6801 H   0  0  0  0  0  0  0  0  0  0  0  0
   -3.5739    2.9536    2.9553 H   0  0  0  0  0  0  0  0  0  0  0  0
   -2.8066    0.6023    3.2777 H   0  0  0  0  0  0  0  0  0  0  0  0
   -4.0964    0.0356   -0.1456 H   0  0  0  0  0  0  0  0  0  0  0  0
   -4.9404   -2.1255   -0.9400 H   0  0  0  0  0  0  0  0  0  0  0  0
   -4.6957   -4.1566    0.4558 H   0  0  0  0  0  0  0  0  0  0  0  0
   -3.5939   -4.0142    2.6705 H   0  0  0  0  0  0  0  0  0  0  0  0
   -2.7371   -1.8492    3.4976 H   0  0  0  0  0  0  0  0  0  0  0  0
   -0.1387   -4.4626   -2.3945 H   0  0  0  0  0  0  0  0  0  0  0  0
    2.0093   -5.5634   -3.0692 H   0  0  0  0  0  0  0  0  0  0  0  0
    4.1711   -4.3484   -2.8120 H   0  0  0  0  0  0  0  0  0  0  0  0
    4.2022   -2.0259   -1.8792 H   0  0  0  0  0  0  0  0  0  0  0  0
    2.9456   -1.9528    0.8548 H   0  0  0  0  0  0  0  0  0  0  0  0
    4.4387   -2.2431    2.7799 H   0  0  0  0  0  0  0  0  0  0  0  0
    5.9890   -0.4319    3.4511 H   0  0  0  0  0  0  0  0  0  0  0  0
    6.0477    1.6875    2.1709 H   0  0  0  0  0  0  0  0  0  0  0  0
    4.5709    2.0027    0.2203 H   0  0  0  0  0  0  0  0  0  0  0  0
  1 36  1  0  0  0  0
  1 37  1  0  0  0  0
  2  1  1  0  0  0  0
  3  2  1  0  0  0  0
  4  3  1  0  0  0  0
  5  4  2  0  0  0  0
  6  5  1  0  0  0  0
  7  6  2  0  0  0  0
  8  7  1  0  0  0  0
  8 38  1  0  0  0  0
  9  8  2  0  0  0  0
  9 39  1  0  0  0  0
 10  9  1  0  0  0  0
 10 40  1  0  0  0  0
 11 10  2  0  0  0  0
 11 41  1  0  0  0  0
 12 11  1  0  0  0  0
 12  7  1  0  0  0  0
 13 12  2  0  0  0  0
 13 42  1  0  0  0  0
 14 13  1  0  0  0  0
 14 43  1  0  0  0  0
 15 14  2  0  0  0  0
 15  6  1  0  0  0  0
 16 15  1  0  0  0  0
 16 44  1  0  0  0  0
 17 16  1  0  0  0  0
 18 17  2  0  0  0  0
 18 45  1  0  0  0  0
 19 18  1  0  0  0  0
 19 46  1  0  0  0  0
 20 19  2  0  0  0  0
 20 47  1  0  0  0  0
 21 20  1  0  0  0  0
 21 48  1  0  0  0  0
 22 21  2  0  0  0  0
 22 17  1  0  0  0  0
 22 49  1  0  0  0  0
 23  3  2  0  0  0  0
 24 23  1  0  0  0  0
 25 24  2  0  0  0  0
 25 50  1  0  0  0  0
 26 25  1  0  0  0  0
 26 51  1  0  0  0  0
 27 26  2  0  0  0  0
 27 52  1  0  0  0  0
 28 27  1  0  0  0  0
 28 53  1  0  0  0  0
 29 28  2  0  0  0  0
 29  2  1  0  0  0  0
 29 24  1  0  0  0  0
 30  1  1  0  0  0  0
 31 30  2  0  0  0  0
 31 54  1  0  0  0  0
 32 31  1  0  0  0  0
 32 55  1  0  0  0  0
 33 32  2  0  0  0  0
 33 56  1  0  0  0  0
 34 33  1  0  0  0  0
 34 57  1  0  0  0  0
 35 34  2  0  0  0  0
 35 30  1  0  0  0  0
 35 58  1  0  0  0  0
M  END
>  <MOL Chiral Flag>
0

>  <energy>
117.99110915022163

$$$$
> 374_AKC_ajtmh.15-0448
>359.sdf
 OpenBabel10062213003D

 60 64  0  0  0  0  0  0  0  0999 V2000
    2.5008   -4.0774   -0.5426 C   0  0  0  0  0  0  0  0  0  0  0  0
    2.6664   -2.6391   -0.1497 C   0  0  0  0  0  0  0  0  0  0  0  0
    2.3797   -2.2127    1.1570 C   0  0  0  0  0  0  0  0  0  0  0  0
    2.5367   -0.8676    1.5104 C   0  0  0  0  0  0  0  0  0  0  0  0
    2.9756    0.0662    0.5597 C   0  0  0  0  0  0  0  0  0  0  0  0
    3.1633    1.5168    0.9236 C   0  0  0  0  0  0  0  0  0  0  0  0
    2.4403    2.3960   -0.0208 N   0  0  0  0  0  0  0  0  0  0  0  0
    3.0623    3.2347   -0.8884 C   0  0  0  0  0  0  0  0  0  0  0  0
    4.4312    3.5001   -1.0664 C   0  0  0  0  0  0  0  0  0  0  0  0
    4.8039    4.4335   -2.0525 C   0  0  0  0  0  0  0  0  0  0  0  0
    3.8209    5.0740   -2.8380 C   0  0  0  0  0  0  0  0  0  0  0  0
    2.4605    4.7829   -2.6415 C   0  0  0  0  0  0  0  0  0  0  0  0
    2.1277    3.8581   -1.6567 C   0  0  0  0  0  0  0  0  0  0  0  0
    0.9024    3.4491   -1.3128 N   0  0  0  0  0  0  0  0  0  0  0  0
    1.0951    2.5618   -0.2999 C   0  0  0  0  0  0  0  0  0  0  0  0
   -0.0441    1.9628    0.3627 N   0  0  0  0  0  0  0  0  0  0  0  0
   -0.0321    1.4299    1.7193 C   0  0  0  0  0  0  0  0  0  0  0  0
   -0.6774    0.0382    1.7481 C   0  0  0  0  0  0  0  0  0  0  0  0
   -2.0939    0.1100    1.1503 C   0  0  0  0  0  0  0  0  0  0  0  0
   -2.0075    0.6415   -0.2932 C   0  0  0  0  0  0  0  0  0  0  0  0
   -1.3568    2.0341   -0.2795 C   0  0  0  0  0  0  0  0  0  0  0  0
   -2.7706   -1.2421    1.2163 C   0  0  0  0  0  0  0  0  0  0  0  0
   -2.2695   -2.1991    0.6410 O   0  0  0  0  0  0  0  0  0  0  0  0
   -3.9230   -1.3911    1.9318 N   0  0  0  0  0  0  0  0  0  0  0  0
   -4.6003   -2.6664    2.0761 C   0  0  0  0  0  0  0  0  0  0  0  0
   -5.0774   -3.1869    0.7561 C   0  0  0  0  0  0  0  0  0  0  0  0
   -5.9627   -2.5569   -0.1212 C   0  0  0  0  0  0  0  0  0  0  0  0
   -6.2243   -3.3206   -1.2928 C   0  0  0  0  0  0  0  0  0  0  0  0
   -5.5457   -4.5436   -1.3273 C   0  0  0  0  0  0  0  0  0  0  0  0
   -4.6582   -4.6357    0.0703 S   0  0  0  0  0  0  0  0  0  0  0  0
    3.2735   -0.3670   -0.7435 C   0  0  0  0  0  0  0  0  0  0  0  0
    3.1163   -1.7091   -1.0960 C   0  0  0  0  0  0  0  0  0  0  0  0
    2.1393   -4.6953    0.3065 H   0  0  0  0  0  0  0  0  0  0  0  0
    3.4755   -4.4854   -0.8842 H   0  0  0  0  0  0  0  0  0  0  0  0
    1.7656   -4.1550   -1.3713 H   0  0  0  0  0  0  0  0  0  0  0  0
    2.0355   -2.9201    1.9009 H   0  0  0  0  0  0  0  0  0  0  0  0
    2.3161   -0.5568    2.5234 H   0  0  0  0  0  0  0  0  0  0  0  0
    4.2517    1.6876    0.8596 H   0  0  0  0  0  0  0  0  0  0  0  0
    2.9334    1.7604    1.9760 H   0  0  0  0  0  0  0  0  0  0  0  0
    5.1999    3.0249   -0.4778 H   0  0  0  0  0  0  0  0  0  0  0  0
    5.8502    4.6622   -2.2087 H   0  0  0  0  0  0  0  0  0  0  0  0
    4.1160    5.7910   -3.5931 H   0  0  0  0  0  0  0  0  0  0  0  0
    1.6960    5.2658   -3.2362 H   0  0  0  0  0  0  0  0  0  0  0  0
   -0.6478    2.0994    2.3598 H   0  0  0  0  0  0  0  0  0  0  0  0
    0.9465    1.4047    2.1842 H   0  0  0  0  0  0  0  0  0  0  0  0
   -0.7240   -0.3213    2.7994 H   0  0  0  0  0  0  0  0  0  0  0  0
   -0.0678   -0.6726    1.1543 H   0  0  0  0  0  0  0  0  0  0  0  0
   -2.6916    0.8341    1.7490 H   0  0  0  0  0  0  0  0  0  0  0  0
   -3.0250    0.7145   -0.7350 H   0  0  0  0  0  0  0  0  0  0  0  0
   -1.3987   -0.0481   -0.9201 H   0  0  0  0  0  0  0  0  0  0  0  0
   -2.0075    2.7238    0.3016 H   0  0  0  0  0  0  0  0  0  0  0  0
   -1.3044    2.4169   -1.3205 H   0  0  0  0  0  0  0  0  0  0  0  0
   -4.3263   -0.5739    2.4148 H   0  0  0  0  0  0  0  0  0  0  0  0
   -5.4852   -2.5372    2.7364 H   0  0  0  0  0  0  0  0  0  0  0  0
   -3.9160   -3.3988    2.5559 H   0  0  0  0  0  0  0  0  0  0  0  0
   -6.4057   -1.5881    0.0689 H   0  0  0  0  0  0  0  0  0  0  0  0
   -6.8860   -2.9886   -2.0814 H   0  0  0  0  0  0  0  0  0  0  0  0
   -5.5938   -5.2842   -2.1138 H   0  0  0  0  0  0  0  0  0  0  0  0
    3.6254    0.3380   -1.4866 H   0  0  0  0  0  0  0  0  0  0  0  0
    3.3460   -2.0258   -2.1062 H   0  0  0  0  0  0  0  0  0  0  0  0
  1 33  1  0  0  0  0
  1 34  1  0  0  0  0
  1 35  1  0  0  0  0
  2  1  1  0  0  0  0
  3  2  2  0  0  0  0
  3 36  1  0  0  0  0
  4  3  1  0  0  0  0
  4 37  1  0  0  0  0
  5  4  2  0  0  0  0
  6  5  1  0  0  0  0
  6 38  1  0  0  0  0
  6 39  1  0  0  0  0
  7  6  1  0  0  0  0
  8  7  1  0  0  0  0
  9  8  2  0  0  0  0
  9 40  1  0  0  0  0
 10  9  1  0  0  0  0
 10 41  1  0  0  0  0
 11 10  2  0  0  0  0
 11 42  1  0  0  0  0
 12 11  1  0  0  0  0
 12 43  1  0  0  0  0
 13 12  2  0  0  0  0
 13  8  1  0  0  0  0
 14 13  1  0  0  0  0
 15 14  2  0  0  0  0
 15  7  1  0  0  0  0
 16 15  1  0  0  0  0
 17 16  1  0  0  0  0
 17 44  1  0  0  0  0
 17 45  1  0  0  0  0
 18 17  1  0  0  0  0
 18 46  1  0  0  0  0
 18 47  1  0  0  0  0
 19 18  1  0  0  0  0
 19 48  1  0  0  0  0
 20 19  1  0  0  0  0
 20 49  1  0  0  0  0
 20 50  1  0  0  0  0
 21 20  1  0  0  0  0
 21 16  1  0  0  0  0
 21 51  1  0  0  0  0
 21 52  1  0  0  0  0
 22 19  1  0  0  0  0
 23 22  2  0  0  0  0
 24 22  1  0  0  0  0
 24 53  1  0  0  0  0
 25 24  1  0  0  0  0
 25 54  1  0  0  0  0
 25 55  1  0  0  0  0
 26 25  1  0  0  0  0
 27 26  2  0  0  0  0
 27 56  1  0  0  0  0
 28 27  1  0  0  0  0
 28 57  1  0  0  0  0
 29 28  2  0  0  0  0
 29 58  1  0  0  0  0
 30 29  1  0  0  0  0
 30 26  1  0  0  0  0
 31  5  1  0  0  0  0
 31 59  1  0  0  0  0
 32 31  2  0  0  0  0
 32  2  1  0  0  0  0
 32 60  1  0  0  0  0
M  END
>  <MOL Chiral Flag>
0

>  <energy>
2.9194282038028092

$$$$
> 375_AKC_s11745-015-4114-9
>360.sdf
 OpenBabel10062213013D

 82 81  0  0  0  0  0  0  0  0999 V2000
    2.2263    4.4960   -5.6738 C   0  0  0  0  0  0  0  0  0  0  0  0
    2.8826    3.8168   -4.6218 O   0  0  0  0  0  0  0  0  0  0  0  0
    4.2896    4.0131   -4.6622 C   0  0  1  0  0  0  0  0  0  0  0  0
    4.9317    3.1828   -3.5268 C   0  0  0  0  0  0  0  0  0  0  0  0
    4.6943    3.6611   -2.0768 C   0  0  0  0  0  0  0  0  0  0  0  0
    3.2602    3.9230   -1.6685 C   0  0  0  0  0  0  0  0  0  0  0  0
    2.5470    3.2741   -0.7108 C   0  0  0  0  0  0  0  0  0  0  0  0
    2.9702    2.0146    0.0533 C   0  0  0  0  0  0  0  0  0  0  0  0
    2.0839    1.6014    1.3016 C   0  0  0  0  0  0  0  0  0  0  0  0
    0.5793    1.9093    1.2520 C   0  0  0  0  0  0  0  0  0  0  0  0
   -0.5585    1.1975    1.5567 C   0  0  0  0  0  0  0  0  0  0  0  0
   -0.8462   -0.2287    2.0742 C   0  0  0  0  0  0  0  0  0  0  0  0
   -2.1589   -0.8777    1.4226 C   0  0  0  0  0  0  0  0  0  0  0  0
   -3.1930   -1.6292    2.3904 C   0  0  0  0  0  0  0  0  0  0  0  0
   -4.5382   -2.2036    1.7130 C   0  0  0  0  0  0  0  0  0  0  0  0
   -5.6962   -2.8054    2.6688 C   0  0  0  0  0  0  0  0  0  0  0  0
   -7.1119   -3.2472    2.0048 C   0  0  0  0  0  0  0  0  0  0  0  0
   -8.1685   -4.1180    2.8854 C   0  0  0  0  0  0  0  0  0  0  0  0
   -9.6758   -4.3694    2.3218 C   0  0  0  0  0  0  0  0  0  0  0  0
  -10.7319   -5.2583    3.1902 C   0  0  0  0  0  0  0  0  0  0  0  0
  -12.2571   -5.3932    2.6490 C   0  0  0  0  0  0  0  0  0  0  0  0
  -13.4171   -6.1204    3.5315 C   0  0  0  0  0  0  0  0  0  0  0  0
  -14.8769   -6.0923    2.8577 C   0  0  0  0  0  0  0  0  0  0  0  0
  -16.2981   -6.4123    3.5590 C   0  0  0  0  0  0  0  0  0  0  0  0
  -16.7807   -7.8764    3.8688 C   0  0  0  0  0  0  0  0  0  0  0  0
  -18.3219   -8.1312    4.2086 C   0  0  0  0  0  0  0  0  0  0  0  0
  -19.2936   -7.8900    3.0320 C   0  0  0  0  0  0  0  0  0  0  0  0
  -18.8707   -7.3948    5.4449 C   0  0  0  0  0  0  0  0  0  0  0  0
    4.8752    3.5366   -5.9792 C   0  0  0  0  0  0  0  0  0  0  0  0
    4.7291    2.2583   -6.3699 O   0  0  0  0  0  0  0  0  0  0  0  0
    5.4805    4.3228   -6.6991 O   0  0  0  0  0  0  0  0  0  0  0  0
    2.3197    3.9278   -6.6258 H   0  0  0  0  0  0  0  0  0  0  0  0
    2.5820    5.5429   -5.7938 H   0  0  0  0  0  0  0  0  0  0  0  0
    1.1447    4.5467   -5.4339 H   0  0  0  0  0  0  0  0  0  0  0  0
    4.5419    5.0877   -4.5078 H   0  0  0  0  0  0  0  0  0  0  0  0
    6.0379    3.1947   -3.6668 H   0  0  0  0  0  0  0  0  0  0  0  0
    4.5896    2.1312   -3.6238 H   0  0  0  0  0  0  0  0  0  0  0  0
    5.2270    4.6309   -1.9448 H   0  0  0  0  0  0  0  0  0  0  0  0
    5.1828    2.9309   -1.4025 H   0  0  0  0  0  0  0  0  0  0  0  0
    2.7770    4.7663   -2.1568 H   0  0  0  0  0  0  0  0  0  0  0  0
    1.5700    3.6834   -0.5208 H   0  0  0  0  0  0  0  0  0  0  0  0
    2.9849    1.1944   -0.6921 H   0  0  0  0  0  0  0  0  0  0  0  0
    4.0135    2.1350    0.4283 H   0  0  0  0  0  0  0  0  0  0  0  0
    2.4520    2.2613    2.1208 H   0  0  0  0  0  0  0  0  0  0  0  0
    2.3171    0.5619    1.6142 H   0  0  0  0  0  0  0  0  0  0  0  0
    0.3747    2.9447    1.0154 H   0  0  0  0  0  0  0  0  0  0  0  0
   -1.4583    1.8010    1.5006 H   0  0  0  0  0  0  0  0  0  0  0  0
   -1.1032   -0.0465    3.1378 H   0  0  0  0  0  0  0  0  0  0  0  0
    0.0419   -0.9004    2.0855 H   0  0  0  0  0  0  0  0  0  0  0  0
   -2.7542   -0.0504    0.9845 H   0  0  0  0  0  0  0  0  0  0  0  0
   -1.8371   -1.5188    0.5741 H   0  0  0  0  0  0  0  0  0  0  0  0
   -2.6641   -2.4456    2.9256 H   0  0  0  0  0  0  0  0  0  0  0  0
   -3.5000   -0.8726    3.1447 H   0  0  0  0  0  0  0  0  0  0  0  0
   -4.2285   -3.0046    1.0064 H   0  0  0  0  0  0  0  0  0  0  0  0
   -4.9790   -1.3786    1.1182 H   0  0  0  0  0  0  0  0  0  0  0  0
   -5.2559   -3.6747    3.1965 H   0  0  0  0  0  0  0  0  0  0  0  0
   -5.9322   -2.0324    3.4336 H   0  0  0  0  0  0  0  0  0  0  0  0
   -6.8959   -3.8340    1.0882 H   0  0  0  0  0  0  0  0  0  0  0  0
   -7.6100   -2.3060    1.6854 H   0  0  0  0  0  0  0  0  0  0  0  0
   -8.2738   -3.6256    3.8726 H   0  0  0  0  0  0  0  0  0  0  0  0
   -7.6940   -5.1097    3.0510 H   0  0  0  0  0  0  0  0  0  0  0  0
   -9.5975   -4.8275    1.3130 H   0  0  0  0  0  0  0  0  0  0  0  0
  -10.1316   -3.3647    2.1993 H   0  0  0  0  0  0  0  0  0  0  0  0
  -10.3189   -6.2853    3.2957 H   0  0  0  0  0  0  0  0  0  0  0  0
  -10.7843   -4.8084    4.2018 H   0  0  0  0  0  0  0  0  0  0  0  0
  -12.6176   -4.3573    2.4815 H   0  0  0  0  0  0  0  0  0  0  0  0
  -12.2225   -5.8987    1.6602 H   0  0  0  0  0  0  0  0  0  0  0  0
  -13.4850   -5.5807    4.4988 H   0  0  0  0  0  0  0  0  0  0  0  0
  -13.1439   -7.1765    3.7449 H   0  0  0  0  0  0  0  0  0  0  0  0
  -15.0004   -5.0296    2.5636 H   0  0  0  0  0  0  0  0  0  0  0  0
  -14.8368   -6.6852    1.9192 H   0  0  0  0  0  0  0  0  0  0  0  0
  -17.0488   -6.0498    2.8225 H   0  0  0  0  0  0  0  0  0  0  0  0
  -16.4274   -5.7916    4.4708 H   0  0  0  0  0  0  0  0  0  0  0  0
  -16.5742   -8.5065    2.9784 H   0  0  0  0  0  0  0  0  0  0  0  0
  -16.1778   -8.2701    4.7124 H   0  0  0  0  0  0  0  0  0  0  0  0
  -18.4142   -9.2186    4.4377 H   0  0  0  0  0  0  0  0  0  0  0  0
  -19.0126   -8.5044    2.1525 H   0  0  0  0  0  0  0  0  0  0  0  0
  -19.3421   -6.8205    2.7448 H   0  0  0  0  0  0  0  0  0  0  0  0
  -20.3288   -8.2032    3.3170 H   0  0  0  0  0  0  0  0  0  0  0  0
  -19.9220   -7.7218    5.6453 H   0  0  0  0  0  0  0  0  0  0  0  0
  -18.2827   -7.6400    6.3507 H   0  0  0  0  0  0  0  0  0  0  0  0
  -18.8941   -6.2973    5.2868 H   0  0  0  0  0  0  0  0  0  0  0  0
  1 32  1  0  0  0  0
  1 33  1  0  0  0  0
  1 34  1  0  0  0  0
  2  1  1  0  0  0  0
  3  2  1  0  0  0  0
  3 35  1  1  0  0  0
  4  3  1  0  0  0  0
  4 36  1  0  0  0  0
  4 37  1  0  0  0  0
  5  4  1  0  0  0  0
  5 38  1  0  0  0  0
  5 39  1  0  0  0  0
  6  5  1  0  0  0  0
  6 40  1  0  0  0  0
  7  6  2  0  0  0  0
  7 41  1  0  0  0  0
  8  7  1  0  0  0  0
  8 42  1  0  0  0  0
  8 43  1  0  0  0  0
  9  8  1  0  0  0  0
  9 44  1  0  0  0  0
  9 45  1  0  0  0  0
 10  9  1  0  0  0  0
 10 46  1  0  0  0  0
 11 10  2  0  0  0  0
 11 47  1  0  0  0  0
 12 11  1  0  0  0  0
 12 48  1  0  0  0  0
 12 49  1  0  0  0  0
 13 12  1  0  0  0  0
 13 50  1  0  0  0  0
 13 51  1  0  0  0  0
 14 13  1  0  0  0  0
 14 52  1  0  0  0  0
 14 53  1  0  0  0  0
 15 14  1  0  0  0  0
 15 54  1  0  0  0  0
 15 55  1  0  0  0  0
 16 15  1  0  0  0  0
 16 56  1  0  0  0  0
 16 57  1  0  0  0  0
 17 16  1  0  0  0  0
 17 58  1  0  0  0  0
 17 59  1  0  0  0  0
 18 17  1  0  0  0  0
 18 60  1  0  0  0  0
 18 61  1  0  0  0  0
 19 18  1  0  0  0  0
 19 62  1  0  0  0  0
 19 63  1  0  0  0  0
 20 19  1  0  0  0  0
 20 64  1  0  0  0  0
 20 65  1  0  0  0  0
 21 20  1  0  0  0  0
 21 66  1  0  0  0  0
 21 67  1  0  0  0  0
 22 21  1  0  0  0  0
 22 68  1  0  0  0  0
 22 69  1  0  0  0  0
 23 22  1  0  0  0  0
 23 70  1  0  0  0  0
 23 71  1  0  0  0  0
 24 23  1  0  0  0  0
 24 72  1  0  0  0  0
 24 73  1  0  0  0  0
 25 24  1  0  0  0  0
 25 74  1  0  0  0  0
 25 75  1  0  0  0  0
 26 25  1  0  0  0  0
 26 76  1  0  0  0  0
 27 26  1  0  0  0  0
 27 77  1  0  0  0  0
 27 78  1  0  0  0  0
 27 79  1  0  0  0  0
 28 26  1  0  0  0  0
 28 80  1  0  0  0  0
 28 81  1  0  0  0  0
 28 82  1  0  0  0  0
 29  3  1  0  0  0  0
 30 29  1  0  0  0  0
 31 29  2  0  0  0  0
M  END
>  <MOL Chiral Flag>
0

>  <energy>
59.717492512407745

$$$$
> 376_AKC_s11745-015-4114-9
>361.sdf
 OpenBabel10062213013D

 82 81  0  0  0  0  0  0  0  0999 V2000
  -15.1556    0.4400    2.1468 C   0  0  0  0  0  0  0  0  0  0  0  0
  -14.9762    0.5703    3.6600 C   0  0  0  0  0  0  0  0  0  0  0  0
  -13.9979   -0.4414    4.3128 C   0  0  1  0  0  0  0  0  0  0  0  0
  -14.3435   -1.8922    3.9352 C   0  0  0  0  0  0  0  0  0  0  0  0
  -12.4589   -0.1153    4.2390 C   0  0  0  0  0  0  0  0  0  0  0  0
  -11.6590    0.0513    2.8992 C   0  0  0  0  0  0  0  0  0  0  0  0
  -10.1134    0.1619    3.2124 C   0  0  0  0  0  0  0  0  0  0  0  0
   -9.0647    0.4194    2.0484 C   0  0  0  0  0  0  0  0  0  0  0  0
   -7.5855    0.1884    2.5703 C   0  0  0  0  0  0  0  0  0  0  0  0
   -6.2660    0.1651    1.6582 C   0  0  0  0  0  0  0  0  0  0  0  0
   -5.3528    1.4503    1.5258 C   0  0  0  0  0  0  0  0  0  0  0  0
   -3.7792    1.2265    1.2324 C   0  0  0  0  0  0  0  0  0  0  0  0
   -3.2556    0.8518   -0.2122 C   0  0  0  0  0  0  0  0  0  0  0  0
   -1.7251    0.3717   -0.4278 C   0  0  0  0  0  0  0  0  0  0  0  0
   -0.5056    1.3657   -0.2868 C   0  0  0  0  0  0  0  0  0  0  0  0
    1.0218    0.8215   -0.3014 C   0  0  0  0  0  0  0  0  0  0  0  0
    2.0580    0.7851   -1.5354 C   0  0  0  0  0  0  0  0  0  0  0  0
    2.1295   -0.3832   -2.5456 C   0  0  0  0  0  0  0  0  0  0  0  0
    3.2439   -1.0767   -3.0352 C   0  0  0  0  0  0  0  0  0  0  0  0
    4.7634   -0.9300   -2.7187 C   0  0  0  0  0  0  0  0  0  0  0  0
    5.7419   -1.8818   -3.5738 C   0  0  0  0  0  0  0  0  0  0  0  0
    7.2282   -1.7205   -3.1802 C   0  0  0  0  0  0  0  0  0  0  0  0
    8.3824   -2.3277   -3.6427 C   0  0  0  0  0  0  0  0  0  0  0  0
    8.6600   -3.3889   -4.7376 C   0  0  0  0  0  0  0  0  0  0  0  0
   10.2049   -3.7277   -4.7336 C   0  0  0  0  0  0  0  0  0  0  0  0
   10.7904   -4.7959   -5.7125 C   0  0  2  0  0  0  0  0  0  0  0  0
   12.1781   -4.9547   -5.4015 O   0  0  0  0  0  0  0  0  0  0  0  0
   12.5425   -6.3081   -5.2040 C   0  0  0  0  0  0  0  0  0  0  0  0
   10.7303   -4.3541   -7.1472 C   0  0  0  0  0  0  0  0  0  0  0  0
   11.3758   -3.2576   -7.5579 O   0  0  0  0  0  0  0  0  0  0  0  0
   10.1368   -5.0553   -7.9790 O   0  0  0  0  0  0  0  0  0  0  0  0
  -15.5781   -0.5555    1.8892 H   0  0  0  0  0  0  0  0  0  0  0  0
  -15.8915    1.1982    1.8017 H   0  0  0  0  0  0  0  0  0  0  0  0
  -14.2029    0.5886    1.6092 H   0  0  0  0  0  0  0  0  0  0  0  0
  -15.9890    0.3983    4.0959 H   0  0  0  0  0  0  0  0  0  0  0  0
  -14.6780    1.6046    3.9309 H   0  0  0  0  0  0  0  0  0  0  0  0
  -14.2235   -0.3722    5.4034 H   0  0  0  0  0  0  0  0  0  0  0  0
  -13.7615   -2.6021    4.5595 H   0  0  0  0  0  0  0  0  0  0  0  0
  -15.4228   -2.0892    4.1337 H   0  0  0  0  0  0  0  0  0  0  0  0
  -14.1317   -2.0991    2.8679 H   0  0  0  0  0  0  0  0  0  0  0  0
  -11.9696   -0.9239    4.8254 H   0  0  0  0  0  0  0  0  0  0  0  0
  -12.3105    0.8279    4.8087 H   0  0  0  0  0  0  0  0  0  0  0  0
  -11.8357   -0.8311    2.2479 H   0  0  0  0  0  0  0  0  0  0  0  0
  -12.0197    0.9637    2.3803 H   0  0  0  0  0  0  0  0  0  0  0  0
   -9.8532   -0.8072    3.6915 H   0  0  0  0  0  0  0  0  0  0  0  0
   -9.9663    0.9609    3.9711 H   0  0  0  0  0  0  0  0  0  0  0  0
   -9.2010    1.4450    1.6446 H   0  0  0  0  0  0  0  0  0  0  0  0
   -9.2622   -0.3124    1.2369 H   0  0  0  0  0  0  0  0  0  0  0  0
   -7.3972    0.8231    3.4630 H   0  0  0  0  0  0  0  0  0  0  0  0
   -7.6505   -0.8564    2.9484 H   0  0  0  0  0  0  0  0  0  0  0  0
   -6.4468   -0.3349    0.6847 H   0  0  0  0  0  0  0  0  0  0  0  0
   -5.6025   -0.5141    2.2348 H   0  0  0  0  0  0  0  0  0  0  0  0
   -5.8076    2.2068    0.8516 H   0  0  0  0  0  0  0  0  0  0  0  0
   -5.3685    1.8938    2.5470 H   0  0  0  0  0  0  0  0  0  0  0  0
   -3.2584    2.1701    1.5071 H   0  0  0  0  0  0  0  0  0  0  0  0
   -3.4326    0.4498    1.9457 H   0  0  0  0  0  0  0  0  0  0  0  0
   -3.8791   -0.0118   -0.5209 H   0  0  0  0  0  0  0  0  0  0  0  0
   -3.4856    1.6919   -0.9033 H   0  0  0  0  0  0  0  0  0  0  0  0
   -1.5565   -0.4679    0.2774 H   0  0  0  0  0  0  0  0  0  0  0  0
   -1.6575   -0.0291   -1.4597 H   0  0  0  0  0  0  0  0  0  0  0  0
   -0.6532    1.7783    0.7369 H   0  0  0  0  0  0  0  0  0  0  0  0
   -0.6026    2.2292   -0.9809 H   0  0  0  0  0  0  0  0  0  0  0  0
    1.1220   -0.0845    0.3294 H   0  0  0  0  0  0  0  0  0  0  0  0
    1.5052    1.6322    0.2923 H   0  0  0  0  0  0  0  0  0  0  0  0
    1.8908    1.7228   -2.1083 H   0  0  0  0  0  0  0  0  0  0  0  0
    3.0853    0.8663   -1.1129 H   0  0  0  0  0  0  0  0  0  0  0  0
    1.1766   -0.6531   -2.9854 H   0  0  0  0  0  0  0  0  0  0  0  0
    3.0239   -1.8306   -3.7839 H   0  0  0  0  0  0  0  0  0  0  0  0
    4.9179   -1.1457   -1.6404 H   0  0  0  0  0  0  0  0  0  0  0  0
    5.0691    0.1211   -2.9122 H   0  0  0  0  0  0  0  0  0  0  0  0
    5.6350   -1.6442   -4.6540 H   0  0  0  0  0  0  0  0  0  0  0  0
    5.4560   -2.9425   -3.4134 H   0  0  0  0  0  0  0  0  0  0  0  0
    7.3978   -1.0020   -2.3848 H   0  0  0  0  0  0  0  0  0  0  0  0
    9.2836   -1.9949   -3.1313 H   0  0  0  0  0  0  0  0  0  0  0  0
    8.3657   -3.0024   -5.7363 H   0  0  0  0  0  0  0  0  0  0  0  0
    8.0945   -4.3204   -4.5256 H   0  0  0  0  0  0  0  0  0  0  0  0
   10.4465   -4.1024   -3.7148 H   0  0  0  0  0  0  0  0  0  0  0  0
   10.7817   -2.7903   -4.8920 H   0  0  0  0  0  0  0  0  0  0  0  0
   10.2139   -5.7372   -5.5755 H   0  0  0  0  0  0  0  0  0  0  0  0
   12.0931   -6.9960   -5.9540 H   0  0  0  0  0  0  0  0  0  0  0  0
   13.6437   -6.4002   -5.3369 H   0  0  0  0  0  0  0  0  0  0  0  0
   12.3054   -6.6230   -4.1659 H   0  0  0  0  0  0  0  0  0  0  0  0
  1 32  1  0  0  0  0
  1 33  1  0  0  0  0
  1 34  1  0  0  0  0
  2  1  1  0  0  0  0
  2 35  1  0  0  0  0
  2 36  1  0  0  0  0
  3  2  1  0  0  0  0
  3 37  1  1  0  0  0
  4  3  1  0  0  0  0
  4 38  1  0  0  0  0
  4 39  1  0  0  0  0
  4 40  1  0  0  0  0
  5  3  1  0  0  0  0
  5 41  1  0  0  0  0
  5 42  1  0  0  0  0
  6  5  1  0  0  0  0
  6 43  1  0  0  0  0
  6 44  1  0  0  0  0
  7  6  1  0  0  0  0
  7 45  1  0  0  0  0
  7 46  1  0  0  0  0
  8  7  1  0  0  0  0
  8 47  1  0  0  0  0
  8 48  1  0  0  0  0
  9  8  1  0  0  0  0
  9 49  1  0  0  0  0
  9 50  1  0  0  0  0
 10  9  1  0  0  0  0
 10 51  1  0  0  0  0
 10 52  1  0  0  0  0
 11 10  1  0  0  0  0
 11 53  1  0  0  0  0
 11 54  1  0  0  0  0
 12 11  1  0  0  0  0
 12 55  1  0  0  0  0
 12 56  1  0  0  0  0
 13 12  1  0  0  0  0
 13 57  1  0  0  0  0
 13 58  1  0  0  0  0
 14 13  1  0  0  0  0
 14 59  1  0  0  0  0
 14 60  1  0  0  0  0
 15 14  1  0  0  0  0
 15 61  1  0  0  0  0
 15 62  1  0  0  0  0
 16 15  1  0  0  0  0
 16 63  1  0  0  0  0
 16 64  1  0  0  0  0
 17 16  1  0  0  0  0
 17 65  1  0  0  0  0
 17 66  1  0  0  0  0
 18 17  1  0  0  0  0
 18 67  1  0  0  0  0
 19 18  2  0  0  0  0
 19 68  1  0  0  0  0
 20 19  1  0  0  0  0
 20 69  1  0  0  0  0
 20 70  1  0  0  0  0
 21 20  1  0  0  0  0
 21 71  1  0  0  0  0
 21 72  1  0  0  0  0
 22 21  1  0  0  0  0
 22 73  1  0  0  0  0
 23 22  2  0  0  0  0
 23 74  1  0  0  0  0
 24 23  1  0  0  0  0
 24 75  1  0  0  0  0
 24 76  1  0  0  0  0
 25 24  1  0  0  0  0
 25 77  1  0  0  0  0
 25 78  1  0  0  0  0
 26 25  1  0  0  0  0
 26 79  1  1  0  0  0
 27 26  1  0  0  0  0
 28 27  1  0  0  0  0
 28 80  1  0  0  0  0
 28 81  1  0  0  0  0
 28 82  1  0  0  0  0
 29 26  1  0  0  0  0
 30 29  1  0  0  0  0
 31 29  2  0  0  0  0
M  END
>  <MOL Chiral Flag>
0

>  <energy>
70.03771195898824

$$$$
> 377_AKC_j.ejmech.2016.09.017
>362.sdf
 OpenBabel10062213013D

 37 41  0  0  0  0  0  0  0  0999 V2000
   -4.2713   -3.7127    3.4461 F   0  0  0  0  0  0  0  0  0  0  0  0
   -3.4778   -2.8180    2.8077 C   0  0  0  0  0  0  0  0  0  0  0  0
   -4.0461   -1.8551    1.9715 C   0  0  0  0  0  0  0  0  0  0  0  0
   -3.2328   -0.9215    1.3266 C   0  0  0  0  0  0  0  0  0  0  0  0
   -1.8368   -0.9626    1.4847 C   0  0  0  0  0  0  0  0  0  0  0  0
   -1.2702   -1.9386    2.3239 C   0  0  0  0  0  0  0  0  0  0  0  0
   -2.0923   -2.8540    2.9911 C   0  0  0  0  0  0  0  0  0  0  0  0
   -1.0110    0.0442    0.7838 C   0  0  0  0  0  0  0  0  0  0  0  0
   -1.4379    1.3417    0.7836 N   0  0  0  0  0  0  0  0  0  0  0  0
   -0.7554    2.3346    0.1501 C   0  0  0  0  0  0  0  0  0  0  0  0
   -1.2082    3.6526    0.2142 C   0  0  0  0  0  0  0  0  0  0  0  0
   -0.5042    4.6555   -0.4521 C   0  0  0  0  0  0  0  0  0  0  0  0
    0.6434    4.3252   -1.1818 C   0  0  0  0  0  0  0  0  0  0  0  0
    1.0766    3.0342   -1.2335 N   0  0  0  0  0  0  0  0  0  0  0  0
    0.4137    2.0409   -0.5830 C   0  0  0  0  0  0  0  0  0  0  0  0
    0.8455    0.7105   -0.6182 C   0  0  0  0  0  0  0  0  0  0  0  0
    0.1620   -0.2789    0.0685 C   0  0  0  0  0  0  0  0  0  0  0  0
    0.7949   -1.6408   -0.1457 C   0  0  0  0  0  0  0  0  0  0  0  0
    1.9256   -1.2575   -1.0649 C   0  0  0  0  0  0  0  0  0  0  0  0
    2.8662   -2.1150   -1.6384 C   0  0  0  0  0  0  0  0  0  0  0  0
    3.8446   -1.5743   -2.4883 C   0  0  0  0  0  0  0  0  0  0  0  0
    3.8697   -0.1906   -2.7501 C   0  0  0  0  0  0  0  0  0  0  0  0
    2.9157    0.6583   -2.1642 C   0  0  0  0  0  0  0  0  0  0  0  0
    1.9503    0.0975   -1.3212 C   0  0  0  0  0  0  0  0  0  0  0  0
   -5.1180   -1.8281    1.8234 H   0  0  0  0  0  0  0  0  0  0  0  0
   -3.6875   -0.1808    0.6795 H   0  0  0  0  0  0  0  0  0  0  0  0
   -0.2050   -1.9696    2.4971 H   0  0  0  0  0  0  0  0  0  0  0  0
   -1.6549   -3.5889    3.6544 H   0  0  0  0  0  0  0  0  0  0  0  0
   -2.0996    3.8978    0.7790 H   0  0  0  0  0  0  0  0  0  0  0  0
   -0.8470    5.6812   -0.4064 H   0  0  0  0  0  0  0  0  0  0  0  0
    1.1896    5.0975   -1.7054 H   0  0  0  0  0  0  0  0  0  0  0  0
    1.1904   -2.0840    0.7887 H   0  0  0  0  0  0  0  0  0  0  0  0
    0.0908   -2.3351   -0.6511 H   0  0  0  0  0  0  0  0  0  0  0  0
    2.8390   -3.1783   -1.4379 H   0  0  0  0  0  0  0  0  0  0  0  0
    4.5795   -2.2237   -2.9467 H   0  0  0  0  0  0  0  0  0  0  0  0
    4.6241    0.2190   -3.4096 H   0  0  0  0  0  0  0  0  0  0  0  0
    2.9345    1.7175   -2.3754 H   0  0  0  0  0  0  0  0  0  0  0  0
  2  1  1  0  0  0  0
  3  2  2  0  0  0  0
  3 25  1  0  0  0  0
  4  3  1  0  0  0  0
  4 26  1  0  0  0  0
  5  4  2  0  0  0  0
  6  5  1  0  0  0  0
  6 27  1  0  0  0  0
  7  6  2  0  0  0  0
  7  2  1  0  0  0  0
  7 28  1  0  0  0  0
  8  5  1  0  0  0  0
  9  8  2  0  0  0  0
 10  9  1  0  0  0  0
 11 10  2  0  0  0  0
 11 29  1  0  0  0  0
 12 11  1  0  0  0  0
 12 30  1  0  0  0  0
 13 12  2  0  0  0  0
 13 31  1  0  0  0  0
 14 13  1  0  0  0  0
 15 14  2  0  0  0  0
 15 10  1  0  0  0  0
 16 15  1  0  0  0  0
 17 16  2  0  0  0  0
 17  8  1  0  0  0  0
 18 17  1  0  0  0  0
 18 32  1  0  0  0  0
 18 33  1  0  0  0  0
 19 18  1  0  0  0  0
 20 19  2  0  0  0  0
 20 34  1  0  0  0  0
 21 20  1  0  0  0  0
 21 35  1  0  0  0  0
 22 21  2  0  0  0  0
 22 36  1  0  0  0  0
 23 22  1  0  0  0  0
 23 37  1  0  0  0  0
 24 23  2  0  0  0  0
 24 16  1  0  0  0  0
 24 19  1  0  0  0  0
M  END
>  <MOL Chiral Flag>
0

>  <energy>
106.70023458790062

$$$$
> 378_AKC_j.ejmech.2016.08.030
>363.sdf
 OpenBabel10062213023D

104110  0  0  0  0  0  0  0  0999 V2000
   -5.3785   -0.2146    2.9237 C   0  0  0  0  0  0  0  0  0  0  0  0
   -4.8155   -1.6266    2.6349 C   0  0  0  0  0  0  0  0  0  0  0  0
   -5.1512   -2.5150    3.8574 C   0  0  0  0  0  0  0  0  0  0  0  0
   -5.4650   -2.2541    1.3683 C   0  0  0  0  0  0  0  0  0  0  0  0
   -5.0632   -1.5147    0.0756 C   0  0  0  0  0  0  0  0  0  0  0  0
   -3.5213   -1.4470   -0.1465 C   0  0  2  0  0  0  0  0  0  0  0  0
   -2.9065   -2.8864   -0.3897 C   0  0  0  0  0  0  0  0  0  0  0  0
   -1.3613   -2.8800   -0.6081 C   0  0  0  0  0  0  0  0  0  0  0  0
   -0.4814   -2.1018    0.4585 C   0  0  2  0  0  0  0  0  0  0  0  0
   -0.3636   -3.0025    1.7226 C   0  0  0  0  0  0  0  0  0  0  0  0
   -1.3002   -0.8177    0.8153 C   0  0  0  0  0  0  0  0  0  0  0  0
   -0.7702    0.4221    0.7201 C   0  0  0  0  0  0  0  0  0  0  0  0
    0.6380    0.7249    0.3559 C   0  0  0  0  0  0  0  0  0  0  0  0
    1.5932   -0.4560    0.5870 C   0  0  2  0  0  0  0  0  0  0  0  0
    3.1361   -0.0620    0.3374 C   0  0  1  0  0  0  0  0  0  0  0  0
    3.4272    0.4067   -1.1320 C   0  0  0  0  0  0  0  0  0  0  0  0
    3.5120    1.1430    1.2602 C   0  0  0  0  0  0  0  0  0  0  0  0
    5.0227    1.4345    1.3070 C   0  0  0  0  0  0  0  0  0  0  0  0
    5.7867    0.2043    1.8158 C   0  0  2  0  0  0  0  0  0  0  0  0
    7.1527    0.5079    1.9742 O   0  0  0  0  0  0  0  0  0  0  0  0
    5.5553   -1.0979    0.9617 C   0  0  1  0  0  0  0  0  0  0  0  0
    6.3019   -1.0575   -0.3978 C   0  0  0  0  0  0  0  0  0  0  0  0
    6.1525   -2.2941    1.7779 C   0  0  0  0  0  0  0  0  0  0  0  0
    7.5269   -2.1178    2.0170 O   0  0  0  0  0  0  0  0  0  0  0  0
    3.9863   -1.3108    0.7993 C   0  0  2  0  0  0  0  0  0  0  0  0
    3.5628   -2.5635   -0.0315 C   0  0  0  0  0  0  0  0  0  0  0  0
    2.0787   -2.9018    0.2176 C   0  0  0  0  0  0  0  0  0  0  0  0
    1.0430   -1.7625   -0.1094 C   0  0  1  0  0  0  0  0  0  0  0  0
    1.0037   -1.6121   -1.6620 C   0  0  0  0  0  0  0  0  0  0  0  0
   -2.8208   -0.8871    1.1289 C   0  0  2  0  0  0  0  0  0  0  0  0
   -3.2738   -1.6066    2.4384 C   0  0  0  0  0  0  0  0  0  0  0  0
   -3.2397   -0.4420   -1.3118 C   0  0  0  0  0  0  0  0  0  0  0  0
   -2.6855   -0.8162   -2.3333 O   0  0  0  0  0  0  0  0  0  0  0  0
   -3.4897    0.8941   -1.1295 N   0  0  0  0  0  0  0  0  0  0  0  0
   -2.8445    1.9227   -1.8806 C   0  0  0  0  0  0  0  0  0  0  0  0
   -2.7736    3.2345   -1.4830 C   0  0  0  0  0  0  0  0  0  0  0  0
   -1.8669    3.8281   -2.2775 N   0  0  0  0  0  0  0  0  0  0  0  0
   -1.3088    5.1681   -2.0604 C   0  0  0  0  0  0  0  0  0  0  0  0
   -1.2013    6.0576   -3.2907 C   0  0  0  0  0  0  0  0  0  0  0  0
    0.0993    6.4560   -3.6739 C   0  0  0  0  0  0  0  0  0  0  0  0
    0.3051    7.3187   -4.7462 C   0  0  0  0  0  0  0  0  0  0  0  0
   -0.7767    7.8043   -5.4664 C   0  0  0  0  0  0  0  0  0  0  0  0
   -2.0738    7.4293   -5.1204 C   0  0  0  0  0  0  0  0  0  0  0  0
   -2.3225    6.5585   -4.0316 C   0  0  0  0  0  0  0  0  0  0  0  0
   -3.6849    6.2411   -3.7032 N   0  0  0  0  0  0  0  0  0  0  0  0
   -4.5768    6.6776   -4.3664 O   0  0  0  0  0  0  0  0  0  0  0  0
   -3.9497    5.5760   -2.7506 O   0  0  0  0  0  0  0  0  0  0  0  0
   -1.4134    2.9255   -3.1379 N   0  0  0  0  0  0  0  0  0  0  0  0
   -1.9961    1.7491   -2.9170 N   0  0  0  0  0  0  0  0  0  0  0  0
   -4.9156    0.2015    3.8445 H   0  0  0  0  0  0  0  0  0  0  0  0
   -6.4770   -0.2684    3.0856 H   0  0  0  0  0  0  0  0  0  0  0  0
   -5.2012    0.5075    2.1061 H   0  0  0  0  0  0  0  0  0  0  0  0
   -4.7754   -3.5519    3.7125 H   0  0  0  0  0  0  0  0  0  0  0  0
   -6.2492   -2.5733    4.0178 H   0  0  0  0  0  0  0  0  0  0  0  0
   -4.6818   -2.1102    4.7802 H   0  0  0  0  0  0  0  0  0  0  0  0
   -6.5726   -2.2547    1.4676 H   0  0  0  0  0  0  0  0  0  0  0  0
   -5.1564   -3.3168    1.2781 H   0  0  0  0  0  0  0  0  0  0  0  0
   -5.5454   -2.0016   -0.7994 H   0  0  0  0  0  0  0  0  0  0  0  0
   -5.4854   -0.4922    0.1367 H   0  0  0  0  0  0  0  0  0  0  0  0
   -3.3893   -3.3506   -1.2774 H   0  0  0  0  0  0  0  0  0  0  0  0
   -3.1132   -3.5626    0.4583 H   0  0  0  0  0  0  0  0  0  0  0  0
   -1.2881   -2.3979   -1.5797 H   0  0  0  0  0  0  0  0  0  0  0  0
   -0.9758   -3.9111   -0.7616 H   0  0  0  0  0  0  0  0  0  0  0  0
    0.1615   -2.4764    2.5472 H   0  0  0  0  0  0  0  0  0  0  0  0
   -1.2802   -3.4249    2.1040 H   0  0  0  0  0  0  0  0  0  0  0  0
    0.1508   -3.9545    1.4863 H   0  0  0  0  0  0  0  0  0  0  0  0
   -1.4074    1.2889    0.8735 H   0  0  0  0  0  0  0  0  0  0  0  0
    0.9294    1.5533    1.0275 H   0  0  0  0  0  0  0  0  0  0  0  0
    0.6395    1.1150   -0.6807 H   0  0  0  0  0  0  0  0  0  0  0  0
    1.5211   -0.6706    1.6782 H   0  0  0  0  0  0  0  0  0  0  0  0
    2.6622    1.1163   -1.4971 H   0  0  0  0  0  0  0  0  0  0  0  0
    4.3518    0.9766   -1.2548 H   0  0  0  0  0  0  0  0  0  0  0  0
    3.5843   -0.3942   -1.8593 H   0  0  0  0  0  0  0  0  0  0  0  0
    3.0087    2.0750    0.9268 H   0  0  0  0  0  0  0  0  0  0  0  0
    3.1832    0.9278    2.3006 H   0  0  0  0  0  0  0  0  0  0  0  0
    5.4271    1.7622    0.3318 H   0  0  0  0  0  0  0  0  0  0  0  0
    5.1932    2.2829    2.0049 H   0  0  0  0  0  0  0  0  0  0  0  0
    5.3779    0.0191    2.8347 H   0  0  0  0  0  0  0  0  0  0  0  0
    7.4813    0.9099    1.1280 H   0  0  0  0  0  0  0  0  0  0  0  0
    6.0323   -0.2122   -1.0384 H   0  0  0  0  0  0  0  0  0  0  0  0
    6.1268   -1.9955   -0.9651 H   0  0  0  0  0  0  0  0  0  0  0  0
    7.3984   -0.9782   -0.2463 H   0  0  0  0  0  0  0  0  0  0  0  0
    5.6040   -2.3748    2.7480 H   0  0  0  0  0  0  0  0  0  0  0  0
    6.0330   -3.2590    1.2500 H   0  0  0  0  0  0  0  0  0  0  0  0
    7.7103   -2.4285    2.9420 H   0  0  0  0  0  0  0  0  0  0  0  0
    3.6587   -1.5054    1.8475 H   0  0  0  0  0  0  0  0  0  0  0  0
    4.1252   -3.4571    0.2991 H   0  0  0  0  0  0  0  0  0  0  0  0
    3.7756   -2.4432   -1.1092 H   0  0  0  0  0  0  0  0  0  0  0  0
    2.0805   -3.1109    1.3062 H   0  0  0  0  0  0  0  0  0  0  0  0
    1.8031   -3.8405   -0.3108 H   0  0  0  0  0  0  0  0  0  0  0  0
    0.3138   -0.8057   -1.9844 H   0  0  0  0  0  0  0  0  0  0  0  0
    0.7134   -2.5711   -2.1386 H   0  0  0  0  0  0  0  0  0  0  0  0
    1.9542   -1.4646   -2.1528 H   0  0  0  0  0  0  0  0  0  0  0  0
   -3.1779    0.1386    1.3162 H   0  0  0  0  0  0  0  0  0  0  0  0
   -2.7721   -1.1463    3.3181 H   0  0  0  0  0  0  0  0  0  0  0  0
   -3.0302   -2.6604    2.4247 H   0  0  0  0  0  0  0  0  0  0  0  0
   -3.9967    1.2016   -0.2894 H   0  0  0  0  0  0  0  0  0  0  0  0
   -3.2517    3.6906   -0.6255 H   0  0  0  0  0  0  0  0  0  0  0  0
   -0.2923    5.0082   -1.6397 H   0  0  0  0  0  0  0  0  0  0  0  0
   -1.8770    5.7014   -1.2681 H   0  0  0  0  0  0  0  0  0  0  0  0
    0.9662    6.1068   -3.1257 H   0  0  0  0  0  0  0  0  0  0  0  0
    1.3110    7.6190   -5.0130 H   0  0  0  0  0  0  0  0  0  0  0  0
   -0.6111    8.4826   -6.2940 H   0  0  0  0  0  0  0  0  0  0  0  0
   -2.8934    7.8362   -5.6984 H   0  0  0  0  0  0  0  0  0  0  0  0
  1 50  1  0  0  0  0
  1 51  1  0  0  0  0
  1 52  1  0  0  0  0
  2  1  1  0  0  0  0
  3  2  1  0  0  0  0
  3 53  1  0  0  0  0
  3 54  1  0  0  0  0
  3 55  1  0  0  0  0
  4  2  1  0  0  0  0
  4 56  1  0  0  0  0
  4 57  1  0  0  0  0
  5  4  1  0  0  0  0
  5 58  1  0  0  0  0
  5 59  1  0  0  0  0
  6  5  1  0  0  0  0
  6 32  1  6  0  0  0
  7  6  1  0  0  0  0
  7 60  1  0  0  0  0
  7 61  1  0  0  0  0
  8  7  1  0  0  0  0
  8 62  1  0  0  0  0
  8 63  1  0  0  0  0
  9  8  1  0  0  0  0
  9 10  1  1  0  0  0
 10 64  1  0  0  0  0
 10 65  1  0  0  0  0
 10 66  1  0  0  0  0
 11  9  1  0  0  0  0
 12 11  2  0  0  0  0
 12 67  1  0  0  0  0
 13 12  1  0  0  0  0
 13 68  1  0  0  0  0
 13 69  1  0  0  0  0
 14 13  1  0  0  0  0
 14 70  1  1  0  0  0
 15 14  1  0  0  0  0
 15 16  1  6  0  0  0
 16 71  1  0  0  0  0
 16 72  1  0  0  0  0
 16 73  1  0  0  0  0
 17 15  1  0  0  0  0
 17 74  1  0  0  0  0
 17 75  1  0  0  0  0
 18 17  1  0  0  0  0
 18 76  1  0  0  0  0
 18 77  1  0  0  0  0
 19 18  1  0  0  0  0
 19 78  1  1  0  0  0
 20 19  1  0  0  0  0
 20 79  1  0  0  0  0
 21 19  1  0  0  0  0
 21 22  1  6  0  0  0
 22 80  1  0  0  0  0
 22 81  1  0  0  0  0
 22 82  1  0  0  0  0
 23 21  1  0  0  0  0
 23 83  1  0  0  0  0
 23 84  1  0  0  0  0
 24 23  1  0  0  0  0
 24 85  1  0  0  0  0
 25 21  1  0  0  0  0
 25 15  1  0  0  0  0
 25 86  1  1  0  0  0
 26 25  1  0  0  0  0
 26 87  1  0  0  0  0
 26 88  1  0  0  0  0
 27 26  1  0  0  0  0
 27 89  1  0  0  0  0
 27 90  1  0  0  0  0
 28 27  1  0  0  0  0
 28  9  1  0  0  0  0
 28 14  1  0  0  0  0
 28 29  1  6  0  0  0
 29 91  1  0  0  0  0
 29 92  1  0  0  0  0
 29 93  1  0  0  0  0
 30 11  1  0  0  0  0
 30  6  1  0  0  0  0
 30 94  1  1  0  0  0
 31 30  1  0  0  0  0
 31  2  1  0  0  0  0
 31 95  1  0  0  0  0
 31 96  1  0  0  0  0
 33 32  2  0  0  0  0
 34 32  1  0  0  0  0
 34 97  1  0  0  0  0
 35 34  1  0  0  0  0
 36 35  2  0  0  0  0
 36 98  1  0  0  0  0
 37 36  1  0  0  0  0
 38 37  1  0  0  0  0
 38 99  1  0  0  0  0
 38100  1  0  0  0  0
 39 38  1  0  0  0  0
 40 39  2  0  0  0  0
 40101  1  0  0  0  0
 41 40  1  0  0  0  0
 41102  1  0  0  0  0
 42 41  2  0  0  0  0
 42103  1  0  0  0  0
 43 42  1  0  0  0  0
 43104  1  0  0  0  0
 44 43  2  0  0  0  0
 44 39  1  0  0  0  0
 45 44  1  0  0  0  0
 46 45  2  0  0  0  0
 47 45  2  0  0  0  0
 48 37  1  0  0  0  0
 49 48  2  0  0  0  0
 49 35  1  0  0  0  0
M  END
>  <MOL Chiral Flag>
0

>  <energy>
228.21237519532531

$$$$
> 379_AKC_j.ejmech.2016.08.014
>364.sdf
 OpenBabel10042216533D

 54 58  0  0  0  0  0  0  0  0999 V2000
    5.4583   -2.3281   -0.0279 O   0  5  0  0  0  0  0  0  0  0  0  0
    5.6061   -1.4272   -0.8676 N   0  3  0  0  0  0  0  0  0  0  0  0
    6.3384   -1.5027   -1.8621 O   0  0  0  0  0  0  0  0  0  0  0  0
    4.8451   -0.1892   -0.6698 C   0  0  0  0  0  0  0  0  0  0  0  0
    5.0187    0.8844   -1.5464 C   0  0  0  0  0  0  0  0  0  0  0  0
    4.2398    2.0284   -1.3751 C   0  0  0  0  0  0  0  0  0  0  0  0
    3.2754    2.0963   -0.3573 C   0  0  0  0  0  0  0  0  0  0  0  0
    3.0879    1.0097    0.5028 C   0  0  0  0  0  0  0  0  0  0  0  0
    2.0495    0.8848    1.4451 N   0  0  0  0  0  0  0  0  0  0  0  0
    0.9327    1.6995    1.6170 C   0  0  0  0  0  0  0  0  0  0  0  0
    0.8813    2.8901    1.3319 O   0  0  0  0  0  0  0  0  0  0  0  0
   -0.2141    0.8925    2.2693 C   0  0  0  0  0  0  0  0  0  0  0  0
   -1.5921    1.3045    1.9149 N   0  0  0  0  0  0  0  0  0  0  0  0
   -2.5560    0.5850    2.8105 C   0  0  0  0  0  0  0  0  0  0  0  0
   -2.6288   -0.9706    2.6569 C   0  0  0  0  0  0  0  0  0  0  0  0
   -2.5166   -1.3645    1.2192 C   0  0  0  0  0  0  0  0  0  0  0  0
   -2.2398   -0.4172    0.2560 C   0  0  0  0  0  0  0  0  0  0  0  0
   -2.3076   -1.0300   -0.9665 N   0  0  0  0  0  0  0  0  0  0  0  0
   -2.4777   -2.3856   -0.8023 C   0  0  0  0  0  0  0  0  0  0  0  0
   -2.5287   -3.3995   -1.7679 C   0  0  0  0  0  0  0  0  0  0  0  0
   -2.7207   -4.7065   -1.3207 C   0  0  0  0  0  0  0  0  0  0  0  0
   -2.8455   -4.9867    0.0379 C   0  0  0  0  0  0  0  0  0  0  0  0
   -2.7976   -3.9567    0.9906 C   0  0  0  0  0  0  0  0  0  0  0  0
   -2.6126   -2.6263    0.5668 C   0  0  0  0  0  0  0  0  0  0  0  0
   -2.0089    1.0557    0.4992 C   0  0  2  0  0  0  0  0  0  0  0  0
   -1.2106    1.7737   -0.5804 C   0  0  0  0  0  0  0  0  0  0  0  0
   -1.5178    3.1116   -0.8852 C   0  0  0  0  0  0  0  0  0  0  0  0
   -0.8450    3.7898   -1.9057 C   0  0  0  0  0  0  0  0  0  0  0  0
    0.1429    3.1430   -2.6443 C   0  0  0  0  0  0  0  0  0  0  0  0
    0.4768    1.8259   -2.3410 C   0  0  0  0  0  0  0  0  0  0  0  0
   -0.1810    1.1536   -1.3096 C   0  0  0  0  0  0  0  0  0  0  0  0
    3.9061   -0.1189    0.3651 C   0  0  0  0  0  0  0  0  0  0  0  0
    5.7376    0.8418   -2.3624 H   0  0  0  0  0  0  0  0  0  0  0  0
    4.3548    2.8669   -2.0591 H   0  0  0  0  0  0  0  0  0  0  0  0
    2.6597    2.9910   -0.2836 H   0  0  0  0  0  0  0  0  0  0  0  0
    2.0337    0.0130    1.9617 H   0  0  0  0  0  0  0  0  0  0  0  0
   -0.0636   -0.1726    2.0594 H   0  0  0  0  0  0  0  0  0  0  0  0
   -0.0697    1.0285    3.3499 H   0  0  0  0  0  0  0  0  0  0  0  0
   -2.3322    0.8329    3.8568 H   0  0  0  0  0  0  0  0  0  0  0  0
   -3.5587    1.0054    2.6317 H   0  0  0  0  0  0  0  0  0  0  0  0
   -1.8244   -1.4490    3.2329 H   0  0  0  0  0  0  0  0  0  0  0  0
   -3.5858   -1.3230    3.0609 H   0  0  0  0  0  0  0  0  0  0  0  0
   -2.1824   -0.5749   -1.8599 H   0  0  0  0  0  0  0  0  0  0  0  0
   -2.4287   -3.1849   -2.8287 H   0  0  0  0  0  0  0  0  0  0  0  0
   -2.7712   -5.5138   -2.0465 H   0  0  0  0  0  0  0  0  0  0  0  0
   -2.9830   -6.0161    0.3624 H   0  0  0  0  0  0  0  0  0  0  0  0
   -2.8950   -4.1948    2.0439 H   0  0  0  0  0  0  0  0  0  0  0  0
   -3.0186    1.4929    0.4142 H   0  0  0  0  0  0  0  0  0  0  0  0
   -2.2725    3.6393   -0.3079 H   0  0  0  0  0  0  0  0  0  0  0  0
   -1.0863    4.8279   -2.1151 H   0  0  0  0  0  0  0  0  0  0  0  0
    0.6663    3.6707   -3.4383 H   0  0  0  0  0  0  0  0  0  0  0  0
    1.2665    1.3240   -2.8920 H   0  0  0  0  0  0  0  0  0  0  0  0
    0.1298    0.1411   -1.0685 H   0  0  0  0  0  0  0  0  0  0  0  0
    3.7657   -0.9650    1.0348 H   0  0  0  0  0  0  0  0  0  0  0  0
  2  1  1  0  0  0  0
  3  2  2  0  0  0  0
  4  2  1  0  0  0  0
  5  4  2  0  0  0  0
  5 33  1  0  0  0  0
  6  5  1  0  0  0  0
  6 34  1  0  0  0  0
  7  6  2  0  0  0  0
  7 35  1  0  0  0  0
  8  7  1  0  0  0  0
  9  8  1  0  0  0  0
  9 36  1  0  0  0  0
 10  9  1  0  0  0  0
 11 10  2  0  0  0  0
 12 10  1  0  0  0  0
 12 37  1  0  0  0  0
 12 38  1  0  0  0  0
 13 12  1  0  0  0  0
 14 13  1  0  0  0  0
 14 39  1  0  0  0  0
 14 40  1  0  0  0  0
 15 14  1  0  0  0  0
 15 41  1  0  0  0  0
 15 42  1  0  0  0  0
 16 15  1  0  0  0  0
 17 16  2  0  0  0  0
 18 17  1  0  0  0  0
 18 43  1  0  0  0  0
 19 18  1  0  0  0  0
 20 19  2  0  0  0  0
 20 44  1  0  0  0  0
 21 20  1  0  0  0  0
 21 45  1  0  0  0  0
 22 21  2  0  0  0  0
 22 46  1  0  0  0  0
 23 22  1  0  0  0  0
 23 47  1  0  0  0  0
 24 23  2  0  0  0  0
 24 16  1  0  0  0  0
 24 19  1  0  0  0  0
 25 17  1  0  0  0  0
 25 13  1  0  0  0  0
 25 48  1  6  0  0  0
 26 25  1  0  0  0  0
 27 26  2  0  0  0  0
 27 49  1  0  0  0  0
 28 27  1  0  0  0  0
 28 50  1  0  0  0  0
 29 28  2  0  0  0  0
 29 51  1  0  0  0  0
 30 29  1  0  0  0  0
 30 52  1  0  0  0  0
 31 30  2  0  0  0  0
 31 26  1  0  0  0  0
 31 53  1  0  0  0  0
 32  8  2  0  0  0  0
 32  4  1  0  0  0  0
 32 54  1  0  0  0  0
M  CHG  2   1  -1   2   1
M  END
>  <energy>
129.24622695061609

$$$$
> 380_AKC_j.ejmech.2016.08.014
>365.sdf
 OpenBabel10062213063D

 56 60  0  0  0  0  0  0  0  0999 V2000
    1.8739   -4.8988   -2.4512 C   0  0  0  0  0  0  0  0  0  0  0  0
    3.0207   -5.5566   -1.7407 C   0  0  0  0  0  0  0  0  0  0  0  0
    3.7136   -4.9443   -0.6599 C   0  0  0  0  0  0  0  0  0  0  0  0
    3.3207   -3.6928   -0.0911 N   0  0  0  0  0  0  0  0  0  0  0  0
    2.0758   -3.4632    0.4364 C   0  0  0  0  0  0  0  0  0  0  0  0
    1.2417   -4.3528    0.4428 O   0  0  0  0  0  0  0  0  0  0  0  0
    1.8270   -2.1811    1.2129 C   0  0  0  0  0  0  0  0  0  0  0  0
    0.6371   -1.3205    0.9126 N   0  3  2  0  0  0  0  0  0  0  0  0
   -0.5481   -1.4912    1.8028 C   0  0  0  0  0  0  0  0  0  0  0  0
   -1.3154   -0.1584    1.9724 C   0  0  0  0  0  0  0  0  0  0  0  0
   -1.3997    0.5523    0.6570 C   0  0  0  0  0  0  0  0  0  0  0  0
   -0.6789    0.2042   -0.4784 C   0  0  0  0  0  0  0  0  0  0  0  0
   -0.9713    1.0591   -1.4907 N   0  0  0  0  0  0  0  0  0  0  0  0
   -1.8580    1.9429   -0.9919 C   0  0  0  0  0  0  0  0  0  0  0  0
   -2.4456    3.0196   -1.6525 C   0  0  0  0  0  0  0  0  0  0  0  0
   -3.3477    3.8242   -0.9299 C   0  0  0  0  0  0  0  0  0  0  0  0
   -3.6356    3.5356    0.4251 C   0  0  0  0  0  0  0  0  0  0  0  0
   -3.0229    2.4413    1.0646 C   0  0  0  0  0  0  0  0  0  0  0  0
   -2.1366    1.6645    0.3220 C   0  0  0  0  0  0  0  0  0  0  0  0
    0.3067   -0.9598   -0.5138 C   0  0  2  0  0  0  0  0  0  0  0  0
   -0.2911   -2.0269   -1.4627 C   0  0  0  0  0  0  0  0  0  0  0  0
   -0.8618   -3.2537   -1.0457 C   0  0  0  0  0  0  0  0  0  0  0  0
   -1.4262   -4.1368   -1.9713 C   0  0  0  0  0  0  0  0  0  0  0  0
   -1.4330   -3.8263   -3.3275 C   0  0  0  0  0  0  0  0  0  0  0  0
   -0.8705   -2.6316   -3.7659 C   0  0  0  0  0  0  0  0  0  0  0  0
   -0.3061   -1.7417   -2.8476 C   0  0  0  0  0  0  0  0  0  0  0  0
    4.8473   -5.5836   -0.1290 C   0  0  0  0  0  0  0  0  0  0  0  0
    5.2634   -6.8233   -0.6174 C   0  0  0  0  0  0  0  0  0  0  0  0
    4.5657   -7.4348   -1.6566 C   0  0  0  0  0  0  0  0  0  0  0  0
    3.4571   -6.8034   -2.2206 C   0  0  0  0  0  0  0  0  0  0  0  0
    1.6645   -3.8829   -2.0786 H   0  0  0  0  0  0  0  0  0  0  0  0
    0.9673   -5.5305   -2.3643 H   0  0  0  0  0  0  0  0  0  0  0  0
    2.1308   -4.7848   -3.5260 H   0  0  0  0  0  0  0  0  0  0  0  0
    4.0689   -3.0158    0.1215 H   0  0  0  0  0  0  0  0  0  0  0  0
    2.7474   -1.5612    1.0900 H   0  0  0  0  0  0  0  0  0  0  0  0
    1.8213   -2.4504    2.2916 H   0  0  0  0  0  0  0  0  0  0  0  0
    1.0243   -0.4183    1.2911 H   0  0  0  0  0  0  0  0  0  0  0  0
   -0.2733   -1.8559    2.8164 H   0  0  0  0  0  0  0  0  0  0  0  0
   -1.2671   -2.2063    1.3946 H   0  0  0  0  0  0  0  0  0  0  0  0
   -0.7819    0.5210    2.6711 H   0  0  0  0  0  0  0  0  0  0  0  0
   -2.3221   -0.3781    2.3884 H   0  0  0  0  0  0  0  0  0  0  0  0
   -0.5837    1.0683   -2.4575 H   0  0  0  0  0  0  0  0  0  0  0  0
   -2.2170    3.2324   -2.6887 H   0  0  0  0  0  0  0  0  0  0  0  0
   -3.8227    4.6680   -1.4132 H   0  0  0  0  0  0  0  0  0  0  0  0
   -4.3301    4.1591    0.9729 H   0  0  0  0  0  0  0  0  0  0  0  0
   -3.2365    2.2117    2.1006 H   0  0  0  0  0  0  0  0  0  0  0  0
    1.2630   -0.6051   -0.9621 H   0  0  0  0  0  0  0  0  0  0  0  0
   -0.8950   -3.5585   -0.0264 H   0  0  0  0  0  0  0  0  0  0  0  0
   -1.8601   -5.0685   -1.6309 H   0  0  0  0  0  0  0  0  0  0  0  0
   -1.8719   -4.5142   -4.0386 H   0  0  0  0  0  0  0  0  0  0  0  0
   -0.8727   -2.3910   -4.8210 H   0  0  0  0  0  0  0  0  0  0  0  0
    0.1277   -0.8289   -3.2241 H   0  0  0  0  0  0  0  0  0  0  0  0
    5.3933   -5.1268    0.6872 H   0  0  0  0  0  0  0  0  0  0  0  0
    6.1273   -7.3125   -0.1859 H   0  0  0  0  0  0  0  0  0  0  0  0
    4.8924   -8.3946   -2.0359 H   0  0  0  0  0  0  0  0  0  0  0  0
    2.9424   -7.2788   -3.0470 H   0  0  0  0  0  0  0  0  0  0  0  0
  1 31  1  0  0  0  0
  1 32  1  0  0  0  0
  1 33  1  0  0  0  0
  2  1  1  0  0  0  0
  3  2  2  0  0  0  0
  4  3  1  0  0  0  0
  4 34  1  0  0  0  0
  5  4  1  0  0  0  0
  6  5  2  0  0  0  0
  7  5  1  0  0  0  0
  7 35  1  0  0  0  0
  7 36  1  0  0  0  0
  8  7  1  0  0  0  0
  8 37  1  1  0  0  0
  9  8  1  0  0  0  0
  9 38  1  0  0  0  0
  9 39  1  0  0  0  0
 10  9  1  0  0  0  0
 10 40  1  0  0  0  0
 10 41  1  0  0  0  0
 11 10  1  0  0  0  0
 12 11  2  0  0  0  0
 13 12  1  0  0  0  0
 13 42  1  0  0  0  0
 14 13  1  0  0  0  0
 15 14  2  0  0  0  0
 15 43  1  0  0  0  0
 16 15  1  0  0  0  0
 16 44  1  0  0  0  0
 17 16  2  0  0  0  0
 17 45  1  0  0  0  0
 18 17  1  0  0  0  0
 18 46  1  0  0  0  0
 19 18  2  0  0  0  0
 19 11  1  0  0  0  0
 19 14  1  0  0  0  0
 20 12  1  0  0  0  0
 20  8  1  0  0  0  0
 20 47  1  6  0  0  0
 21 20  1  0  0  0  0
 22 21  2  0  0  0  0
 22 48  1  0  0  0  0
 23 22  1  0  0  0  0
 23 49  1  0  0  0  0
 24 23  2  0  0  0  0
 24 50  1  0  0  0  0
 25 24  1  0  0  0  0
 25 51  1  0  0  0  0
 26 25  2  0  0  0  0
 26 21  1  0  0  0  0
 26 52  1  0  0  0  0
 27  3  1  0  0  0  0
 27 53  1  0  0  0  0
 28 27  2  0  0  0  0
 28 54  1  0  0  0  0
 29 28  1  0  0  0  0
 29 55  1  0  0  0  0
 30 29  2  0  0  0  0
 30  2  1  0  0  0  0
 30 56  1  0  0  0  0
M  CHG  1   8   1
M  END
>  <MOL Chiral Flag>
0

>  <energy>
119.47941088439005

$$$$
> 381_AKC_j.ejmech.2016.07.014
>366.sdf
 OpenBabel10062213073D

 27 28  0  0  0  0  0  0  0  0999 V2000
   -5.4996    0.5881   -1.1919 N   0  0  0  0  0  0  0  0  0  0  0  0
   -4.3752   -0.1784   -0.7841 C   0  0  0  0  0  0  0  0  0  0  0  0
   -4.4776   -1.6155   -0.7152 S   0  0  0  0  0  0  0  0  0  0  0  0
   -3.1445    0.4834   -0.4955 N   0  0  0  0  0  0  0  0  0  0  0  0
   -1.9987   -0.2311   -0.2089 N   0  0  0  0  0  0  0  0  0  0  0  0
   -0.8470    0.3441   -0.1642 C   0  0  0  0  0  0  0  0  0  0  0  0
    0.3927   -0.4567    0.0740 C   0  0  0  0  0  0  0  0  0  0  0  0
    0.2606   -1.8095    0.4490 C   0  0  0  0  0  0  0  0  0  0  0  0
    1.3802   -2.6096    0.6609 C   0  0  0  0  0  0  0  0  0  0  0  0
    2.6602   -2.0915    0.4966 C   0  0  0  0  0  0  0  0  0  0  0  0
    3.7310   -2.9022    0.6997 F   0  0  0  0  0  0  0  0  0  0  0  0
    2.8369   -0.7507    0.1202 C   0  0  0  0  0  0  0  0  0  0  0  0
    4.1343   -0.2382   -0.0587 C   0  0  0  0  0  0  0  0  0  0  0  0
    4.3227    1.0881   -0.4406 C   0  0  0  0  0  0  0  0  0  0  0  0
    3.2257    1.9194   -0.6452 C   0  0  0  0  0  0  0  0  0  0  0  0
    1.9281    1.4339   -0.4744 C   0  0  0  0  0  0  0  0  0  0  0  0
    1.7040    0.0887   -0.0898 C   0  0  0  0  0  0  0  0  0  0  0  0
   -6.3915    0.1342   -1.4426 H   0  0  0  0  0  0  0  0  0  0  0  0
   -5.4270    1.6129   -1.2645 H   0  0  0  0  0  0  0  0  0  0  0  0
   -3.1031    1.5107   -0.5801 H   0  0  0  0  0  0  0  0  0  0  0  0
   -0.7941    1.4031   -0.3680 H   0  0  0  0  0  0  0  0  0  0  0  0
   -0.7185   -2.2526    0.5817 H   0  0  0  0  0  0  0  0  0  0  0  0
    1.2524   -3.6451    0.9500 H   0  0  0  0  0  0  0  0  0  0  0  0
    5.0036   -0.8666    0.0916 H   0  0  0  0  0  0  0  0  0  0  0  0
    5.3244    1.4733   -0.5807 H   0  0  0  0  0  0  0  0  0  0  0  0
    3.3797    2.9489   -0.9427 H   0  0  0  0  0  0  0  0  0  0  0  0
    1.1237    2.1248   -0.6529 H   0  0  0  0  0  0  0  0  0  0  0  0
  1 18  1  0  0  0  0
  1 19  1  0  0  0  0
  2  1  1  0  0  0  0
  3  2  2  0  0  0  0
  4  2  1  0  0  0  0
  4 20  1  0  0  0  0
  5  4  1  0  0  0  0
  6  5  2  0  0  0  0
  6 21  1  0  0  0  0
  7  6  1  0  0  0  0
  8  7  2  0  0  0  0
  8 22  1  0  0  0  0
  9  8  1  0  0  0  0
  9 23  1  0  0  0  0
 10  9  2  0  0  0  0
 11 10  1  0  0  0  0
 12 10  1  0  0  0  0
 13 12  2  0  0  0  0
 13 24  1  0  0  0  0
 14 13  1  0  0  0  0
 14 25  1  0  0  0  0
 15 14  2  0  0  0  0
 15 26  1  0  0  0  0
 16 15  1  0  0  0  0
 16 27  1  0  0  0  0
 17 16  2  0  0  0  0
 17  7  1  0  0  0  0
 17 12  1  0  0  0  0
M  END
>  <MOL Chiral Flag>
0

>  <energy>
30.720955036680255

$$$$
> 382_AKC_j.ejmech.2016.01.028
>367.sdf
 OpenBabel10062213073D

 73 76  0  0  0  0  0  0  0  0999 V2000
    1.3827    1.1419   -9.6358 C   0  0  0  0  0  0  0  0  0  0  0  0
    2.5794    1.3763   -8.9903 O   0  0  0  0  0  0  0  0  0  0  0  0
    2.8636    1.0167   -7.7103 C   0  0  0  0  0  0  0  0  0  0  0  0
    1.9373    0.3339   -6.8932 C   0  0  0  0  0  0  0  0  0  0  0  0
    2.2761   -0.0110   -5.5806 C   0  0  0  0  0  0  0  0  0  0  0  0
    3.5381    0.3206   -5.0645 C   0  0  0  0  0  0  0  0  0  0  0  0
    3.8979   -0.0428   -3.6482 C   0  0  0  0  0  0  0  0  0  0  0  0
    2.9934    0.6207   -2.7248 N   0  0  0  0  0  0  0  0  0  0  0  0
    2.2354   -0.0516   -1.8140 C   0  0  0  0  0  0  0  0  0  0  0  0
    2.2969   -1.2700   -1.7343 O   0  0  0  0  0  0  0  0  0  0  0  0
    1.3165    0.7272   -0.8983 C   0  0  0  0  0  0  0  0  0  0  0  0
    0.6612   -0.1117    0.1310 N   0  0  0  0  0  0  0  0  0  0  0  0
   -0.8109   -0.3027    0.1321 C   0  0  1  0  0  0  0  0  0  0  0  0
   -1.5487    0.4264   -0.9881 C   0  0  0  0  0  0  0  0  0  0  0  0
   -1.3722    0.0708   -2.1460 O   0  0  0  0  0  0  0  0  0  0  0  0
   -2.4171    1.4421   -0.6935 N   0  0  0  0  0  0  0  0  0  0  0  0
   -3.1898    2.1877   -1.6947 C   0  0  0  0  0  0  0  0  0  0  0  0
   -4.0466    3.2500   -0.9725 C   0  0  0  0  0  0  0  0  0  0  0  0
   -2.2493    2.9172   -2.6780 C   0  0  0  0  0  0  0  0  0  0  0  0
   -4.1423    1.2444   -2.4606 C   0  0  0  0  0  0  0  0  0  0  0  0
   -1.2453   -1.7715    0.0287 C   0  0  0  0  0  0  0  0  0  0  0  0
   -2.6103   -2.0855    0.1943 C   0  0  0  0  0  0  0  0  0  0  0  0
   -3.0536   -3.4077    0.1121 C   0  0  0  0  0  0  0  0  0  0  0  0
   -2.1447   -4.4372   -0.1386 C   0  0  0  0  0  0  0  0  0  0  0  0
   -2.7038   -6.0966   -0.2406 Cl  0  0  0  0  0  0  0  0  0  0  0  0
   -0.7901   -4.1439   -0.3090 C   0  0  0  0  0  0  0  0  0  0  0  0
   -0.3392   -2.8231   -0.2279 C   0  0  0  0  0  0  0  0  0  0  0  0
    1.4807   -0.6231    1.1366 C   0  0  0  0  0  0  0  0  0  0  0  0
    2.6882   -0.4357    1.0483 O   0  0  0  0  0  0  0  0  0  0  0  0
    1.0387   -1.3829    2.3668 C   0  0  0  0  0  0  0  0  0  0  0  0
   -0.2423   -1.6359    2.8939 C   0  0  0  0  0  0  0  0  0  0  0  0
   -0.0405   -2.3594    4.0469 C   0  0  0  0  0  0  0  0  0  0  0  0
   -0.9516   -2.8736    4.9669 C   0  0  0  0  0  0  0  0  0  0  0  0
   -0.4441   -3.5790    6.0749 C   0  0  0  0  0  0  0  0  0  0  0  0
    0.9513   -3.7494    6.2325 C   0  0  0  0  0  0  0  0  0  0  0  0
    1.8423   -3.2147    5.2827 C   0  0  0  0  0  0  0  0  0  0  0  0
    1.3029   -2.5235    4.1997 C   0  0  0  0  0  0  0  0  0  0  0  0
    1.9667   -1.9362    3.1939 N   0  0  0  0  0  0  0  0  0  0  0  0
    4.4594    0.9971   -5.8790 C   0  0  0  0  0  0  0  0  0  0  0  0
    4.1221    1.3405   -7.1906 C   0  0  0  0  0  0  0  0  0  0  0  0
    0.5522    1.6531   -9.1036 H   0  0  0  0  0  0  0  0  0  0  0  0
    1.1856    0.0505   -9.6982 H   0  0  0  0  0  0  0  0  0  0  0  0
    1.4430    1.5483  -10.6663 H   0  0  0  0  0  0  0  0  0  0  0  0
    0.9566    0.0685   -7.2637 H   0  0  0  0  0  0  0  0  0  0  0  0
    1.5552   -0.5334   -4.9635 H   0  0  0  0  0  0  0  0  0  0  0  0
    4.9341    0.2854   -3.4162 H   0  0  0  0  0  0  0  0  0  0  0  0
    3.8695   -1.1487   -3.5434 H   0  0  0  0  0  0  0  0  0  0  0  0
    2.9376    1.6506   -2.7562 H   0  0  0  0  0  0  0  0  0  0  0  0
    0.6210    1.2795   -1.5507 H   0  0  0  0  0  0  0  0  0  0  0  0
    1.8995    1.5210   -0.3812 H   0  0  0  0  0  0  0  0  0  0  0  0
   -1.1711    0.1340    1.0820 H   0  0  0  0  0  0  0  0  0  0  0  0
   -2.5371    1.6993    0.2988 H   0  0  0  0  0  0  0  0  0  0  0  0
   -3.3990    3.9547   -0.4071 H   0  0  0  0  0  0  0  0  0  0  0  0
   -4.7428    2.7665   -0.2533 H   0  0  0  0  0  0  0  0  0  0  0  0
   -4.6493    3.8374   -1.6990 H   0  0  0  0  0  0  0  0  0  0  0  0
   -1.5692    3.6002   -2.1250 H   0  0  0  0  0  0  0  0  0  0  0  0
   -2.8368    3.5195   -3.4044 H   0  0  0  0  0  0  0  0  0  0  0  0
   -1.6280    2.2114   -3.2640 H   0  0  0  0  0  0  0  0  0  0  0  0
   -4.8222    0.7253   -1.7510 H   0  0  0  0  0  0  0  0  0  0  0  0
   -3.5938    0.4745   -3.0383 H   0  0  0  0  0  0  0  0  0  0  0  0
   -4.7618    1.8187   -3.1831 H   0  0  0  0  0  0  0  0  0  0  0  0
   -3.3294   -1.3001    0.3923 H   0  0  0  0  0  0  0  0  0  0  0  0
   -4.1047   -3.6309    0.2443 H   0  0  0  0  0  0  0  0  0  0  0  0
   -0.0836   -4.9405   -0.5053 H   0  0  0  0  0  0  0  0  0  0  0  0
    0.7114   -2.6359   -0.3677 H   0  0  0  0  0  0  0  0  0  0  0  0
   -1.2179   -1.3541    2.5506 H   0  0  0  0  0  0  0  0  0  0  0  0
   -2.0171   -2.7351    4.8358 H   0  0  0  0  0  0  0  0  0  0  0  0
   -1.1240   -3.9912    6.8089 H   0  0  0  0  0  0  0  0  0  0  0  0
    1.3356   -4.2914    7.0867 H   0  0  0  0  0  0  0  0  0  0  0  0
    2.9122   -3.3361    5.3922 H   0  0  0  0  0  0  0  0  0  0  0  0
    3.0050   -1.9144    3.0788 H   0  0  0  0  0  0  0  0  0  0  0  0
    5.4383    1.2609   -5.4984 H   0  0  0  0  0  0  0  0  0  0  0  0
    4.8422    1.8639   -7.8071 H   0  0  0  0  0  0  0  0  0  0  0  0
  1 41  1  0  0  0  0
  1 42  1  0  0  0  0
  1 43  1  0  0  0  0
  2  1  1  0  0  0  0
  3  2  1  0  0  0  0
  4  3  2  0  0  0  0
  4 44  1  0  0  0  0
  5  4  1  0  0  0  0
  5 45  1  0  0  0  0
  6  5  2  0  0  0  0
  7  6  1  0  0  0  0
  7 46  1  0  0  0  0
  7 47  1  0  0  0  0
  8  7  1  0  0  0  0
  8 48  1  0  0  0  0
  9  8  1  0  0  0  0
 10  9  2  0  0  0  0
 11  9  1  0  0  0  0
 11 49  1  0  0  0  0
 11 50  1  0  0  0  0
 12 11  1  0  0  0  0
 13 12  1  0  0  0  0
 13 51  1  1  0  0  0
 14 13  1  0  0  0  0
 15 14  2  0  0  0  0
 16 14  1  0  0  0  0
 16 52  1  0  0  0  0
 17 16  1  0  0  0  0
 18 17  1  0  0  0  0
 18 53  1  0  0  0  0
 18 54  1  0  0  0  0
 18 55  1  0  0  0  0
 19 17  1  0  0  0  0
 19 56  1  0  0  0  0
 19 57  1  0  0  0  0
 19 58  1  0  0  0  0
 20 17  1  0  0  0  0
 20 59  1  0  0  0  0
 20 60  1  0  0  0  0
 20 61  1  0  0  0  0
 21 13  1  0  0  0  0
 22 21  2  0  0  0  0
 22 62  1  0  0  0  0
 23 22  1  0  0  0  0
 23 63  1  0  0  0  0
 24 23  2  0  0  0  0
 25 24  1  0  0  0  0
 26 24  1  0  0  0  0
 26 64  1  0  0  0  0
 27 26  2  0  0  0  0
 27 21  1  0  0  0  0
 27 65  1  0  0  0  0
 28 12  1  0  0  0  0
 29 28  2  0  0  0  0
 30 28  1  0  0  0  0
 31 30  2  0  0  0  0
 31 66  1  0  0  0  0
 32 31  1  0  0  0  0
 33 32  2  0  0  0  0
 33 67  1  0  0  0  0
 34 33  1  0  0  0  0
 34 68  1  0  0  0  0
 35 34  2  0  0  0  0
 35 69  1  0  0  0  0
 36 35  1  0  0  0  0
 36 70  1  0  0  0  0
 37 36  2  0  0  0  0
 37 32  1  0  0  0  0
 38 37  1  0  0  0  0
 38 30  1  0  0  0  0
 38 71  1  0  0  0  0
 39  6  1  0  0  0  0
 39 72  1  0  0  0  0
 40 39  2  0  0  0  0
 40  3  1  0  0  0  0
 40 73  1  0  0  0  0
M  END
>  <MOL Chiral Flag>
0

>  <energy>
102.11042449077624

$$$$
> 383_AKC_j.vetpar.2016.01.002
>368.sdf
 OpenBabel10062213073D

 18 19  0  0  0  0  0  0  0  0999 V2000
    1.0222   -0.0653   -0.1479 O   0  0  0  0  0  0  0  0  0  0  0  0
    2.3649   -0.0433   -0.0071 C   0  0  0  0  0  0  0  0  0  0  0  0
    3.0799   -1.2482    0.1011 C   0  0  0  0  0  0  0  0  0  0  0  0
    2.4382   -2.4438    0.0029 N   0  0  0  0  0  0  0  0  0  0  0  0
    3.1125   -3.6246    0.0812 C   0  0  0  0  0  0  0  0  0  0  0  0
    4.4929   -3.6325    0.2992 C   0  0  0  0  0  0  0  0  0  0  0  0
    5.1782   -2.4239    0.4193 C   0  0  0  0  0  0  0  0  0  0  0  0
    4.4803   -1.2155    0.3018 C   0  0  0  0  0  0  0  0  0  0  0  0
    5.1495    0.0131    0.3671 C   0  0  0  0  0  0  0  0  0  0  0  0
    4.4375    1.2053    0.2114 C   0  0  0  0  0  0  0  0  0  0  0  0
    3.0515    1.1790    0.0316 C   0  0  0  0  0  0  0  0  0  0  0  0
    0.5025    0.7520   -0.1527 H   0  0  0  0  0  0  0  0  0  0  0  0
    2.5783   -4.5584   -0.0296 H   0  0  0  0  0  0  0  0  0  0  0  0
    5.0292   -4.5706    0.3655 H   0  0  0  0  0  0  0  0  0  0  0  0
    6.2489   -2.4288    0.5864 H   0  0  0  0  0  0  0  0  0  0  0  0
    6.2216    0.0491    0.5183 H   0  0  0  0  0  0  0  0  0  0  0  0
    4.9598    2.1524    0.2326 H   0  0  0  0  0  0  0  0  0  0  0  0
    2.5114    2.1105   -0.0819 H   0  0  0  0  0  0  0  0  0  0  0  0
  1 12  1  0  0  0  0
  2  1  1  0  0  0  0
  3  2  2  0  0  0  0
  4  3  1  0  0  0  0
  5  4  2  0  0  0  0
  5 13  1  0  0  0  0
  6  5  1  0  0  0  0
  6 14  1  0  0  0  0
  7  6  2  0  0  0  0
  7 15  1  0  0  0  0
  8  7  1  0  0  0  0
  8  3  1  0  0  0  0
  9  8  2  0  0  0  0
  9 16  1  0  0  0  0
 10  9  1  0  0  0  0
 10 17  1  0  0  0  0
 11 10  2  0  0  0  0
 11  2  1  0  0  0  0
 11 18  1  0  0  0  0
M  END
>  <MOL Chiral Flag>
0

>  <energy>
42.033949057393457

$$$$
> 384_AKC_molecules201219829
>369.sdf
 OpenBabel10062213083D

 35 38  0  0  0  0  0  0  0  0999 V2000
   -0.4627   -0.0395   -0.6428 C   0  0  1  0  0  0  0  0  0  0  0  0
   -1.6216   -0.9528   -0.1701 C   0  0  0  0  0  0  0  0  0  0  0  0
   -2.9387   -0.1721   -0.1900 C   0  0  0  0  0  0  0  0  0  0  0  0
   -2.8183    1.0832    0.6742 C   0  0  0  0  0  0  0  0  0  0  0  0
   -1.6335    1.9363    0.1967 C   0  0  0  0  0  0  0  0  0  0  0  0
   -0.3734    1.1578    0.2471 N   0  3  2  0  0  0  0  0  0  0  0  0
    0.7690    2.0325   -0.1136 C   0  0  0  0  0  0  0  0  0  0  0  0
    2.0876    1.2395   -0.1160 C   0  0  2  0  0  0  0  0  0  0  0  0
    1.9926    0.1329   -1.2078 C   0  0  0  0  0  0  0  0  0  0  0  0
    0.8934   -0.8244   -0.7564 C   0  0  2  0  0  0  0  0  0  0  0  0
    0.7219   -1.9394   -1.5706 O   0  0  0  0  0  0  0  0  0  0  0  0
    0.9393   -3.0651   -0.8619 C   0  0  0  0  0  0  0  0  0  0  0  0
    0.8397   -4.1872   -1.3288 O   0  0  0  0  0  0  0  0  0  0  0  0
    1.3921   -2.7550    0.4666 C   0  0  0  0  0  0  0  0  0  0  0  0
    1.4130   -1.4395    0.5269 C   0  0  0  0  0  0  0  0  0  0  0  0
    2.0042   -0.6142    1.5904 C   0  0  0  0  0  0  0  0  0  0  0  0
    2.3246    0.6630    1.2914 C   0  0  0  0  0  0  0  0  0  0  0  0
   -0.7050    0.2987   -1.6784 H   0  0  0  0  0  0  0  0  0  0  0  0
   -1.4177   -1.3141    0.8622 H   0  0  0  0  0  0  0  0  0  0  0  0
   -1.7275   -1.8358   -0.8354 H   0  0  0  0  0  0  0  0  0  0  0  0
   -3.7670   -0.8121    0.1829 H   0  0  0  0  0  0  0  0  0  0  0  0
   -3.1721    0.1235   -1.2368 H   0  0  0  0  0  0  0  0  0  0  0  0
   -2.6547    0.7891    1.7341 H   0  0  0  0  0  0  0  0  0  0  0  0
   -3.7591    1.6719    0.6162 H   0  0  0  0  0  0  0  0  0  0  0  0
   -1.5636    2.8302    0.8564 H   0  0  0  0  0  0  0  0  0  0  0  0
   -1.8283    2.2921   -0.8414 H   0  0  0  0  0  0  0  0  0  0  0  0
   -0.2459    0.8434    1.2379 H   0  0  0  0  0  0  0  0  0  0  0  0
    0.8522    2.8695    0.6167 H   0  0  0  0  0  0  0  0  0  0  0  0
    0.6136    2.4796   -1.1222 H   0  0  0  0  0  0  0  0  0  0  0  0
    2.9343    1.9069   -0.3856 H   0  0  0  0  0  0  0  0  0  0  0  0
    2.9644   -0.4042   -1.2935 H   0  0  0  0  0  0  0  0  0  0  0  0
    1.7616    0.5747   -2.2021 H   0  0  0  0  0  0  0  0  0  0  0  0
    1.7461   -3.4440    1.2225 H   0  0  0  0  0  0  0  0  0  0  0  0
    2.2198   -1.0276    2.5708 H   0  0  0  0  0  0  0  0  0  0  0  0
    2.7432    1.3017    2.0627 H   0  0  0  0  0  0  0  0  0  0  0  0
  1 18  1  6  0  0  0
  2  1  1  0  0  0  0
  2 19  1  0  0  0  0
  2 20  1  0  0  0  0
  3  2  1  0  0  0  0
  3 21  1  0  0  0  0
  3 22  1  0  0  0  0
  4  3  1  0  0  0  0
  4 23  1  0  0  0  0
  4 24  1  0  0  0  0
  5  4  1  0  0  0  0
  5 25  1  0  0  0  0
  5 26  1  0  0  0  0
  6  5  1  0  0  0  0
  6  1  1  0  0  0  0
  6 27  1  1  0  0  0
  7  6  1  0  0  0  0
  7 28  1  0  0  0  0
  7 29  1  0  0  0  0
  8  7  1  0  0  0  0
  8 30  1  6  0  0  0
  9  8  1  0  0  0  0
  9 31  1  0  0  0  0
  9 32  1  0  0  0  0
 10  9  1  6  0  0  0
 10  1  1  0  0  0  0
 11 10  1  0  0  0  0
 12 11  1  0  0  0  0
 13 12  2  0  0  0  0
 14 12  1  0  0  0  0
 14 33  1  0  0  0  0
 15 14  2  0  0  0  0
 15 10  1  0  0  0  0
 16 15  1  0  0  0  0
 16 34  1  0  0  0  0
 17 16  2  0  0  0  0
 17  8  1  0  0  0  0
 17 35  1  0  0  0  0
M  CHG  1   6   1
M  END
>  <MOL Chiral Flag>
0

>  <energy>
135.09997248621241

$$$$
> 385_AKC_j.ejmech.2015.10.011
>370.sdf
 OpenBabel10062213083D

 40 43  0  0  0  0  0  0  0  0999 V2000
   -0.4224   -3.5223   -1.4069 N   0  0  0  0  0  0  0  0  0  0  0  0
   -0.9189   -2.6985   -0.7529 C   0  0  0  0  0  0  0  0  0  0  0  0
   -1.3515   -1.5126   -0.0621 C   0  0  0  0  0  0  0  0  0  0  0  0
   -0.5783   -0.8026    0.8370 C   0  0  0  0  0  0  0  0  0  0  0  0
   -1.5488    0.3075    1.7264 S   0  0  0  0  0  0  0  0  0  0  0  0
   -2.9866   -0.1950    0.9792 C   0  0  0  0  0  0  0  0  0  0  0  0
   -2.7823   -1.2353    0.0982 C   0  0  0  0  0  0  0  0  0  0  0  0
   -3.8704   -1.7962   -0.7878 C   0  0  0  0  0  0  0  0  0  0  0  0
   -4.5547   -0.7360   -1.6597 C   0  0  0  0  0  0  0  0  0  0  0  0
   -5.5313    0.1747   -0.9051 C   0  0  0  0  0  0  0  0  0  0  0  0
   -4.9036    1.1465    0.1000 C   0  0  0  0  0  0  0  0  0  0  0  0
   -4.2808    0.4694    1.3239 C   0  0  0  0  0  0  0  0  0  0  0  0
    0.7683   -0.6213    0.9995 N   0  0  0  0  0  0  0  0  0  0  0  0
    1.6050   -0.9444    0.0709 C   0  0  0  0  0  0  0  0  0  0  0  0
    2.9481   -0.4492    0.1960 C   0  0  0  0  0  0  0  0  0  0  0  0
    4.0615   -0.6838   -0.5847 C   0  0  0  0  0  0  0  0  0  0  0  0
    5.0569    0.2655   -0.2153 C   0  0  0  0  0  0  0  0  0  0  0  0
    6.3304    0.5990   -0.7084 C   0  0  0  0  0  0  0  0  0  0  0  0
    7.0313    1.6714   -0.1461 C   0  0  0  0  0  0  0  0  0  0  0  0
    6.4810    2.4052    0.8997 C   0  0  0  0  0  0  0  0  0  0  0  0
    5.2213    2.0888    1.4138 C   0  0  0  0  0  0  0  0  0  0  0  0
    4.5374    1.0153    0.8394 C   0  0  0  0  0  0  0  0  0  0  0  0
    3.2989    0.5035    1.1221 N   0  0  0  0  0  0  0  0  0  0  0  0
   -4.6083   -2.3050   -0.1600 H   0  0  0  0  0  0  0  0  0  0  0  0
   -3.4548   -2.5598   -1.4578 H   0  0  0  0  0  0  0  0  0  0  0  0
   -3.8035   -0.1320   -2.1896 H   0  0  0  0  0  0  0  0  0  0  0  0
   -5.1343   -1.2679   -2.4271 H   0  0  0  0  0  0  0  0  0  0  0  0
   -6.2808   -0.4394   -0.3928 H   0  0  0  0  0  0  0  0  0  0  0  0
   -6.0690    0.7726   -1.6514 H   0  0  0  0  0  0  0  0  0  0  0  0
   -5.7016    1.8100    0.4587 H   0  0  0  0  0  0  0  0  0  0  0  0
   -4.1661    1.7846   -0.4055 H   0  0  0  0  0  0  0  0  0  0  0  0
   -4.1273    1.2264    2.1022 H   0  0  0  0  0  0  0  0  0  0  0  0
   -4.9716   -0.2689    1.7508 H   0  0  0  0  0  0  0  0  0  0  0  0
    1.3496   -1.4699   -0.8655 H   0  0  0  0  0  0  0  0  0  0  0  0
    4.1158   -1.3902   -1.4007 H   0  0  0  0  0  0  0  0  0  0  0  0
    6.7585    0.0543   -1.5444 H   0  0  0  0  0  0  0  0  0  0  0  0
    8.0138    1.9381   -0.5327 H   0  0  0  0  0  0  0  0  0  0  0  0
    7.0341    3.2402    1.3222 H   0  0  0  0  0  0  0  0  0  0  0  0
    4.7849    2.6764    2.2125 H   0  0  0  0  0  0  0  0  0  0  0  0
    2.6503    0.8811    1.8040 H   0  0  0  0  0  0  0  0  0  0  0  0
  2  1  3  0  0  0  0
  3  2  1  0  0  0  0
  4  3  2  0  0  0  0
  5  4  1  0  0  0  0
  6  5  1  0  0  0  0
  7  6  2  0  0  0  0
  7  3  1  0  0  0  0
  8  7  1  0  0  0  0
  8 24  1  0  0  0  0
  8 25  1  0  0  0  0
  9  8  1  0  0  0  0
  9 26  1  0  0  0  0
  9 27  1  0  0  0  0
 10  9  1  0  0  0  0
 10 28  1  0  0  0  0
 10 29  1  0  0  0  0
 11 10  1  0  0  0  0
 11 30  1  0  0  0  0
 11 31  1  0  0  0  0
 12 11  1  0  0  0  0
 12  6  1  0  0  0  0
 12 32  1  0  0  0  0
 12 33  1  0  0  0  0
 13  4  1  0  0  0  0
 14 13  2  0  0  0  0
 14 34  1  0  0  0  0
 15 14  1  0  0  0  0
 16 15  2  0  0  0  0
 16 35  1  0  0  0  0
 17 16  1  0  0  0  0
 18 17  2  0  0  0  0
 18 36  1  0  0  0  0
 19 18  1  0  0  0  0
 19 37  1  0  0  0  0
 20 19  2  0  0  0  0
 20 38  1  0  0  0  0
 21 20  1  0  0  0  0
 21 39  1  0  0  0  0
 22 21  2  0  0  0  0
 22 17  1  0  0  0  0
 23 22  1  0  0  0  0
 23 15  1  0  0  0  0
 23 40  1  0  0  0  0
M  END
>  <MOL Chiral Flag>
0

>  <energy>
43.844279102806041

$$$$
> 386_AKC_j.ejmech.2015.10.011
>371.sdf
 OpenBabel10062213083D

 37 40  0  0  0  0  0  0  0  0999 V2000
    8.2455    0.9917    0.4370 Br  0  0  0  0  0  0  0  0  0  0  0  0
    6.3980    1.0717    0.8414 C   0  0  0  0  0  0  0  0  0  0  0  0
    5.9480    0.5523    2.0541 C   0  0  0  0  0  0  0  0  0  0  0  0
    4.5941    0.5961    2.3852 C   0  0  0  0  0  0  0  0  0  0  0  0
    3.7246    1.1543    1.4447 C   0  0  0  0  0  0  0  0  0  0  0  0
    2.3644    1.3031    1.4987 N   0  0  0  0  0  0  0  0  0  0  0  0
    1.8699    1.6912    0.2757 C   0  0  0  0  0  0  0  0  0  0  0  0
    0.4742    1.5540   -0.0166 C   0  0  0  0  0  0  0  0  0  0  0  0
   -0.0340    1.6237   -1.2078 N   0  0  0  0  0  0  0  0  0  0  0  0
   -1.2431    0.9859   -1.2255 C   0  0  0  0  0  0  0  0  0  0  0  0
   -1.4812   -0.3293   -1.5957 C   0  0  0  0  0  0  0  0  0  0  0  0
   -0.5072   -1.1198   -2.2922 C   0  0  0  0  0  0  0  0  0  0  0  0
    0.2548   -1.8019   -2.8408 N   0  0  0  0  0  0  0  0  0  0  0  0
   -2.6782   -0.8414   -1.0054 C   0  0  0  0  0  0  0  0  0  0  0  0
   -3.3994    0.1613   -0.3860 C   0  0  0  0  0  0  0  0  0  0  0  0
   -4.6279   -0.0434    0.4477 C   0  0  0  0  0  0  0  0  0  0  0  0
   -5.1530   -1.4838    0.3194 C   0  0  0  0  0  0  0  0  0  0  0  0
   -4.0214   -2.5204    0.2662 C   0  0  0  0  0  0  0  0  0  0  0  0
   -3.1083   -2.2777   -0.9448 C   0  0  0  0  0  0  0  0  0  0  0  0
   -2.6731    1.6923   -0.5678 S   0  0  0  0  0  0  0  0  0  0  0  0
    2.9588    2.0287   -0.5049 C   0  0  0  0  0  0  0  0  0  0  0  0
    4.1374    1.6537    0.2115 C   0  0  0  0  0  0  0  0  0  0  0  0
    5.5131    1.6312   -0.0906 C   0  0  0  0  0  0  0  0  0  0  0  0
    6.6452    0.1004    2.7554 H   0  0  0  0  0  0  0  0  0  0  0  0
    4.2323    0.1868    3.3230 H   0  0  0  0  0  0  0  0  0  0  0  0
    1.7984    0.9976    2.2775 H   0  0  0  0  0  0  0  0  0  0  0  0
   -0.1379    1.2341    0.8516 H   0  0  0  0  0  0  0  0  0  0  0  0
   -5.4173    0.6634    0.1704 H   0  0  0  0  0  0  0  0  0  0  0  0
   -4.3692    0.1451    1.4979 H   0  0  0  0  0  0  0  0  0  0  0  0
   -5.8200   -1.7041    1.1607 H   0  0  0  0  0  0  0  0  0  0  0  0
   -5.7532   -1.5708   -0.5948 H   0  0  0  0  0  0  0  0  0  0  0  0
   -4.4377   -3.5323    0.2142 H   0  0  0  0  0  0  0  0  0  0  0  0
   -3.4328   -2.4622    1.1918 H   0  0  0  0  0  0  0  0  0  0  0  0
   -3.6363   -2.5331   -1.8704 H   0  0  0  0  0  0  0  0  0  0  0  0
   -2.2356   -2.9368   -0.8675 H   0  0  0  0  0  0  0  0  0  0  0  0
    2.9145    2.3826   -1.5281 H   0  0  0  0  0  0  0  0  0  0  0  0
    5.8703    2.0082   -1.0435 H   0  0  0  0  0  0  0  0  0  0  0  0
  2  1  1  0  0  0  0
  3  2  2  0  0  0  0
  3 24  1  0  0  0  0
  4  3  1  0  0  0  0
  4 25  1  0  0  0  0
  5  4  2  0  0  0  0
  6  5  1  0  0  0  0
  6 26  1  0  0  0  0
  7  6  1  0  0  0  0
  8  7  1  0  0  0  0
  8 27  1  0  0  0  0
  9  8  2  0  0  0  0
 10  9  1  0  0  0  0
 11 10  2  0  0  0  0
 12 11  1  0  0  0  0
 13 12  3  0  0  0  0
 14 11  1  0  0  0  0
 15 14  2  0  0  0  0
 16 15  1  0  0  0  0
 16 28  1  0  0  0  0
 16 29  1  0  0  0  0
 17 16  1  0  0  0  0
 17 30  1  0  0  0  0
 17 31  1  0  0  0  0
 18 17  1  0  0  0  0
 18 32  1  0  0  0  0
 18 33  1  0  0  0  0
 19 18  1  0  0  0  0
 19 14  1  0  0  0  0
 19 34  1  0  0  0  0
 19 35  1  0  0  0  0
 20 15  1  0  0  0  0
 20 10  1  0  0  0  0
 21  7  2  0  0  0  0
 21 36  1  0  0  0  0
 22 21  1  0  0  0  0
 22  5  1  0  0  0  0
 23 22  2  0  0  0  0
 23  2  1  0  0  0  0
 23 37  1  0  0  0  0
M  END
>  <MOL Chiral Flag>
0

>  <energy>
62.124694899441096

$$$$
> 387_AKC_j.biopha.2015.10.028
>372.sdf
 OpenBabel10062213083D

 26 27  0  0  0  0  0  0  0  0999 V2000
    3.0804   -1.1774    0.4497 C   0  0  0  0  0  0  0  0  0  0  0  0
    3.2514    0.3076    0.1090 C   0  0  0  0  0  0  0  0  0  0  0  0
    2.2545    0.7660   -0.9655 C   0  0  0  0  0  0  0  0  0  0  0  0
    0.8332    0.7134   -0.4839 C   0  0  0  0  0  0  0  0  0  0  0  0
    0.0160   -0.2800   -0.9280 N   0  0  0  0  0  0  0  0  0  0  0  0
   -1.2723   -0.3860   -0.5143 C   0  0  0  0  0  0  0  0  0  0  0  0
   -2.0661   -1.4440   -0.9678 C   0  0  0  0  0  0  0  0  0  0  0  0
   -3.3917   -1.5562   -0.5415 C   0  0  0  0  0  0  0  0  0  0  0  0
   -3.9317   -0.6086    0.3352 C   0  0  0  0  0  0  0  0  0  0  0  0
   -3.1449    0.4536    0.7961 C   0  0  0  0  0  0  0  0  0  0  0  0
   -1.8103    0.5668    0.3791 C   0  0  0  0  0  0  0  0  0  0  0  0
   -0.9903    1.6070    0.8353 C   0  0  0  0  0  0  0  0  0  0  0  0
    0.3394    1.6753    0.4129 C   0  0  0  0  0  0  0  0  0  0  0  0
    3.1996   -1.7983   -0.4653 H   0  0  0  0  0  0  0  0  0  0  0  0
    3.8556   -1.4863    1.1817 H   0  0  0  0  0  0  0  0  0  0  0  0
    2.0804   -1.3752    0.8897 H   0  0  0  0  0  0  0  0  0  0  0  0
    4.2789    0.4459   -0.2900 H   0  0  0  0  0  0  0  0  0  0  0  0
    3.1469    0.9217    1.0292 H   0  0  0  0  0  0  0  0  0  0  0  0
    2.4813    1.8022   -1.2981 H   0  0  0  0  0  0  0  0  0  0  0  0
    2.3778    0.1007   -1.8476 H   0  0  0  0  0  0  0  0  0  0  0  0
   -1.6531   -2.1808   -1.6457 H   0  0  0  0  0  0  0  0  0  0  0  0
   -4.0014   -2.3790   -0.8915 H   0  0  0  0  0  0  0  0  0  0  0  0
   -4.9598   -0.7001    0.6599 H   0  0  0  0  0  0  0  0  0  0  0  0
   -3.5739    1.1786    1.4776 H   0  0  0  0  0  0  0  0  0  0  0  0
   -1.3759    2.3558    1.5177 H   0  0  0  0  0  0  0  0  0  0  0  0
    0.9761    2.4777    0.7663 H   0  0  0  0  0  0  0  0  0  0  0  0
  1 14  1  0  0  0  0
  1 15  1  0  0  0  0
  1 16  1  0  0  0  0
  2  1  1  0  0  0  0
  2 17  1  0  0  0  0
  2 18  1  0  0  0  0
  3  2  1  0  0  0  0
  3 19  1  0  0  0  0
  3 20  1  0  0  0  0
  4  3  1  0  0  0  0
  5  4  2  0  0  0  0
  6  5  1  0  0  0  0
  7  6  2  0  0  0  0
  7 21  1  0  0  0  0
  8  7  1  0  0  0  0
  8 22  1  0  0  0  0
  9  8  2  0  0  0  0
  9 23  1  0  0  0  0
 10  9  1  0  0  0  0
 10 24  1  0  0  0  0
 11 10  2  0  0  0  0
 11  6  1  0  0  0  0
 12 11  1  0  0  0  0
 12 25  1  0  0  0  0
 13 12  2  0  0  0  0
 13  4  1  0  0  0  0
 13 26  1  0  0  0  0
M  END
>  <MOL Chiral Flag>
0

>  <energy>
33.972951641385684

$$$$
> 388_AKC_j.bmcl.2015.10.062
>373.sdf
 OpenBabel10062213093D

 71 74  0  0  0  0  0  0  0  0999 V2000
   -2.9932   -1.6848    0.0664 C   0  0  0  0  0  0  0  0  0  0  0  0
   -1.9110   -0.8952    0.8668 C   0  0  1  0  0  0  0  0  0  0  0  0
   -1.8492   -1.4879    2.3051 C   0  0  0  0  0  0  0  0  0  0  0  0
   -1.2259   -2.8981    2.3363 C   0  0  0  0  0  0  0  0  0  0  0  0
    0.2315   -2.8220    1.8805 C   0  0  0  0  0  0  0  0  0  0  0  0
    0.4152   -2.2633    0.4325 C   0  0  1  0  0  0  0  0  0  0  0  0
    0.0503   -3.3698   -0.5910 C   0  0  0  0  0  0  0  0  0  0  0  0
   -0.4434   -0.9470    0.2578 C   0  0  1  0  0  0  0  0  0  0  0  0
   -0.4480   -0.4374   -1.2085 C   0  0  0  0  0  0  0  0  0  0  0  0
   -0.9257    1.0102   -1.2801 C   0  0  0  0  0  0  0  0  0  0  0  0
   -2.2517    1.1337   -0.5800 C   0  0  0  0  0  0  0  0  0  0  0  0
   -3.3164    1.6099   -1.2587 C   0  0  0  0  0  0  0  0  0  0  0  0
   -2.2983    0.6479    0.8814 C   0  0  1  0  0  0  0  0  0  0  0  0
   -3.5831    1.0392    1.6667 C   0  0  0  0  0  0  0  0  0  0  0  0
   -3.6092    2.5108    2.1731 C   0  0  0  0  0  0  0  0  0  0  0  0
   -3.4444    3.6180    1.1643 C   0  0  0  0  0  0  0  0  0  0  0  0
   -4.4045    4.5373    0.7966 C   0  0  0  0  0  0  0  0  0  0  0  0
   -3.8913    5.3696   -0.0828 O   0  0  0  0  0  0  0  0  0  0  0  0
   -2.6347    5.0495   -0.3018 C   0  0  0  0  0  0  0  0  0  0  0  0
   -2.3000    3.9579    0.4699 C   0  0  0  0  0  0  0  0  0  0  0  0
    1.9072   -1.8339    0.3379 C   0  0  0  0  0  0  0  0  0  0  0  0
    2.3351   -1.1148    1.2327 O   0  0  0  0  0  0  0  0  0  0  0  0
    2.7461   -2.1700   -0.6933 N   0  0  0  0  0  0  0  0  0  0  0  0
    4.1450   -1.7338   -0.6936 C   0  0  0  0  0  0  0  0  0  0  0  0
    4.4729   -0.7477   -1.8486 C   0  0  0  0  0  0  0  0  0  0  0  0
    5.9380   -0.2439   -1.7643 C   0  0  0  0  0  0  0  0  0  0  0  0
    6.1609    0.7096   -0.5664 C   0  0  0  0  0  0  0  0  0  0  0  0
    5.1937    1.9019   -0.6349 C   0  0  0  0  0  0  0  0  0  0  0  0
    3.7403    1.4199   -0.6923 C   0  0  0  0  0  0  0  0  0  0  0  0
    3.5480    0.4910   -1.9007 C   0  0  0  0  0  0  0  0  0  0  0  0
   -3.1193   -1.3154   -0.9692 H   0  0  0  0  0  0  0  0  0  0  0  0
   -3.9804   -1.5752    0.5629 H   0  0  0  0  0  0  0  0  0  0  0  0
   -2.8047   -2.7647   -0.0004 H   0  0  0  0  0  0  0  0  0  0  0  0
   -2.8632   -1.5544    2.7502 H   0  0  0  0  0  0  0  0  0  0  0  0
   -1.2370   -0.8247    2.9566 H   0  0  0  0  0  0  0  0  0  0  0  0
   -1.2426   -3.2684    3.3845 H   0  0  0  0  0  0  0  0  0  0  0  0
   -1.7992   -3.6260    1.7314 H   0  0  0  0  0  0  0  0  0  0  0  0
    0.7313   -3.8106    1.9823 H   0  0  0  0  0  0  0  0  0  0  0  0
    0.7135   -2.1468    2.6218 H   0  0  0  0  0  0  0  0  0  0  0  0
    0.1757   -3.0291   -1.6383 H   0  0  0  0  0  0  0  0  0  0  0  0
    0.7107   -4.2515   -0.4445 H   0  0  0  0  0  0  0  0  0  0  0  0
   -0.9827   -3.7323   -0.4805 H   0  0  0  0  0  0  0  0  0  0  0  0
    0.1185   -0.2040    0.8685 H   0  0  0  0  0  0  0  0  0  0  0  0
   -1.0903   -1.0828   -1.8421 H   0  0  0  0  0  0  0  0  0  0  0  0
    0.5560   -0.4879   -1.6453 H   0  0  0  0  0  0  0  0  0  0  0  0
   -0.9657    1.3383   -2.3424 H   0  0  0  0  0  0  0  0  0  0  0  0
   -0.1909    1.6556   -0.7532 H   0  0  0  0  0  0  0  0  0  0  0  0
   -3.2155    1.9180   -2.2945 H   0  0  0  0  0  0  0  0  0  0  0  0
   -4.2967    1.7028   -0.8141 H   0  0  0  0  0  0  0  0  0  0  0  0
   -1.4919    1.1680    1.4457 H   0  0  0  0  0  0  0  0  0  0  0  0
   -4.4998    0.7628    1.1106 H   0  0  0  0  0  0  0  0  0  0  0  0
   -3.6259    0.4660    2.6115 H   0  0  0  0  0  0  0  0  0  0  0  0
   -4.5794    2.6477    2.6971 H   0  0  0  0  0  0  0  0  0  0  0  0
   -2.8071    2.6521    2.9313 H   0  0  0  0  0  0  0  0  0  0  0  0
   -5.4207    4.5850    1.1628 H   0  0  0  0  0  0  0  0  0  0  0  0
   -1.9757    5.5777   -0.9786 H   0  0  0  0  0  0  0  0  0  0  0  0
   -1.3317    3.4792    0.5177 H   0  0  0  0  0  0  0  0  0  0  0  0
    2.4077   -2.7240   -1.4904 H   0  0  0  0  0  0  0  0  0  0  0  0
    4.7985   -2.6288   -0.7734 H   0  0  0  0  0  0  0  0  0  0  0  0
    4.4066   -1.2603    0.2685 H   0  0  0  0  0  0  0  0  0  0  0  0
    4.3380   -1.3145   -2.7959 H   0  0  0  0  0  0  0  0  0  0  0  0
    6.1708    0.3218   -2.6937 H   0  0  0  0  0  0  0  0  0  0  0  0
    6.6414   -1.1016   -1.7078 H   0  0  0  0  0  0  0  0  0  0  0  0
    6.0185    0.1761    0.3949 H   0  0  0  0  0  0  0  0  0  0  0  0
    7.2056    1.0863   -0.5758 H   0  0  0  0  0  0  0  0  0  0  0  0
    5.3359    2.5595    0.2501 H   0  0  0  0  0  0  0  0  0  0  0  0
    5.4116    2.4991   -1.5472 H   0  0  0  0  0  0  0  0  0  0  0  0
    3.4815    0.8951    0.2480 H   0  0  0  0  0  0  0  0  0  0  0  0
    3.0614    2.2953   -0.7844 H   0  0  0  0  0  0  0  0  0  0  0  0
    2.5014    0.1769   -1.9758 H   0  0  0  0  0  0  0  0  0  0  0  0
    3.7715    1.0702   -2.8241 H   0  0  0  0  0  0  0  0  0  0  0  0
  1 31  1  0  0  0  0
  1 32  1  0  0  0  0
  1 33  1  0  0  0  0
  2  1  1  6  0  0  0
  3  2  1  0  0  0  0
  3 34  1  0  0  0  0
  3 35  1  0  0  0  0
  4  3  1  0  0  0  0
  4 36  1  0  0  0  0
  4 37  1  0  0  0  0
  5  4  1  0  0  0  0
  5 38  1  0  0  0  0
  5 39  1  0  0  0  0
  6  5  1  0  0  0  0
  6  7  1  6  0  0  0
  7 40  1  0  0  0  0
  7 41  1  0  0  0  0
  7 42  1  0  0  0  0
  8  6  1  0  0  0  0
  8  2  1  0  0  0  0
  8 43  1  1  0  0  0
  9  8  1  0  0  0  0
  9 44  1  0  0  0  0
  9 45  1  0  0  0  0
 10  9  1  0  0  0  0
 10 46  1  0  0  0  0
 10 47  1  0  0  0  0
 11 10  1  0  0  0  0
 12 11  2  0  0  0  0
 12 48  1  0  0  0  0
 12 49  1  0  0  0  0
 13 11  1  0  0  0  0
 13  2  1  0  0  0  0
 13 50  1  1  0  0  0
 14 13  1  0  0  0  0
 14 51  1  0  0  0  0
 14 52  1  0  0  0  0
 15 14  1  0  0  0  0
 15 53  1  0  0  0  0
 15 54  1  0  0  0  0
 16 15  1  0  0  0  0
 17 16  2  0  0  0  0
 17 55  1  0  0  0  0
 18 17  1  0  0  0  0
 19 18  1  0  0  0  0
 19 56  1  0  0  0  0
 20 19  2  0  0  0  0
 20 16  1  0  0  0  0
 20 57  1  0  0  0  0
 21  6  1  0  0  0  0
 22 21  2  0  0  0  0
 23 21  1  0  0  0  0
 23 58  1  0  0  0  0
 24 23  1  0  0  0  0
 24 59  1  0  0  0  0
 24 60  1  0  0  0  0
 25 24  1  0  0  0  0
 25 61  1  0  0  0  0
 26 25  1  0  0  0  0
 26 62  1  0  0  0  0
 26 63  1  0  0  0  0
 27 26  1  0  0  0  0
 27 64  1  0  0  0  0
 27 65  1  0  0  0  0
 28 27  1  0  0  0  0
 28 66  1  0  0  0  0
 28 67  1  0  0  0  0
 29 28  1  0  0  0  0
 29 68  1  0  0  0  0
 29 69  1  0  0  0  0
 30 29  1  0  0  0  0
 30 25  1  0  0  0  0
 30 70  1  0  0  0  0
 30 71  1  0  0  0  0
M  END
>  <MOL Chiral Flag>
0

>  <energy>
59.174862113409461

$$$$
> 389_AKC_j.parint.2015.06.011
>374.sdf
 OpenBabel10062213093D

 47 51  0  0  0  0  0  0  0  0999 V2000
    5.8178   -0.4021   -0.3168 C   0  0  0  0  0  0  0  0  0  0  0  0
    4.7031   -0.4013    0.7253 C   0  0  0  0  0  0  0  0  0  0  0  0
    3.4585    0.2514    0.1801 C   0  0  0  0  0  0  0  0  0  0  0  0
    2.3539   -0.5362   -0.1624 C   0  0  0  0  0  0  0  0  0  0  0  0
    1.1995    0.0461   -0.7023 C   0  0  0  0  0  0  0  0  0  0  0  0
    1.1326    1.4480   -0.8717 C   0  0  0  0  0  0  0  0  0  0  0  0
   -0.0546    2.0702   -1.3665 N   0  0  0  0  0  0  0  0  0  0  0  0
   -1.2872    1.3150   -1.5151 C   0  0  1  0  0  0  0  0  0  0  0  0
   -0.9880   -0.1357   -2.0083 C   0  0  2  0  0  0  0  0  0  0  0  0
   -2.2465   -1.0400   -1.9274 C   0  0  0  0  0  0  0  0  0  0  0  0
   -2.0739   -1.6266   -0.5677 C   0  0  0  0  0  0  0  0  0  0  0  0
   -3.0406   -2.2918    0.1869 C   0  0  0  0  0  0  0  0  0  0  0  0
   -2.6760   -2.8262    1.4325 C   0  0  0  0  0  0  0  0  0  0  0  0
   -1.3513   -2.7078    1.8922 C   0  0  0  0  0  0  0  0  0  0  0  0
   -0.3883   -2.0567    1.1074 C   0  0  0  0  0  0  0  0  0  0  0  0
   -0.7771   -1.5104   -0.1207 C   0  0  0  0  0  0  0  0  0  0  0  0
    0.0721   -0.8512   -1.1489 C   0  0  2  0  0  0  0  0  0  0  0  0
   -2.1643    1.4700   -0.2823 C   0  0  0  0  0  0  0  0  0  0  0  0
   -3.4697    1.8289   -0.4537 N   0  0  0  0  0  0  0  0  0  0  0  0
   -4.3253    1.9666    0.5930 C   0  0  0  0  0  0  0  0  0  0  0  0
   -3.8744    1.7582    1.8958 C   0  0  0  0  0  0  0  0  0  0  0  0
   -2.5415    1.4067    2.1087 C   0  0  0  0  0  0  0  0  0  0  0  0
   -1.6791    1.2560    1.0206 C   0  0  0  0  0  0  0  0  0  0  0  0
    2.2395    2.2363   -0.5157 C   0  0  0  0  0  0  0  0  0  0  0  0
    3.3988    1.6412   -0.0056 C   0  0  0  0  0  0  0  0  0  0  0  0
    5.4889   -0.9781   -1.2103 H   0  0  0  0  0  0  0  0  0  0  0  0
    6.7192   -0.8969    0.1020 H   0  0  0  0  0  0  0  0  0  0  0  0
    6.0815    0.6297   -0.6271 H   0  0  0  0  0  0  0  0  0  0  0  0
    4.5033   -1.4641    0.9844 H   0  0  0  0  0  0  0  0  0  0  0  0
    5.0224    0.1167    1.6554 H   0  0  0  0  0  0  0  0  0  0  0  0
    2.4073   -1.6117   -0.0468 H   0  0  0  0  0  0  0  0  0  0  0  0
   -0.1125    3.1000   -1.3551 H   0  0  0  0  0  0  0  0  0  0  0  0
   -1.8708    1.7562   -2.3549 H   0  0  0  0  0  0  0  0  0  0  0  0
   -0.6122   -0.0068   -3.0490 H   0  0  0  0  0  0  0  0  0  0  0  0
   -3.1805   -0.4612   -2.0902 H   0  0  0  0  0  0  0  0  0  0  0  0
   -2.1902   -1.8864   -2.6453 H   0  0  0  0  0  0  0  0  0  0  0  0
   -4.0530   -2.3943   -0.1807 H   0  0  0  0  0  0  0  0  0  0  0  0
   -3.4118   -3.3414    2.0355 H   0  0  0  0  0  0  0  0  0  0  0  0
   -1.0703   -3.1327    2.8470 H   0  0  0  0  0  0  0  0  0  0  0  0
    0.6325   -1.9875    1.4537 H   0  0  0  0  0  0  0  0  0  0  0  0
    0.4961   -1.6680   -1.7765 H   0  0  0  0  0  0  0  0  0  0  0  0
   -5.3574    2.2374    0.4123 H   0  0  0  0  0  0  0  0  0  0  0  0
   -4.5521    1.8706    2.7322 H   0  0  0  0  0  0  0  0  0  0  0  0
   -2.1781    1.2498    3.1158 H   0  0  0  0  0  0  0  0  0  0  0  0
   -0.6487    0.9849    1.1969 H   0  0  0  0  0  0  0  0  0  0  0  0
    2.2024    3.3119   -0.6350 H   0  0  0  0  0  0  0  0  0  0  0  0
    4.2455    2.2633    0.2582 H   0  0  0  0  0  0  0  0  0  0  0  0
  1 26  1  0  0  0  0
  1 27  1  0  0  0  0
  1 28  1  0  0  0  0
  2  1  1  0  0  0  0
  2 29  1  0  0  0  0
  2 30  1  0  0  0  0
  3  2  1  0  0  0  0
  4  3  2  0  0  0  0
  4 31  1  0  0  0  0
  5  4  1  0  0  0  0
  6  5  2  0  0  0  0
  7  6  1  0  0  0  0
  7 32  1  0  0  0  0
  8  7  1  0  0  0  0
  8 33  1  6  0  0  0
  9  8  1  0  0  0  0
  9 34  1  6  0  0  0
 10  9  1  0  0  0  0
 10 35  1  0  0  0  0
 10 36  1  0  0  0  0
 11 10  1  0  0  0  0
 12 11  2  0  0  0  0
 12 37  1  0  0  0  0
 13 12  1  0  0  0  0
 13 38  1  0  0  0  0
 14 13  2  0  0  0  0
 14 39  1  0  0  0  0
 15 14  1  0  0  0  0
 15 40  1  0  0  0  0
 16 15  2  0  0  0  0
 16 11  1  0  0  0  0
 17 16  1  0  0  0  0
 17  5  1  0  0  0  0
 17  9  1  0  0  0  0
 17 41  1  6  0  0  0
 18  8  1  0  0  0  0
 19 18  2  0  0  0  0
 20 19  1  0  0  0  0
 20 42  1  0  0  0  0
 21 20  2  0  0  0  0
 21 43  1  0  0  0  0
 22 21  1  0  0  0  0
 22 44  1  0  0  0  0
 23 22  2  0  0  0  0
 23 18  1  0  0  0  0
 23 45  1  0  0  0  0
 24  6  1  0  0  0  0
 24 46  1  0  0  0  0
 25 24  2  0  0  0  0
 25  3  1  0  0  0  0
 25 47  1  0  0  0  0
M  END
>  <MOL Chiral Flag>
0

>  <energy>
73.639515140715531

$$$$
> 390_AKC_s00436-015-4708-4
>375.sdf
 OpenBabel10062213093D

 67 72  0  0  0  0  0  0  0  0999 V2000
    1.1107    3.0191   -3.7653 C   0  0  0  0  0  0  0  0  0  0  0  0
    0.0935    2.9734   -2.8332 O   0  0  0  0  0  0  0  0  0  0  0  0
   -0.4708    1.8320   -2.3516 C   0  0  0  0  0  0  0  0  0  0  0  0
   -0.9086    1.7963   -1.0129 C   0  0  0  0  0  0  0  0  0  0  0  0
   -1.3901    0.6692   -0.5125 O   0  0  0  0  0  0  0  0  0  0  0  0
   -1.4849   -0.4625   -1.1916 C   0  0  0  0  0  0  0  0  0  0  0  0
   -1.9172   -1.6085   -0.5122 C   0  0  0  0  0  0  0  0  0  0  0  0
   -2.0453   -2.8155   -1.1974 C   0  0  0  0  0  0  0  0  0  0  0  0
   -1.7550   -2.8858   -2.5550 C   0  0  0  0  0  0  0  0  0  0  0  0
   -1.3126   -1.7613   -3.2622 C   0  0  0  0  0  0  0  0  0  0  0  0
   -1.0617   -1.9354   -4.5814 O   0  0  0  0  0  0  0  0  0  0  0  0
   -1.1465   -0.5159   -2.5653 C   0  0  0  0  0  0  0  0  0  0  0  0
   -0.6322    0.6719   -3.1495 C   0  0  0  0  0  0  0  0  0  0  0  0
   -0.3120    0.7005   -4.3182 O   0  0  0  0  0  0  0  0  0  0  0  0
   -2.2092   -1.5585    0.9410 C   0  0  0  0  0  0  0  0  0  0  0  0
   -3.5468   -1.5115    1.3974 C   0  0  0  0  0  0  0  0  0  0  0  0
   -4.5808   -1.4805    0.5257 O   0  0  0  0  0  0  0  0  0  0  0  0
   -3.8133   -1.4840    2.7800 C   0  0  0  0  0  0  0  0  0  0  0  0
   -5.0797   -1.4117    3.2416 O   0  0  0  0  0  0  0  0  0  0  0  0
   -2.7608   -1.5303    3.6972 C   0  0  0  0  0  0  0  0  0  0  0  0
   -1.4412   -1.5879    3.2547 C   0  0  0  0  0  0  0  0  0  0  0  0
   -1.1526   -1.5867    1.8842 C   0  0  0  0  0  0  0  0  0  0  0  0
    0.2598   -1.6339    1.4599 C   0  0  0  0  0  0  0  0  0  0  0  0
    0.9566   -2.8460    1.4434 C   0  0  0  0  0  0  0  0  0  0  0  0
    0.2778   -3.9808    1.7666 O   0  0  0  0  0  0  0  0  0  0  0  0
    0.4183   -5.1844    1.1036 C   0  0  0  0  0  0  0  0  0  0  0  0
    2.3124   -2.8441    1.0448 C   0  0  0  0  0  0  0  0  0  0  0  0
    2.9394   -3.8836    1.0552 O   0  0  0  0  0  0  0  0  0  0  0  0
    2.9179   -1.6283    0.6292 C   0  0  0  0  0  0  0  0  0  0  0  0
    4.2775   -1.5028    0.1811 C   0  0  0  0  0  0  0  0  0  0  0  0
    5.1630   -2.5273    0.1409 O   0  0  0  0  0  0  0  0  0  0  0  0
    4.7428   -0.2556   -0.2547 C   0  0  0  0  0  0  0  0  0  0  0  0
    3.9136    0.8684   -0.2503 C   0  0  0  0  0  0  0  0  0  0  0  0
    4.3683    2.0606   -0.6866 O   0  0  0  0  0  0  0  0  0  0  0  0
    2.6054    0.7606    0.2054 C   0  0  0  0  0  0  0  0  0  0  0  0
    2.1022   -0.4647    0.6400 C   0  0  0  0  0  0  0  0  0  0  0  0
    0.8426   -0.5165    1.0535 O   0  0  0  0  0  0  0  0  0  0  0  0
   -0.7953    2.9396   -0.0668 C   0  0  0  0  0  0  0  0  0  0  0  0
   -1.7369    3.0456    0.9719 C   0  0  0  0  0  0  0  0  0  0  0  0
   -1.6430    4.0670    1.9167 C   0  0  0  0  0  0  0  0  0  0  0  0
   -0.5908    4.9835    1.8626 C   0  0  0  0  0  0  0  0  0  0  0  0
   -0.5014    5.9382    2.8123 O   0  0  0  0  0  0  0  0  0  0  0  0
    0.3652    4.8879    0.8358 C   0  0  0  0  0  0  0  0  0  0  0  0
    1.4001    5.7532    0.7933 O   0  0  0  0  0  0  0  0  0  0  0  0
    0.2536    3.8782   -0.1316 C   0  0  0  0  0  0  0  0  0  0  0  0
    1.5093    4.0518   -3.8110 H   0  0  0  0  0  0  0  0  0  0  0  0
    1.9367    2.3503   -3.4339 H   0  0  0  0  0  0  0  0  0  0  0  0
    0.7656    2.7417   -4.7800 H   0  0  0  0  0  0  0  0  0  0  0  0
   -2.3651   -3.7074   -0.6727 H   0  0  0  0  0  0  0  0  0  0  0  0
   -1.8643   -3.8322   -3.0697 H   0  0  0  0  0  0  0  0  0  0  0  0
   -0.8182   -1.2570   -5.2171 H   0  0  0  0  0  0  0  0  0  0  0  0
   -4.4632   -1.4911   -0.4337 H   0  0  0  0  0  0  0  0  0  0  0  0
   -5.8425   -1.3500    2.6500 H   0  0  0  0  0  0  0  0  0  0  0  0
   -2.9682   -1.5170    4.7602 H   0  0  0  0  0  0  0  0  0  0  0  0
   -0.6381   -1.6213    3.9824 H   0  0  0  0  0  0  0  0  0  0  0  0
    0.2426   -5.0233    0.0161 H   0  0  0  0  0  0  0  0  0  0  0  0
    1.4102   -5.6466    1.2658 H   0  0  0  0  0  0  0  0  0  0  0  0
   -0.3502   -5.8920    1.4723 H   0  0  0  0  0  0  0  0  0  0  0  0
    5.0163   -3.4297    0.4359 H   0  0  0  0  0  0  0  0  0  0  0  0
    5.7639   -0.1639   -0.6052 H   0  0  0  0  0  0  0  0  0  0  0  0
    5.2669    2.1681   -1.0292 H   0  0  0  0  0  0  0  0  0  0  0  0
    1.9673    1.6333    0.2128 H   0  0  0  0  0  0  0  0  0  0  0  0
   -2.5553    2.3384    1.0445 H   0  0  0  0  0  0  0  0  0  0  0  0
   -2.3825    4.1359    2.7046 H   0  0  0  0  0  0  0  0  0  0  0  0
    0.2271    6.5739    2.8378 H   0  0  0  0  0  0  0  0  0  0  0  0
    2.0908    5.6885    0.1180 H   0  0  0  0  0  0  0  0  0  0  0  0
    1.0191    3.8087   -0.8874 H   0  0  0  0  0  0  0  0  0  0  0  0
  1 46  1  0  0  0  0
  1 47  1  0  0  0  0
  1 48  1  0  0  0  0
  2  1  1  0  0  0  0
  3  2  1  0  0  0  0
  4  3  2  0  0  0  0
  5  4  1  0  0  0  0
  6  5  1  0  0  0  0
  7  6  2  0  0  0  0
  8  7  1  0  0  0  0
  8 49  1  0  0  0  0
  9  8  2  0  0  0  0
  9 50  1  0  0  0  0
 10  9  1  0  0  0  0
 11 10  1  0  0  0  0
 11 51  1  0  0  0  0
 12 10  2  0  0  0  0
 12  6  1  0  0  0  0
 13 12  1  0  0  0  0
 13  3  1  0  0  0  0
 14 13  2  0  0  0  0
 15  7  1  0  0  0  0
 16 15  2  0  0  0  0
 17 16  1  0  0  0  0
 17 52  1  0  0  0  0
 18 16  1  0  0  0  0
 19 18  1  0  0  0  0
 19 53  1  0  0  0  0
 20 18  2  0  0  0  0
 20 54  1  0  0  0  0
 21 20  1  0  0  0  0
 21 55  1  0  0  0  0
 22 21  2  0  0  0  0
 22 15  1  0  0  0  0
 23 22  1  0  0  0  0
 24 23  2  0  0  0  0
 25 24  1  0  0  0  0
 26 25  1  0  0  0  0
 26 56  1  0  0  0  0
 26 57  1  0  0  0  0
 26 58  1  0  0  0  0
 27 24  1  0  0  0  0
 28 27  2  0  0  0  0
 29 27  1  0  0  0  0
 30 29  2  0  0  0  0
 31 30  1  0  0  0  0
 31 59  1  0  0  0  0
 32 30  1  0  0  0  0
 32 60  1  0  0  0  0
 33 32  2  0  0  0  0
 34 33  1  0  0  0  0
 34 61  1  0  0  0  0
 35 33  1  0  0  0  0
 35 62  1  0  0  0  0
 36 35  2  0  0  0  0
 36 29  1  0  0  0  0
 37 36  1  0  0  0  0
 37 23  1  0  0  0  0
 38  4  1  0  0  0  0
 39 38  2  0  0  0  0
 39 63  1  0  0  0  0
 40 39  1  0  0  0  0
 40 64  1  0  0  0  0
 41 40  2  0  0  0  0
 42 41  1  0  0  0  0
 42 65  1  0  0  0  0
 43 41  1  0  0  0  0
 44 43  1  0  0  0  0
 44 66  1  0  0  0  0
 45 43  2  0  0  0  0
 45 38  1  0  0  0  0
 45 67  1  0  0  0  0
M  END
>  <MOL Chiral Flag>
0

>  <energy>
133.21945010590855

$$$$
> 391_AKC_j.ejmech.2015.09.002
>376.sdf
 OpenBabel10062213103D

 46 49  0  0  0  0  0  0  0  0999 V2000
   -6.8584    2.8589    0.2128 F   0  0  0  0  0  0  0  0  0  0  0  0
   -5.8607    1.9439    0.1373 C   0  0  0  0  0  0  0  0  0  0  0  0
   -4.5703    2.3450   -0.2039 C   0  0  0  0  0  0  0  0  0  0  0  0
   -3.5425    1.4024   -0.2908 C   0  0  0  0  0  0  0  0  0  0  0  0
   -3.7880    0.0363   -0.0298 C   0  0  0  0  0  0  0  0  0  0  0  0
   -5.0994   -0.3504    0.3147 C   0  0  0  0  0  0  0  0  0  0  0  0
   -6.1246    0.5989    0.3949 C   0  0  0  0  0  0  0  0  0  0  0  0
   -2.6544   -0.9332   -0.1661 C   0  0  0  0  0  0  0  0  0  0  0  0
   -2.5739   -2.3110    0.1234 C   0  0  0  0  0  0  0  0  0  0  0  0
   -3.9999   -3.6635    0.9450 I   0  0  0  0  0  0  0  0  0  0  0  0
   -1.3431   -2.7200   -0.2442 N   0  0  0  0  0  0  0  0  0  0  0  0
   -0.7683   -3.9484   -0.2126 C   0  0  0  0  0  0  0  0  0  0  0  0
    0.5329   -4.0815   -0.7256 C   0  0  0  0  0  0  0  0  0  0  0  0
    1.1744   -2.9875   -1.2440 N   0  0  0  0  0  0  0  0  0  0  0  0
    0.5857   -1.7544   -1.2463 C   0  0  0  0  0  0  0  0  0  0  0  0
    1.2295   -0.6254   -1.8305 N   0  0  0  0  0  0  0  0  0  0  0  0
    2.1510   -0.7802   -2.9408 C   0  0  0  0  0  0  0  0  0  0  0  0
    3.2277    0.3219   -2.9701 C   0  0  0  0  0  0  0  0  0  0  0  0
    4.3205    0.1440   -1.9830 N   0  3  0  0  0  0  0  0  0  0  0  0
    5.2003   -0.9879   -2.3676 C   0  0  0  0  0  0  0  0  0  0  0  0
    6.4258   -1.0639   -1.4450 C   0  0  0  0  0  0  0  0  0  0  0  0
    7.1620    0.1422   -1.4938 O   0  0  0  0  0  0  0  0  0  0  0  0
    6.3515    1.2017   -1.0256 C   0  0  0  0  0  0  0  0  0  0  0  0
    5.1298    1.3841   -1.9378 C   0  0  0  0  0  0  0  0  0  0  0  0
   -0.7062   -1.6443   -0.7218 C   0  0  0  0  0  0  0  0  0  0  0  0
   -1.4641   -0.5369   -0.6859 N   0  0  0  0  0  0  0  0  0  0  0  0
   -4.3639    3.3882   -0.4068 H   0  0  0  0  0  0  0  0  0  0  0  0
   -2.5518    1.7434   -0.5632 H   0  0  0  0  0  0  0  0  0  0  0  0
   -5.3552   -1.3701    0.5048 H   0  0  0  0  0  0  0  0  0  0  0  0
   -7.1289    0.2870    0.6520 H   0  0  0  0  0  0  0  0  0  0  0  0
   -1.2972   -4.8085    0.1779 H   0  0  0  0  0  0  0  0  0  0  0  0
    1.0202   -5.0469   -0.7280 H   0  0  0  0  0  0  0  0  0  0  0  0
    0.7732    0.2938   -1.7289 H   0  0  0  0  0  0  0  0  0  0  0  0
    1.5407   -0.6361   -3.8581 H   0  0  0  0  0  0  0  0  0  0  0  0
    2.5749   -1.8011   -3.0118 H   0  0  0  0  0  0  0  0  0  0  0  0
    2.7109    1.2980   -2.8213 H   0  0  0  0  0  0  0  0  0  0  0  0
    3.6648    0.3500   -3.9943 H   0  0  0  0  0  0  0  0  0  0  0  0
    3.9162   -0.0254   -1.0308 H   0  0  0  0  0  0  0  0  0  0  0  0
    5.5672   -0.8551   -3.4120 H   0  0  0  0  0  0  0  0  0  0  0  0
    4.6608   -1.9553   -2.3055 H   0  0  0  0  0  0  0  0  0  0  0  0
    7.0805   -1.8904   -1.7951 H   0  0  0  0  0  0  0  0  0  0  0  0
    6.1303   -1.3033   -0.3990 H   0  0  0  0  0  0  0  0  0  0  0  0
    6.9499    2.1373   -1.0412 H   0  0  0  0  0  0  0  0  0  0  0  0
    6.0467    1.0286    0.0312 H   0  0  0  0  0  0  0  0  0  0  0  0
    5.4949    1.6475   -2.9578 H   0  0  0  0  0  0  0  0  0  0  0  0
    4.5190    2.2329   -1.5561 H   0  0  0  0  0  0  0  0  0  0  0  0
  2  1  1  0  0  0  0
  3  2  2  0  0  0  0
  3 27  1  0  0  0  0
  4  3  1  0  0  0  0
  4 28  1  0  0  0  0
  5  4  2  0  0  0  0
  6  5  1  0  0  0  0
  6 29  1  0  0  0  0
  7  6  2  0  0  0  0
  7  2  1  0  0  0  0
  7 30  1  0  0  0  0
  8  5  1  0  0  0  0
  9  8  2  0  0  0  0
 10  9  1  0  0  0  0
 11  9  1  0  0  0  0
 12 11  1  0  0  0  0
 12 31  1  0  0  0  0
 13 12  2  0  0  0  0
 13 32  1  0  0  0  0
 14 13  1  0  0  0  0
 15 14  2  0  0  0  0
 16 15  1  0  0  0  0
 16 33  1  0  0  0  0
 17 16  1  0  0  0  0
 17 34  1  0  0  0  0
 17 35  1  0  0  0  0
 18 17  1  0  0  0  0
 18 36  1  0  0  0  0
 18 37  1  0  0  0  0
 19 18  1  0  0  0  0
 19 38  1  0  0  0  0
 20 19  1  0  0  0  0
 20 39  1  0  0  0  0
 20 40  1  0  0  0  0
 21 20  1  0  0  0  0
 21 41  1  0  0  0  0
 21 42  1  0  0  0  0
 22 21  1  0  0  0  0
 23 22  1  0  0  0  0
 23 43  1  0  0  0  0
 23 44  1  0  0  0  0
 24 23  1  0  0  0  0
 24 19  1  0  0  0  0
 24 45  1  0  0  0  0
 24 46  1  0  0  0  0
 25 15  1  0  0  0  0
 25 11  1  0  0  0  0
 26 25  2  0  0  0  0
 26  8  1  0  0  0  0
M  CHG  1  19   1
M  END
>  <MOL Chiral Flag>
0

>  <energy>
105.24662911283124

$$$$
> 392_AKC_j.ejmech.2015.09.002
>377.sdf
 OpenBabel10062213103D

 41 44  0  0  0  0  0  0  0  0999 V2000
   -0.1009    4.1474   -0.2865 C   0  0  0  0  0  0  0  0  0  0  0  0
   -1.4442    3.7316   -0.6597 N   0  0  0  0  0  0  0  0  0  0  0  0
   -2.3693    4.7110   -1.2100 C   0  0  0  0  0  0  0  0  0  0  0  0
   -1.8962    2.3774   -0.4872 C   0  0  0  0  0  0  0  0  0  0  0  0
   -3.2337    2.0989   -0.5905 N   0  0  0  0  0  0  0  0  0  0  0  0
   -3.7322    0.8358   -0.4347 C   0  0  0  0  0  0  0  0  0  0  0  0
   -2.8587   -0.2265   -0.1871 C   0  0  0  0  0  0  0  0  0  0  0  0
   -1.5345    0.0478   -0.1128 N   0  0  0  0  0  0  0  0  0  0  0  0
   -1.0327    1.2896   -0.2318 C   0  0  0  0  0  0  0  0  0  0  0  0
    0.3148    1.3070   -0.1099 N   0  0  0  0  0  0  0  0  0  0  0  0
    0.6589    0.0073    0.0631 C   0  0  0  0  0  0  0  0  0  0  0  0
   -0.4879   -0.7689    0.0727 C   0  0  0  0  0  0  0  0  0  0  0  0
   -0.5867   -2.2088    0.3558 C   0  0  0  0  0  0  0  0  0  0  0  0
   -0.7498   -2.6252    1.6824 C   0  0  0  0  0  0  0  0  0  0  0  0
   -0.8550   -3.9863    1.9684 C   0  0  0  0  0  0  0  0  0  0  0  0
   -0.7993   -4.8993    0.9622 N   0  0  0  0  0  0  0  0  0  0  0  0
   -0.6429   -4.5189   -0.3355 C   0  0  0  0  0  0  0  0  0  0  0  0
   -0.5352   -3.1632   -0.6642 C   0  0  0  0  0  0  0  0  0  0  0  0
    2.0481   -0.4684    0.1684 C   0  0  0  0  0  0  0  0  0  0  0  0
    2.5166   -1.4513   -0.7201 C   0  0  0  0  0  0  0  0  0  0  0  0
    3.8433   -1.8844   -0.6557 C   0  0  0  0  0  0  0  0  0  0  0  0
    4.7020   -1.3629    0.3151 C   0  0  0  0  0  0  0  0  0  0  0  0
    5.9854   -1.7944    0.3853 F   0  0  0  0  0  0  0  0  0  0  0  0
    4.2383   -0.3926    1.2103 C   0  0  0  0  0  0  0  0  0  0  0  0
    2.9191    0.0693    1.1260 C   0  0  0  0  0  0  0  0  0  0  0  0
    0.0602    3.9478    0.7949 H   0  0  0  0  0  0  0  0  0  0  0  0
    0.0568    5.2346   -0.4481 H   0  0  0  0  0  0  0  0  0  0  0  0
    0.6583    3.6183   -0.8950 H   0  0  0  0  0  0  0  0  0  0  0  0
   -3.2668    4.7986   -0.5635 H   0  0  0  0  0  0  0  0  0  0  0  0
   -2.6829    4.3872   -2.2267 H   0  0  0  0  0  0  0  0  0  0  0  0
   -1.9113    5.7174   -1.3078 H   0  0  0  0  0  0  0  0  0  0  0  0
   -4.7964    0.6599   -0.5125 H   0  0  0  0  0  0  0  0  0  0  0  0
   -3.2295   -1.2379   -0.0756 H   0  0  0  0  0  0  0  0  0  0  0  0
   -0.7963   -1.8992    2.4861 H   0  0  0  0  0  0  0  0  0  0  0  0
   -0.9827   -4.3156    2.9915 H   0  0  0  0  0  0  0  0  0  0  0  0
   -0.6044   -5.2697   -1.1125 H   0  0  0  0  0  0  0  0  0  0  0  0
   -0.4146   -2.8630   -1.6969 H   0  0  0  0  0  0  0  0  0  0  0  0
    1.8659   -1.8531   -1.4861 H   0  0  0  0  0  0  0  0  0  0  0  0
    4.2051   -2.6223   -1.3610 H   0  0  0  0  0  0  0  0  0  0  0  0
    4.9022    0.0042    1.9669 H   0  0  0  0  0  0  0  0  0  0  0  0
    2.5688    0.8209    1.8222 H   0  0  0  0  0  0  0  0  0  0  0  0
  1 26  1  0  0  0  0
  1 27  1  0  0  0  0
  1 28  1  0  0  0  0
  2  1  1  0  0  0  0
  3  2  1  0  0  0  0
  3 29  1  0  0  0  0
  3 30  1  0  0  0  0
  3 31  1  0  0  0  0
  4  2  1  0  0  0  0
  5  4  2  0  0  0  0
  6  5  1  0  0  0  0
  6 32  1  0  0  0  0
  7  6  2  0  0  0  0
  7 33  1  0  0  0  0
  8  7  1  0  0  0  0
  9  8  1  0  0  0  0
  9  4  1  0  0  0  0
 10  9  2  0  0  0  0
 11 10  1  0  0  0  0
 12 11  2  0  0  0  0
 12  8  1  0  0  0  0
 13 12  1  0  0  0  0
 14 13  2  0  0  0  0
 14 34  1  0  0  0  0
 15 14  1  0  0  0  0
 15 35  1  0  0  0  0
 16 15  2  0  0  0  0
 17 16  1  0  0  0  0
 17 36  1  0  0  0  0
 18 17  2  0  0  0  0
 18 13  1  0  0  0  0
 18 37  1  0  0  0  0
 19 11  1  0  0  0  0
 20 19  2  0  0  0  0
 20 38  1  0  0  0  0
 21 20  1  0  0  0  0
 21 39  1  0  0  0  0
 22 21  2  0  0  0  0
 23 22  1  0  0  0  0
 24 22  1  0  0  0  0
 24 40  1  0  0  0  0
 25 24  2  0  0  0  0
 25 19  1  0  0  0  0
 25 41  1  0  0  0  0
M  END
>  <MOL Chiral Flag>
0

>  <energy>
43.007504384436139

$$$$
> 393_AKC_j.ejmech.2015.09.009
>378.sdf
 OpenBabel10062213113D

 25 26  0  0  0  0  0  0  0  0999 V2000
   -5.3066   -0.5997   -0.4173 N   0  0  0  0  0  0  0  0  0  0  0  0
   -4.1169    0.0088   -0.6915 C   0  0  0  0  0  0  0  0  0  0  0  0
   -4.0888    1.0383   -1.3524 O   0  0  0  0  0  0  0  0  0  0  0  0
   -3.0432   -0.6632   -0.1526 N   0  0  0  0  0  0  0  0  0  0  0  0
   -1.7676   -0.1998   -0.3048 N   0  0  0  0  0  0  0  0  0  0  0  0
   -0.8716   -0.9073    0.2958 C   0  0  0  0  0  0  0  0  0  0  0  0
    0.5467   -0.5371    0.2521 C   0  0  0  0  0  0  0  0  0  0  0  0
    1.0981    0.2959    1.2486 C   0  0  0  0  0  0  0  0  0  0  0  0
    2.4829    0.5163    1.2754 C   0  0  0  0  0  0  0  0  0  0  0  0
    3.2542   -0.1162    0.3214 C   0  0  0  0  0  0  0  0  0  0  0  0
    4.6103   -0.0636    0.2385 O   0  0  0  0  0  0  0  0  0  0  0  0
    4.8540   -0.9704   -0.8582 C   0  0  0  0  0  0  0  0  0  0  0  0
    3.6415   -1.4595   -1.4705 O   0  0  0  0  0  0  0  0  0  0  0  0
    2.7012   -0.9159   -0.6531 C   0  0  0  0  0  0  0  0  0  0  0  0
    1.3446   -1.1418   -0.7259 C   0  0  0  0  0  0  0  0  0  0  0  0
    0.2788    0.8760    2.2723 C   0  0  0  0  0  0  0  0  0  0  0  0
   -0.3608    1.3111    3.1369 N   0  0  0  0  0  0  0  0  0  0  0  0
   -6.1380   -0.1485   -0.7738 H   0  0  0  0  0  0  0  0  0  0  0  0
   -5.3975   -1.4504    0.1111 H   0  0  0  0  0  0  0  0  0  0  0  0
   -3.2120   -1.4927    0.3966 H   0  0  0  0  0  0  0  0  0  0  0  0
   -1.1106   -1.8174    0.8751 H   0  0  0  0  0  0  0  0  0  0  0  0
    2.9489    1.1355    2.0365 H   0  0  0  0  0  0  0  0  0  0  0  0
    5.4234   -1.8288   -0.4812 H   0  0  0  0  0  0  0  0  0  0  0  0
    5.4531   -0.4555   -1.6170 H   0  0  0  0  0  0  0  0  0  0  0  0
    0.9246   -1.7817   -1.4943 H   0  0  0  0  0  0  0  0  0  0  0  0
  1 18  1  0  0  0  0
  1 19  1  0  0  0  0
  2  1  1  0  0  0  0
  3  2  2  0  0  0  0
  4  2  1  0  0  0  0
  4 20  1  0  0  0  0
  5  4  1  0  0  0  0
  6  5  2  0  0  0  0
  6 21  1  0  0  0  0
  7  6  1  0  0  0  0
  8  7  2  0  0  0  0
  9  8  1  0  0  0  0
  9 22  1  0  0  0  0
 10  9  2  0  0  0  0
 11 10  1  0  0  0  0
 12 11  1  0  0  0  0
 12 23  1  0  0  0  0
 12 24  1  0  0  0  0
 13 12  1  0  0  0  0
 14 13  1  0  0  0  0
 14 10  1  0  0  0  0
 15 14  2  0  0  0  0
 15  7  1  0  0  0  0
 15 25  1  0  0  0  0
 16  8  1  0  0  0  0
 17 16  3  0  0  0  0
M  END
>  <MOL Chiral Flag>
0

>  <energy>
-10.225889483604568

$$$$
> 394_AKC_j.biopha.2015.08.030
>379.sdf
 OpenBabel10062213113D

 39 40  0  0  0  0  0  0  0  0999 V2000
    4.3282   -3.1333    0.2162 C   0  0  0  0  0  0  0  0  0  0  0  0
    4.2466   -1.6217    0.4603 C   0  0  0  0  0  0  0  0  0  0  0  0
    3.7193   -1.3511    1.8792 C   0  0  0  0  0  0  0  0  0  0  0  0
    3.3562   -0.9810   -0.6152 C   0  0  0  0  0  0  0  0  0  0  0  0
    3.1942    0.3753   -0.3723 O   0  0  0  0  0  0  0  0  0  0  0  0
    1.9584    0.9155   -0.2813 C   0  0  0  0  0  0  0  0  0  0  0  0
    0.9766    0.6028   -1.2269 C   0  0  0  0  0  0  0  0  0  0  0  0
   -0.3220    1.0551   -1.0624 C   0  0  0  0  0  0  0  0  0  0  0  0
   -0.6764    1.8454    0.0492 C   0  0  0  0  0  0  0  0  0  0  0  0
   -2.1001    2.2611    0.1772 C   0  0  0  0  0  0  0  0  0  0  0  0
   -2.3705    3.3766    0.6021 O   0  0  0  0  0  0  0  0  0  0  0  0
   -3.2105    1.3585   -0.2450 C   0  0  0  0  0  0  0  0  0  0  0  0
   -3.0767   -0.0469   -0.1636 C   0  0  0  0  0  0  0  0  0  0  0  0
   -4.1354   -0.8810   -0.5367 C   0  0  0  0  0  0  0  0  0  0  0  0
   -5.3318   -0.3281   -1.0128 C   0  0  0  0  0  0  0  0  0  0  0  0
   -6.3571   -1.1204   -1.3863 O   0  0  0  0  0  0  0  0  0  0  0  0
   -5.4670    1.0616   -1.0976 C   0  0  0  0  0  0  0  0  0  0  0  0
   -4.4204    1.8990   -0.7024 C   0  0  0  0  0  0  0  0  0  0  0  0
    0.3382    2.2198    0.9738 C   0  0  0  0  0  0  0  0  0  0  0  0
    0.0831    2.9736    2.0686 O   0  0  0  0  0  0  0  0  0  0  0  0
    1.6450    1.7489    0.7951 C   0  0  0  0  0  0  0  0  0  0  0  0
    4.7122   -3.3384   -0.8052 H   0  0  0  0  0  0  0  0  0  0  0  0
    3.3218   -3.5981    0.3158 H   0  0  0  0  0  0  0  0  0  0  0  0
    5.0108   -3.6070    0.9520 H   0  0  0  0  0  0  0  0  0  0  0  0
    5.2655   -1.1847    0.3792 H   0  0  0  0  0  0  0  0  0  0  0  0
    2.6917   -1.7535    2.0084 H   0  0  0  0  0  0  0  0  0  0  0  0
    4.3865   -1.8271    2.6296 H   0  0  0  0  0  0  0  0  0  0  0  0
    3.7044   -0.2607    2.0894 H   0  0  0  0  0  0  0  0  0  0  0  0
    2.3720   -1.5087   -0.5986 H   0  0  0  0  0  0  0  0  0  0  0  0
    3.8054   -1.1277   -1.6194 H   0  0  0  0  0  0  0  0  0  0  0  0
    1.2191   -0.0118   -2.0864 H   0  0  0  0  0  0  0  0  0  0  0  0
   -1.0588    0.7902   -1.8103 H   0  0  0  0  0  0  0  0  0  0  0  0
   -2.1667   -0.4974    0.2144 H   0  0  0  0  0  0  0  0  0  0  0  0
   -4.0270   -1.9565   -0.4534 H   0  0  0  0  0  0  0  0  0  0  0  0
   -6.3007   -2.0855   -1.3365 H   0  0  0  0  0  0  0  0  0  0  0  0
   -6.3864    1.4940   -1.4682 H   0  0  0  0  0  0  0  0  0  0  0  0
   -4.5437    2.9718   -0.7748 H   0  0  0  0  0  0  0  0  0  0  0  0
   -0.7935    3.2817    2.3214 H   0  0  0  0  0  0  0  0  0  0  0  0
    2.4091    1.9896    1.5234 H   0  0  0  0  0  0  0  0  0  0  0  0
  1 22  1  0  0  0  0
  1 23  1  0  0  0  0
  1 24  1  0  0  0  0
  2  1  1  0  0  0  0
  2 25  1  0  0  0  0
  3  2  1  0  0  0  0
  3 26  1  0  0  0  0
  3 27  1  0  0  0  0
  3 28  1  0  0  0  0
  4  2  1  0  0  0  0
  4 29  1  0  0  0  0
  4 30  1  0  0  0  0
  5  4  1  0  0  0  0
  6  5  1  0  0  0  0
  7  6  2  0  0  0  0
  7 31  1  0  0  0  0
  8  7  1  0  0  0  0
  8 32  1  0  0  0  0
  9  8  2  0  0  0  0
 10  9  1  0  0  0  0
 11 10  2  0  0  0  0
 12 10  1  0  0  0  0
 13 12  2  0  0  0  0
 13 33  1  0  0  0  0
 14 13  1  0  0  0  0
 14 34  1  0  0  0  0
 15 14  2  0  0  0  0
 16 15  1  0  0  0  0
 16 35  1  0  0  0  0
 17 15  1  0  0  0  0
 17 36  1  0  0  0  0
 18 17  2  0  0  0  0
 18 12  1  0  0  0  0
 18 37  1  0  0  0  0
 19  9  1  0  0  0  0
 20 19  1  0  0  0  0
 20 38  1  0  0  0  0
 21 19  2  0  0  0  0
 21  6  1  0  0  0  0
 21 39  1  0  0  0  0
M  END
>  <MOL Chiral Flag>
0

>  <energy>
62.751280583523069

$$$$
> 395_AKC_cbdd.12540
>380.sdf
 OpenBabel10062213113D

 31 33  0  0  0  0  0  0  0  0999 V2000
    5.8022   -1.3904   -2.8948 Cl  0  0  0  0  0  0  0  0  0  0  0  0
    4.4498   -0.9567   -1.8653 C   0  0  0  0  0  0  0  0  0  0  0  0
    3.1773   -1.4510   -2.1428 C   0  0  0  0  0  0  0  0  0  0  0  0
    2.0899   -1.1037   -1.3372 C   0  0  0  0  0  0  0  0  0  0  0  0
    2.2618   -0.2435   -0.2209 C   0  0  0  0  0  0  0  0  0  0  0  0
    1.1846    0.1710    0.6306 C   0  0  0  0  0  0  0  0  0  0  0  0
   -0.1754   -0.2330    0.3636 N   0  0  0  0  0  0  0  0  0  0  0  0
   -1.2635    0.2290    1.0888 N   0  0  0  0  0  0  0  0  0  0  0  0
   -2.6113    0.1421    0.6047 C   0  0  0  0  0  0  0  0  0  0  0  0
   -2.9392   -0.3996   -0.6625 C   0  0  0  0  0  0  0  0  0  0  0  0
   -4.2667   -0.4185   -1.1000 C   0  0  0  0  0  0  0  0  0  0  0  0
   -5.2814    0.0968   -0.2943 C   0  0  0  0  0  0  0  0  0  0  0  0
   -4.9742    0.6315    0.9567 C   0  0  0  0  0  0  0  0  0  0  0  0
   -3.6501    0.6550    1.4043 C   0  0  0  0  0  0  0  0  0  0  0  0
    1.4916    1.0301    1.7128 C   0  0  0  0  0  0  0  0  0  0  0  0
    2.7990    1.4549    1.9304 C   0  0  0  0  0  0  0  0  0  0  0  0
    3.7959    1.0614    1.1059 N   0  0  0  0  0  0  0  0  0  0  0  0
    3.5716    0.2392    0.0513 C   0  0  0  0  0  0  0  0  0  0  0  0
    4.6467   -0.1167   -0.7709 C   0  0  0  0  0  0  0  0  0  0  0  0
    3.0257   -2.1066   -2.9913 H   0  0  0  0  0  0  0  0  0  0  0  0
    1.1400   -1.5224   -1.6147 H   0  0  0  0  0  0  0  0  0  0  0  0
   -0.3528   -0.8290   -0.4402 H   0  0  0  0  0  0  0  0  0  0  0  0
   -1.1244    0.7073    1.9850 H   0  0  0  0  0  0  0  0  0  0  0  0
   -2.1977   -0.7973   -1.3331 H   0  0  0  0  0  0  0  0  0  0  0  0
   -4.5068   -0.8283   -2.0729 H   0  0  0  0  0  0  0  0  0  0  0  0
   -6.3060    0.0852   -0.6424 H   0  0  0  0  0  0  0  0  0  0  0  0
   -5.7623    1.0350    1.5789 H   0  0  0  0  0  0  0  0  0  0  0  0
   -3.4300    1.0827    2.3745 H   0  0  0  0  0  0  0  0  0  0  0  0
    0.7478    1.3945    2.3971 H   0  0  0  0  0  0  0  0  0  0  0  0
    3.0200    2.1152    2.7587 H   0  0  0  0  0  0  0  0  0  0  0  0
    5.6380    0.2659   -0.5599 H   0  0  0  0  0  0  0  0  0  0  0  0
  2  1  1  0  0  0  0
  3  2  2  0  0  0  0
  3 20  1  0  0  0  0
  4  3  1  0  0  0  0
  4 21  1  0  0  0  0
  5  4  2  0  0  0  0
  6  5  1  0  0  0  0
  7  6  1  0  0  0  0
  7 22  1  0  0  0  0
  8  7  1  0  0  0  0
  8 23  1  0  0  0  0
  9  8  1  0  0  0  0
 10  9  2  0  0  0  0
 10 24  1  0  0  0  0
 11 10  1  0  0  0  0
 11 25  1  0  0  0  0
 12 11  2  0  0  0  0
 12 26  1  0  0  0  0
 13 12  1  0  0  0  0
 13 27  1  0  0  0  0
 14 13  2  0  0  0  0
 14  9  1  0  0  0  0
 14 28  1  0  0  0  0
 15  6  2  0  0  0  0
 15 29  1  0  0  0  0
 16 15  1  0  0  0  0
 16 30  1  0  0  0  0
 17 16  2  0  0  0  0
 18 17  1  0  0  0  0
 18  5  1  0  0  0  0
 19 18  2  0  0  0  0
 19  2  1  0  0  0  0
 19 31  1  0  0  0  0
M  END
>  <MOL Chiral Flag>
0

>  <energy>
62.512603589825133

$$$$
> 396_AKC_AAC.00997-15
>381.sdf
 OpenBabel10062213123D

 29 30  0  0  0  0  0  0  0  0999 V2000
   -1.3241    2.9473   -1.2014 C   0  0  0  0  0  0  0  0  0  0  0  0
   -0.9014    3.3430    0.6617 Se  0  0  0  0  0  0  0  0  0  0  0  0
   -0.3917    1.5002    0.9691 C   0  0  0  0  0  0  0  0  0  0  0  0
   -1.4264    0.5127    0.9544 N   0  0  0  0  0  0  0  0  0  0  0  0
   -1.1750   -0.8270    1.0996 C   0  0  0  0  0  0  0  0  0  0  0  0
   -0.0774   -1.2204    1.4635 O   0  0  0  0  0  0  0  0  0  0  0  0
   -2.1912   -1.8328    0.7354 C   0  0  0  0  0  0  0  0  0  0  0  0
   -3.4318   -1.6219    0.1232 C   0  0  0  0  0  0  0  0  0  0  0  0
   -4.1045   -2.8312   -0.2048 C   0  0  0  0  0  0  0  0  0  0  0  0
   -3.3966   -3.9827    0.1521 C   0  0  0  0  0  0  0  0  0  0  0  0
   -1.9815   -3.4752    0.8455 S   0  0  0  0  0  0  0  0  0  0  0  0
    0.8384    1.1118    0.9171 N   0  0  0  0  0  0  0  0  0  0  0  0
    2.0135    1.8819    0.7072 C   0  0  0  0  0  0  0  0  0  0  0  0
    2.0211    3.0967    0.8366 O   0  0  0  0  0  0  0  0  0  0  0  0
    3.1986    1.1752    0.2029 C   0  0  0  0  0  0  0  0  0  0  0  0
    3.2886   -0.2074    0.0059 C   0  0  0  0  0  0  0  0  0  0  0  0
    4.5252   -0.6156   -0.5570 C   0  0  0  0  0  0  0  0  0  0  0  0
    5.4026    0.4447   -0.8039 C   0  0  0  0  0  0  0  0  0  0  0  0
    4.6281    1.8328   -0.3160 S   0  0  0  0  0  0  0  0  0  0  0  0
   -1.1348    3.8499   -1.8163 H   0  0  0  0  0  0  0  0  0  0  0  0
   -2.3848    2.6342   -1.2921 H   0  0  0  0  0  0  0  0  0  0  0  0
   -0.6551    2.1516   -1.5919 H   0  0  0  0  0  0  0  0  0  0  0  0
   -2.3744    0.8270    0.7130 H   0  0  0  0  0  0  0  0  0  0  0  0
   -3.8366   -0.6489   -0.1170 H   0  0  0  0  0  0  0  0  0  0  0  0
   -5.0643   -2.8574   -0.7014 H   0  0  0  0  0  0  0  0  0  0  0  0
   -3.7046   -5.0056   -0.0125 H   0  0  0  0  0  0  0  0  0  0  0  0
    2.4929   -0.9015    0.2459 H   0  0  0  0  0  0  0  0  0  0  0  0
    4.7579   -1.6485   -0.7806 H   0  0  0  0  0  0  0  0  0  0  0  0
    6.3893    0.3667   -1.2379 H   0  0  0  0  0  0  0  0  0  0  0  0
  1 20  1  0  0  0  0
  1 21  1  0  0  0  0
  1 22  1  0  0  0  0
  2  1  1  0  0  0  0
  3  2  1  0  0  0  0
  4  3  1  0  0  0  0
  4 23  1  0  0  0  0
  5  4  1  0  0  0  0
  6  5  2  0  0  0  0
  7  5  1  0  0  0  0
  8  7  2  0  0  0  0
  8 24  1  0  0  0  0
  9  8  1  0  0  0  0
  9 25  1  0  0  0  0
 10  9  2  0  0  0  0
 10 26  1  0  0  0  0
 11 10  1  0  0  0  0
 11  7  1  0  0  0  0
 12  3  2  0  0  0  0
 13 12  1  0  0  0  0
 14 13  2  0  0  0  0
 15 13  1  0  0  0  0
 16 15  2  0  0  0  0
 16 27  1  0  0  0  0
 17 16  1  0  0  0  0
 17 28  1  0  0  0  0
 18 17  2  0  0  0  0
 18 29  1  0  0  0  0
 19 18  1  0  0  0  0
 19 15  1  0  0  0  0
M  END
>  <MOL Chiral Flag>
0

>  <energy>
-13.315379988626844

$$$$
> 397_AKC_AAC.00997-15
>382.sdf
 OpenBabel10062213123D

 33 34  0  0  0  0  0  0  0  0999 V2000
   -0.1223   -2.7829   -3.0845 C   0  0  0  0  0  0  0  0  0  0  0  0
   -0.2730   -4.0055   -1.5641 Se  0  0  0  0  0  0  0  0  0  0  0  0
   -0.8647   -2.5557   -0.4194 C   0  0  0  0  0  0  0  0  0  0  0  0
   -2.2664   -2.2989   -0.3563 N   0  0  0  0  0  0  0  0  0  0  0  0
   -2.8025   -1.1617    0.1791 C   0  0  0  0  0  0  0  0  0  0  0  0
   -2.0815   -0.2764    0.6169 O   0  0  0  0  0  0  0  0  0  0  0  0
   -4.2586   -0.9462    0.1836 C   0  0  0  0  0  0  0  0  0  0  0  0
   -5.2703   -1.8675   -0.1111 C   0  0  0  0  0  0  0  0  0  0  0  0
   -6.5754   -1.2965   -0.0400 C   0  0  0  0  0  0  0  0  0  0  0  0
   -6.5786    0.0632    0.3061 C   0  0  0  0  0  0  0  0  0  0  0  0
   -4.9980    0.4979    0.5267 S   0  0  0  0  0  0  0  0  0  0  0  0
   -7.7627   -2.0340   -0.2987 N   0  0  0  0  0  0  0  0  0  0  0  0
   -8.8240   -1.4880   -0.2857 O   0  0  0  0  0  0  0  0  0  0  0  0
   -7.7057   -3.2051   -0.5257 O   0  0  0  0  0  0  0  0  0  0  0  0
   -0.0317   -1.7730    0.1901 N   0  0  0  0  0  0  0  0  0  0  0  0
    1.3814   -1.9156    0.2119 C   0  0  0  0  0  0  0  0  0  0  0  0
    1.9086   -3.0056    0.0486 O   0  0  0  0  0  0  0  0  0  0  0  0
    2.2194   -0.7273    0.3872 C   0  0  0  0  0  0  0  0  0  0  0  0
    3.6026   -0.6857    0.2388 C   0  0  0  0  0  0  0  0  0  0  0  0
    4.1393    0.6254    0.3757 C   0  0  0  0  0  0  0  0  0  0  0  0
    3.1726    1.6054    0.6572 C   0  0  0  0  0  0  0  0  0  0  0  0
    1.7089    0.8221    0.6971 S   0  0  0  0  0  0  0  0  0  0  0  0
    5.5211    0.9118    0.2091 N   0  0  0  0  0  0  0  0  0  0  0  0
    6.2843    0.0365   -0.0722 O   0  0  0  0  0  0  0  0  0  0  0  0
    5.9169    2.0345    0.2870 O   0  0  0  0  0  0  0  0  0  0  0  0
   -1.1021   -2.6791   -3.5951 H   0  0  0  0  0  0  0  0  0  0  0  0
    0.2488   -1.7878   -2.7581 H   0  0  0  0  0  0  0  0  0  0  0  0
    0.6322   -3.1787   -3.7947 H   0  0  0  0  0  0  0  0  0  0  0  0
   -2.8908   -2.9942   -0.7880 H   0  0  0  0  0  0  0  0  0  0  0  0
   -5.0917   -2.9039   -0.3656 H   0  0  0  0  0  0  0  0  0  0  0  0
   -7.4392    0.7073    0.4138 H   0  0  0  0  0  0  0  0  0  0  0  0
    4.1975   -1.5589    0.0073 H   0  0  0  0  0  0  0  0  0  0  0  0
    3.3423    2.6649    0.7961 H   0  0  0  0  0  0  0  0  0  0  0  0
  1 26  1  0  0  0  0
  1 27  1  0  0  0  0
  1 28  1  0  0  0  0
  2  1  1  0  0  0  0
  3  2  1  0  0  0  0
  4  3  1  0  0  0  0
  4 29  1  0  0  0  0
  5  4  1  0  0  0  0
  6  5  2  0  0  0  0
  7  5  1  0  0  0  0
  8  7  2  0  0  0  0
  8 30  1  0  0  0  0
  9  8  1  0  0  0  0
 10  9  2  0  0  0  0
 10 31  1  0  0  0  0
 11 10  1  0  0  0  0
 11  7  1  0  0  0  0
 12  9  1  0  0  0  0
 13 12  2  0  0  0  0
 14 12  2  0  0  0  0
 15  3  2  0  0  0  0
 16 15  1  0  0  0  0
 17 16  2  0  0  0  0
 18 16  1  0  0  0  0
 19 18  2  0  0  0  0
 19 32  1  0  0  0  0
 20 19  1  0  0  0  0
 21 20  2  0  0  0  0
 21 33  1  0  0  0  0
 22 21  1  0  0  0  0
 22 18  1  0  0  0  0
 23 20  1  0  0  0  0
 24 23  2  0  0  0  0
 25 23  2  0  0  0  0
M  END
>  <MOL Chiral Flag>
0

>  <energy>
24.356603615091501

$$$$
> 398_AKC_j.actatropica.2015.04.028
>383.sdf
 OpenBabel10062213123D

 34 36  0  0  0  0  0  0  0  0999 V2000
    3.1424   -2.6507   -1.1106 C   0  0  0  0  0  0  0  0  0  0  0  0
    2.3412   -1.5227   -0.6629 N   0  0  0  0  0  0  0  0  0  0  0  0
    1.0320   -1.5964   -0.4898 N   0  0  0  0  0  0  0  0  0  0  0  0
    0.5856   -0.3716   -0.1290 C   0  0  0  0  0  0  0  0  0  0  0  0
   -0.7170   -0.1022    0.1208 O   0  0  0  0  0  0  0  0  0  0  0  0
   -1.5875   -1.1419    0.4005 C   0  0  0  0  0  0  0  0  0  0  0  0
   -3.0209   -0.7172    0.3212 C   0  0  0  0  0  0  0  0  0  0  0  0
   -3.5148    0.2721    1.1812 C   0  0  0  0  0  0  0  0  0  0  0  0
   -4.8648    0.6322    1.1305 C   0  0  0  0  0  0  0  0  0  0  0  0
   -5.7246    0.0095    0.2194 C   0  0  0  0  0  0  0  0  0  0  0  0
   -5.2355   -0.9719   -0.6461 C   0  0  0  0  0  0  0  0  0  0  0  0
   -3.8890   -1.3369   -0.5969 C   0  0  0  0  0  0  0  0  0  0  0  0
    1.6609    0.4965   -0.0605 C   0  0  0  0  0  0  0  0  0  0  0  0
    1.7848    1.8461    0.2682 C   0  0  0  0  0  0  0  0  0  0  0  0
    3.0873    2.4188    0.2734 C   0  0  0  0  0  0  0  0  0  0  0  0
    4.2098    1.6019   -0.0566 C   0  0  0  0  0  0  0  0  0  0  0  0
    4.0393    0.2493   -0.3989 C   0  0  0  0  0  0  0  0  0  0  0  0
    2.7482   -0.2667   -0.3910 C   0  0  0  0  0  0  0  0  0  0  0  0
    3.2776    3.7948    0.6122 N   0  0  0  0  0  0  0  0  0  0  0  0
    4.3718    4.2703    0.6176 O   0  0  0  0  0  0  0  0  0  0  0  0
    2.3396    4.4828    0.8885 O   0  0  0  0  0  0  0  0  0  0  0  0
    4.0058   -2.8068   -0.4343 H   0  0  0  0  0  0  0  0  0  0  0  0
    3.4915   -2.4543   -2.1459 H   0  0  0  0  0  0  0  0  0  0  0  0
    2.5175   -3.5706   -1.1228 H   0  0  0  0  0  0  0  0  0  0  0  0
   -1.3712   -1.5179    1.4242 H   0  0  0  0  0  0  0  0  0  0  0  0
   -1.4249   -1.9841   -0.3090 H   0  0  0  0  0  0  0  0  0  0  0  0
   -2.8566    0.7510    1.8952 H   0  0  0  0  0  0  0  0  0  0  0  0
   -5.2456    1.3894    1.8020 H   0  0  0  0  0  0  0  0  0  0  0  0
   -6.7699    0.2853    0.1857 H   0  0  0  0  0  0  0  0  0  0  0  0
   -5.9003   -1.4550   -1.3512 H   0  0  0  0  0  0  0  0  0  0  0  0
   -3.5246   -2.1061   -1.2684 H   0  0  0  0  0  0  0  0  0  0  0  0
    0.9097    2.4313    0.5208 H   0  0  0  0  0  0  0  0  0  0  0  0
    5.2110    2.0138   -0.0456 H   0  0  0  0  0  0  0  0  0  0  0  0
    4.8912   -0.3720   -0.6422 H   0  0  0  0  0  0  0  0  0  0  0  0
  1 22  1  0  0  0  0
  1 23  1  0  0  0  0
  1 24  1  0  0  0  0
  2  1  1  0  0  0  0
  3  2  1  0  0  0  0
  4  3  2  0  0  0  0
  5  4  1  0  0  0  0
  6  5  1  0  0  0  0
  6 25  1  0  0  0  0
  6 26  1  0  0  0  0
  7  6  1  0  0  0  0
  8  7  2  0  0  0  0
  8 27  1  0  0  0  0
  9  8  1  0  0  0  0
  9 28  1  0  0  0  0
 10  9  2  0  0  0  0
 10 29  1  0  0  0  0
 11 10  1  0  0  0  0
 11 30  1  0  0  0  0
 12 11  2  0  0  0  0
 12  7  1  0  0  0  0
 12 31  1  0  0  0  0
 13  4  1  0  0  0  0
 14 13  2  0  0  0  0
 14 32  1  0  0  0  0
 15 14  1  0  0  0  0
 16 15  2  0  0  0  0
 16 33  1  0  0  0  0
 17 16  1  0  0  0  0
 17 34  1  0  0  0  0
 18 17  2  0  0  0  0
 18  2  1  0  0  0  0
 18 13  1  0  0  0  0
 19 15  1  0  0  0  0
 20 19  2  0  0  0  0
 21 19  2  0  0  0  0
M  END
>  <MOL Chiral Flag>
0

>  <energy>
70.95180275971579

$$$$
> 399_AKC_j.actatropica.2015.04.028
>384.sdf
 OpenBabel10062213133D

 50 52  0  0  0  0  0  0  0  0999 V2000
   -6.4343    0.0807   -2.3518 C   0  0  0  0  0  0  0  0  0  0  0  0
   -5.6407    1.2823   -2.6172 N   0  3  0  0  0  0  0  0  0  0  0  0
   -4.4556    1.3372   -1.7485 C   0  0  0  0  0  0  0  0  0  0  0  0
   -3.6001    2.5589   -2.0897 C   0  0  0  0  0  0  0  0  0  0  0  0
   -2.3949    2.5243   -1.3517 O   0  0  0  0  0  0  0  0  0  0  0  0
   -2.3366    3.5036   -0.3309 C   0  0  0  0  0  0  0  0  0  0  0  0
   -0.8754    3.9132   -0.1691 C   0  0  0  0  0  0  0  0  0  0  0  0
   -0.0577    2.7421    0.1525 N   0  0  0  0  0  0  0  0  0  0  0  0
   -0.1184    2.1132    1.3183 N   0  0  0  0  0  0  0  0  0  0  0  0
    0.7532    1.0795    1.2945 C   0  0  0  0  0  0  0  0  0  0  0  0
    0.9145    0.2781    2.3794 O   0  0  0  0  0  0  0  0  0  0  0  0
    1.9782   -0.5429    2.6964 C   0  0  0  0  0  0  0  0  0  0  0  0
    1.4974   -1.9617    2.8276 C   0  0  0  0  0  0  0  0  0  0  0  0
    1.5437   -2.6134    4.0728 C   0  0  0  0  0  0  0  0  0  0  0  0
    1.0826   -3.9271    4.1974 C   0  0  0  0  0  0  0  0  0  0  0  0
    0.5780   -4.6008    3.0824 C   0  0  0  0  0  0  0  0  0  0  0  0
    0.5326   -3.9614    1.8402 C   0  0  0  0  0  0  0  0  0  0  0  0
    0.9882   -2.6450    1.7110 C   0  0  0  0  0  0  0  0  0  0  0  0
    1.3660    1.0414    0.0361 C   0  0  0  0  0  0  0  0  0  0  0  0
    2.2923    0.1916   -0.5860 C   0  0  0  0  0  0  0  0  0  0  0  0
    2.6758    0.4627   -1.9258 C   0  0  0  0  0  0  0  0  0  0  0  0
    2.1172    1.5836   -2.5967 C   0  0  0  0  0  0  0  0  0  0  0  0
    1.1895    2.4134   -1.9542 C   0  0  0  0  0  0  0  0  0  0  0  0
    0.8338    2.1116   -0.6398 C   0  0  0  0  0  0  0  0  0  0  0  0
    3.6052   -0.3886   -2.6009 N   0  0  0  0  0  0  0  0  0  0  0  0
    4.0703   -1.3371   -2.0437 O   0  0  0  0  0  0  0  0  0  0  0  0
    3.9161   -0.1656   -3.7323 O   0  0  0  0  0  0  0  0  0  0  0  0
   -7.3211    0.0653   -3.0219 H   0  0  0  0  0  0  0  0  0  0  0  0
   -6.7902    0.0683   -1.2988 H   0  0  0  0  0  0  0  0  0  0  0  0
   -5.8359   -0.8356   -2.5515 H   0  0  0  0  0  0  0  0  0  0  0  0
   -6.2377    2.1267   -2.4542 H   0  0  0  0  0  0  0  0  0  0  0  0
   -5.3400    1.2604   -3.6201 H   0  0  0  0  0  0  0  0  0  0  0  0
   -3.8383    0.4217   -1.8933 H   0  0  0  0  0  0  0  0  0  0  0  0
   -4.7617    1.3950   -0.6792 H   0  0  0  0  0  0  0  0  0  0  0  0
   -4.2013    3.4875   -1.9619 H   0  0  0  0  0  0  0  0  0  0  0  0
   -3.3234    2.5179   -3.1648 H   0  0  0  0  0  0  0  0  0  0  0  0
   -2.7260    3.0762    0.6181 H   0  0  0  0  0  0  0  0  0  0  0  0
   -2.8930    4.4376   -0.5735 H   0  0  0  0  0  0  0  0  0  0  0  0
   -0.7549    4.6818    0.6246 H   0  0  0  0  0  0  0  0  0  0  0  0
   -0.5535    4.3712   -1.1253 H   0  0  0  0  0  0  0  0  0  0  0  0
    2.3851   -0.1896    3.6677 H   0  0  0  0  0  0  0  0  0  0  0  0
    2.8173   -0.4678    1.9878 H   0  0  0  0  0  0  0  0  0  0  0  0
    1.9290   -2.1027    4.9467 H   0  0  0  0  0  0  0  0  0  0  0  0
    1.1150   -4.4219    5.1596 H   0  0  0  0  0  0  0  0  0  0  0  0
    0.2212   -5.6178    3.1815 H   0  0  0  0  0  0  0  0  0  0  0  0
    0.1416   -4.4853    0.9777 H   0  0  0  0  0  0  0  0  0  0  0  0
    0.9437   -2.1598    0.7450 H   0  0  0  0  0  0  0  0  0  0  0  0
    2.6985   -0.6677   -0.0840 H   0  0  0  0  0  0  0  0  0  0  0  0
    2.3927    1.8056   -3.6197 H   0  0  0  0  0  0  0  0  0  0  0  0
    0.7624    3.2523   -2.4840 H   0  0  0  0  0  0  0  0  0  0  0  0
  1 28  1  0  0  0  0
  1 29  1  0  0  0  0
  1 30  1  0  0  0  0
  2  1  1  0  0  0  0
  2 31  1  0  0  0  0
  2 32  1  0  0  0  0
  3  2  1  0  0  0  0
  3 33  1  0  0  0  0
  3 34  1  0  0  0  0
  4  3  1  0  0  0  0
  4 35  1  0  0  0  0
  4 36  1  0  0  0  0
  5  4  1  0  0  0  0
  6  5  1  0  0  0  0
  6 37  1  0  0  0  0
  6 38  1  0  0  0  0
  7  6  1  0  0  0  0
  7 39  1  0  0  0  0
  7 40  1  0  0  0  0
  8  7  1  0  0  0  0
  9  8  1  0  0  0  0
 10  9  2  0  0  0  0
 11 10  1  0  0  0  0
 12 11  1  0  0  0  0
 12 41  1  0  0  0  0
 12 42  1  0  0  0  0
 13 12  1  0  0  0  0
 14 13  2  0  0  0  0
 14 43  1  0  0  0  0
 15 14  1  0  0  0  0
 15 44  1  0  0  0  0
 16 15  2  0  0  0  0
 16 45  1  0  0  0  0
 17 16  1  0  0  0  0
 17 46  1  0  0  0  0
 18 17  2  0  0  0  0
 18 13  1  0  0  0  0
 18 47  1  0  0  0  0
 19 10  1  0  0  0  0
 20 19  2  0  0  0  0
 20 48  1  0  0  0  0
 21 20  1  0  0  0  0
 22 21  2  0  0  0  0
 22 49  1  0  0  0  0
 23 22  1  0  0  0  0
 23 50  1  0  0  0  0
 24 23  2  0  0  0  0
 24  8  1  0  0  0  0
 24 19  1  0  0  0  0
 25 21  1  0  0  0  0
 26 25  2  0  0  0  0
 27 25  2  0  0  0  0
M  CHG  1   2   1
M  END
>  <MOL Chiral Flag>
0

>  <energy>
105.27749201394434

$$$$
> 400_AKC_C5MD00119F
>385.sdf
 OpenBabel10062213143D

 34 36  0  0  0  0  0  0  0  0999 V2000
    7.2068   -4.3116    1.0734 Cl  0  0  0  0  0  0  0  0  0  0  0  0
    6.0323   -3.3937    0.1480 C   0  0  0  0  0  0  0  0  0  0  0  0
    6.3790   -2.8747   -1.0989 C   0  0  0  0  0  0  0  0  0  0  0  0
    5.4454   -2.1435   -1.8329 C   0  0  0  0  0  0  0  0  0  0  0  0
    4.1577   -1.9282   -1.3287 C   0  0  0  0  0  0  0  0  0  0  0  0
    3.7886   -2.4497   -0.0635 C   0  0  0  0  0  0  0  0  0  0  0  0
    2.4968   -2.2539    0.5404 N   0  0  0  0  0  0  0  0  0  0  0  0
    1.3774   -1.7296   -0.0405 C   0  0  0  0  0  0  0  0  0  0  0  0
    1.3579   -1.4062   -1.2172 O   0  0  0  0  0  0  0  0  0  0  0  0
    0.2656   -1.5760    0.7239 O   0  0  0  0  0  0  0  0  0  0  0  0
   -0.9126   -1.2059    0.2470 N   0  0  0  0  0  0  0  0  0  0  0  0
   -1.9744   -0.8742    1.1527 C   0  0  0  0  0  0  0  0  0  0  0  0
   -1.7095   -0.8117    2.4215 N   0  0  0  0  0  0  0  0  0  0  0  0
   -3.3768   -0.6036    0.6351 C   0  0  0  0  0  0  0  0  0  0  0  0
   -3.7230   -0.9006   -0.7176 C   0  0  0  0  0  0  0  0  0  0  0  0
   -5.0249   -0.6496   -1.1339 C   0  0  0  0  0  0  0  0  0  0  0  0
   -5.5840   -0.8503   -2.3358 N   0  0  0  0  0  0  0  0  0  0  0  0
   -6.8278   -0.4570   -2.2093 O   0  0  0  0  0  0  0  0  0  0  0  0
   -7.1055   -0.0177   -1.0065 N   0  0  0  0  0  0  0  0  0  0  0  0
   -5.9640   -0.1374   -0.3150 C   0  0  0  0  0  0  0  0  0  0  0  0
   -5.7012    0.1786    1.0049 C   0  0  0  0  0  0  0  0  0  0  0  0
   -4.3989   -0.0560    1.4875 C   0  0  0  0  0  0  0  0  0  0  0  0
    4.7505   -3.1797    0.6628 C   0  0  0  0  0  0  0  0  0  0  0  0
    7.3728   -3.0340   -1.4976 H   0  0  0  0  0  0  0  0  0  0  0  0
    5.7218   -1.7355   -2.7967 H   0  0  0  0  0  0  0  0  0  0  0  0
    3.4904   -1.3434   -1.9339 H   0  0  0  0  0  0  0  0  0  0  0  0
    2.3981   -2.5495    1.5241 H   0  0  0  0  0  0  0  0  0  0  0  0
   -1.0507   -1.1455   -0.7694 H   0  0  0  0  0  0  0  0  0  0  0  0
   -0.7575   -0.9904    2.7710 H   0  0  0  0  0  0  0  0  0  0  0  0
   -3.0297   -1.3247   -1.4248 H   0  0  0  0  0  0  0  0  0  0  0  0
   -6.4698    0.5910    1.6459 H   0  0  0  0  0  0  0  0  0  0  0  0
   -4.2114    0.2028    2.5152 H   0  0  0  0  0  0  0  0  0  0  0  0
    4.4986   -3.5867    1.6345 H   0  0  0  0  0  0  0  0  0  0  0  0
   -2.4185   -0.5937    3.1276 H   0  0  0  0  0  0  0  0  0  0  0  0
  2  1  1  0  0  0  0
  3  2  2  0  0  0  0
  3 24  1  0  0  0  0
  4  3  1  0  0  0  0
  4 25  1  0  0  0  0
  5  4  2  0  0  0  0
  5 26  1  0  0  0  0
  6  5  1  0  0  0  0
  7  6  1  0  0  0  0
  7 27  1  0  0  0  0
  8  7  1  0  0  0  0
  9  8  2  0  0  0  0
 10  8  1  0  0  0  0
 11 10  1  0  0  0  0
 11 28  1  0  0  0  0
 12 11  1  0  0  0  0
 13 12  2  0  0  0  0
 13 29  1  0  0  0  0
 13 34  1  0  0  0  0
 14 12  1  0  0  0  0
 15 14  2  0  0  0  0
 15 30  1  0  0  0  0
 16 15  1  0  0  0  0
 17 16  2  0  0  0  0
 18 17  1  0  0  0  0
 19 18  1  0  0  0  0
 20 19  2  0  0  0  0
 20 16  1  0  0  0  0
 21 20  1  0  0  0  0
 21 31  1  0  0  0  0
 22 21  2  0  0  0  0
 22 14  1  0  0  0  0
 22 32  1  0  0  0  0
 23  6  2  0  0  0  0
 23  2  1  0  0  0  0
 23 33  1  0  0  0  0
M  END
>  <MOL Chiral Flag>
0

>  <energy>
34.818573317716648

$$$$
> 401_AKC_np5008697
>386.sdf
 OpenBabel10062213153D

 44 44  0  0  0  0  0  0  0  0999 V2000
   -2.2430   -5.1109   -0.8865 C   0  0  0  0  0  0  0  0  0  0  0  0
   -2.4353   -4.0902    0.2034 C   0  0  0  0  0  0  0  0  0  0  0  0
   -3.4486   -4.4132    1.2819 C   0  0  0  0  0  0  0  0  0  0  0  0
   -1.7156   -2.9414    0.1850 C   0  0  0  0  0  0  0  0  0  0  0  0
   -1.8395   -1.8832    1.2531 C   0  0  0  0  0  0  0  0  0  0  0  0
   -0.9793   -0.6095    1.0724 C   0  0  0  0  0  0  0  0  0  0  0  0
    0.5787   -0.6834    1.3230 C   0  0  2  0  0  0  0  0  0  0  0  0
    1.2444   -1.5829    0.2362 C   0  0  0  0  0  0  0  0  0  0  0  0
    0.7981   -1.2575    2.5955 O   0  0  0  0  0  0  0  0  0  0  0  0
    1.2488    0.7858    1.3590 C   0  0  0  0  0  0  0  0  0  0  0  0
    0.5161    1.6599    2.4297 C   0  0  0  0  0  0  0  0  0  0  0  0
    1.1834    1.5045   -0.0303 C   0  0  0  0  0  0  0  0  0  0  0  0
    1.9114    2.8649   -0.0392 C   0  0  0  0  0  0  0  0  0  0  0  0
    3.3817    2.6927    0.3654 C   0  0  0  0  0  0  0  0  0  0  0  0
    3.4964    2.0450    1.7500 C   0  0  0  0  0  0  0  0  0  0  0  0
    2.7650    0.6871    1.7660 C   0  0  0  0  0  0  0  0  0  0  0  0
   -1.4777   -4.7989   -1.6290 H   0  0  0  0  0  0  0  0  0  0  0  0
   -3.2030   -5.2749   -1.4184 H   0  0  0  0  0  0  0  0  0  0  0  0
   -1.9136   -6.0702   -0.4340 H   0  0  0  0  0  0  0  0  0  0  0  0
   -3.1591   -5.3533    1.7950 H   0  0  0  0  0  0  0  0  0  0  0  0
   -4.4437   -4.5579    0.8103 H   0  0  0  0  0  0  0  0  0  0  0  0
   -3.5616   -3.6284    2.0544 H   0  0  0  0  0  0  0  0  0  0  0  0
   -1.0337   -2.7713   -0.6391 H   0  0  0  0  0  0  0  0  0  0  0  0
   -2.9023   -1.5532    1.2386 H   0  0  0  0  0  0  0  0  0  0  0  0
   -1.6303   -2.3221    2.2519 H   0  0  0  0  0  0  0  0  0  0  0  0
   -1.4113    0.0476    1.8459 H   0  0  0  0  0  0  0  0  0  0  0  0
   -1.2011   -0.1619    0.0812 H   0  0  0  0  0  0  0  0  0  0  0  0
    1.0171   -1.2211   -0.7880 H   0  0  0  0  0  0  0  0  0  0  0  0
    0.8978   -2.6294    0.3101 H   0  0  0  0  0  0  0  0  0  0  0  0
    2.3384   -1.6666    0.3519 H   0  0  0  0  0  0  0  0  0  0  0  0
    0.6534   -2.2380    2.5443 H   0  0  0  0  0  0  0  0  0  0  0  0
    0.5101    1.1518    3.4169 H   0  0  0  0  0  0  0  0  0  0  0  0
   -0.5218    1.9021    2.1329 H   0  0  0  0  0  0  0  0  0  0  0  0
    0.9676    2.6523    2.5905 H   0  0  0  0  0  0  0  0  0  0  0  0
    0.1310    1.6602   -0.3452 H   0  0  0  0  0  0  0  0  0  0  0  0
    1.6826    0.8825   -0.8016 H   0  0  0  0  0  0  0  0  0  0  0  0
    1.4124    3.5820    0.6438 H   0  0  0  0  0  0  0  0  0  0  0  0
    1.8637    3.3021   -1.0597 H   0  0  0  0  0  0  0  0  0  0  0  0
    3.8917    2.0462   -0.3820 H   0  0  0  0  0  0  0  0  0  0  0  0
    3.8902    3.6810    0.3712 H   0  0  0  0  0  0  0  0  0  0  0  0
    3.0942    2.7293    2.5223 H   0  0  0  0  0  0  0  0  0  0  0  0
    4.5689    1.8905    1.9968 H   0  0  0  0  0  0  0  0  0  0  0  0
    3.3215    0.0517    1.0523 H   0  0  0  0  0  0  0  0  0  0  0  0
    2.8706    0.2337    2.7752 H   0  0  0  0  0  0  0  0  0  0  0  0
  1 17  1  0  0  0  0
  1 18  1  0  0  0  0
  1 19  1  0  0  0  0
  2  1  1  0  0  0  0
  3  2  1  0  0  0  0
  3 20  1  0  0  0  0
  3 21  1  0  0  0  0
  3 22  1  0  0  0  0
  4  2  2  0  0  0  0
  4 23  1  0  0  0  0
  5  4  1  0  0  0  0
  5 24  1  0  0  0  0
  5 25  1  0  0  0  0
  6  5  1  0  0  0  0
  6 26  1  0  0  0  0
  6 27  1  0  0  0  0
  7  6  1  6  0  0  0
  8  7  1  0  0  0  0
  8 28  1  0  0  0  0
  8 29  1  0  0  0  0
  8 30  1  0  0  0  0
  9  7  1  0  0  0  0
  9 31  1  0  0  0  0
 10  7  1  0  0  0  0
 11 10  1  0  0  0  0
 11 32  1  0  0  0  0
 11 33  1  0  0  0  0
 11 34  1  0  0  0  0
 12 10  1  0  0  0  0
 12 35  1  0  0  0  0
 12 36  1  0  0  0  0
 13 12  1  0  0  0  0
 13 37  1  0  0  0  0
 13 38  1  0  0  0  0
 14 13  1  0  0  0  0
 14 39  1  0  0  0  0
 14 40  1  0  0  0  0
 15 14  1  0  0  0  0
 15 41  1  0  0  0  0
 15 42  1  0  0  0  0
 16 15  1  0  0  0  0
 16 10  1  0  0  0  0
 16 43  1  0  0  0  0
 16 44  1  0  0  0  0
M  END
>  <MOL Chiral Flag>
0

>  <energy>
58.121313230404525

$$$$
> 402_AKC_j.ejmech.2015.05.046
>387.sdf
 OpenBabel10062213153D

 30 31  0  0  0  0  0  0  0  0999 V2000
   -1.8432   -4.8142   -1.8595 O   0  5  0  0  0  0  0  0  0  0  0  0
   -2.7173   -4.2114   -1.0834 N   0  3  0  0  0  0  0  0  0  0  0  0
   -3.6515   -4.8216   -0.6591 O   0  0  0  0  0  0  0  0  0  0  0  0
   -2.5459   -2.8441   -0.7553 C   0  0  0  0  0  0  0  0  0  0  0  0
   -3.3834   -2.0889    0.0435 C   0  0  0  0  0  0  0  0  0  0  0  0
   -2.8257   -0.8293    0.0804 C   0  0  0  0  0  0  0  0  0  0  0  0
   -1.6820   -0.8954   -0.6984 C   0  0  0  0  0  0  0  0  0  0  0  0
   -1.5444   -2.1095   -1.1819 O   0  0  0  0  0  0  0  0  0  0  0  0
   -0.7443    0.2034   -0.9679 C   0  0  0  0  0  0  0  0  0  0  0  0
   -0.9492    1.3692   -0.4630 N   0  0  0  0  0  0  0  0  0  0  0  0
   -0.0933    2.4209   -0.7078 N   0  0  0  0  0  0  0  0  0  0  0  0
   -0.3536    3.6491   -0.1875 C   0  0  0  0  0  0  0  0  0  0  0  0
   -1.3477    3.8023    0.5027 O   0  0  0  0  0  0  0  0  0  0  0  0
    0.4873    4.6943   -0.4671 N   0  0  0  0  0  0  0  0  0  0  0  0
    0.3587    6.0584   -0.0187 C   0  0  0  0  0  0  0  0  0  0  0  0
   -0.5911    6.4943    0.9416 C   0  0  0  0  0  0  0  0  0  0  0  0
   -0.6523    7.8408    1.3163 C   0  0  0  0  0  0  0  0  0  0  0  0
    0.2190    8.7723    0.7514 C   0  0  0  0  0  0  0  0  0  0  0  0
    0.1290   10.4592    1.2243 Cl  0  0  0  0  0  0  0  0  0  0  0  0
    1.1628    8.3592   -0.1881 C   0  0  0  0  0  0  0  0  0  0  0  0
    1.2348    7.0165   -0.5667 C   0  0  0  0  0  0  0  0  0  0  0  0
   -4.2892   -2.4133    0.5387 H   0  0  0  0  0  0  0  0  0  0  0  0
   -3.2083    0.0327    0.6112 H   0  0  0  0  0  0  0  0  0  0  0  0
    0.1176    0.0199   -1.6038 H   0  0  0  0  0  0  0  0  0  0  0  0
    0.7415    2.2808   -1.2996 H   0  0  0  0  0  0  0  0  0  0  0  0
    1.2848    4.4912   -1.0900 H   0  0  0  0  0  0  0  0  0  0  0  0
   -1.2842    5.8315    1.4228 H   0  0  0  0  0  0  0  0  0  0  0  0
   -1.3817    8.1594    2.0505 H   0  0  0  0  0  0  0  0  0  0  0  0
    1.8418    9.0785   -0.6280 H   0  0  0  0  0  0  0  0  0  0  0  0
    1.9742    6.7195   -1.3002 H   0  0  0  0  0  0  0  0  0  0  0  0
  2  1  1  0  0  0  0
  3  2  2  0  0  0  0
  4  2  1  0  0  0  0
  5  4  2  0  0  0  0
  5 22  1  0  0  0  0
  6  5  1  0  0  0  0
  6 23  1  0  0  0  0
  7  6  2  0  0  0  0
  8  7  1  0  0  0  0
  8  4  1  0  0  0  0
  9  7  1  0  0  0  0
  9 24  1  0  0  0  0
 10  9  2  0  0  0  0
 11 10  1  0  0  0  0
 11 25  1  0  0  0  0
 12 11  1  0  0  0  0
 13 12  2  0  0  0  0
 14 12  1  0  0  0  0
 14 26  1  0  0  0  0
 15 14  1  0  0  0  0
 16 15  2  0  0  0  0
 16 27  1  0  0  0  0
 17 16  1  0  0  0  0
 17 28  1  0  0  0  0
 18 17  2  0  0  0  0
 19 18  1  0  0  0  0
 20 18  1  0  0  0  0
 20 29  1  0  0  0  0
 21 20  2  0  0  0  0
 21 15  1  0  0  0  0
 21 30  1  0  0  0  0
M  CHG  2   1  -1   2   1
M  END
>  <MOL Chiral Flag>
0

>  <energy>
75.299263491529388

$$$$
> 403_AKC_S0031182015000141
>388.sdf
 OpenBabel10062213163D

 49 50  0  0  0  0  0  0  0  0999 V2000
   -7.6755   -1.4429    1.3281 C   0  0  0  0  0  0  0  0  0  0  0  0
   -6.2070   -1.7662    1.2823 C   0  0  0  0  0  0  0  0  0  0  0  0
   -5.7071   -2.4312    0.2217 C   0  0  0  0  0  0  0  0  0  0  0  0
   -4.2346   -2.7380    0.0638 C   0  0  0  0  0  0  0  0  0  0  0  0
   -3.3117   -1.9672    1.0587 C   0  0  1  0  0  0  0  0  0  0  0  0
   -3.9623   -2.0526    2.4510 C   0  0  0  0  0  0  0  0  0  0  0  0
   -5.3230   -1.3323    2.4282 C   0  0  0  0  0  0  0  0  0  0  0  0
   -1.7818   -2.4084    0.9588 C   0  0  0  0  0  0  0  0  0  0  0  0
   -0.9860   -1.7549    2.1172 C   0  0  0  0  0  0  0  0  0  0  0  0
   -1.6465   -3.9504    1.0682 C   0  0  0  0  0  0  0  0  0  0  0  0
   -1.2460   -1.8982   -0.3235 N   0  0  0  0  0  0  0  0  0  0  0  0
    0.1097   -1.9730   -0.8176 C   0  0  0  0  0  0  0  0  0  0  0  0
    1.0950   -2.8519   -0.2313 S   0  0  0  0  0  0  0  0  0  0  0  0
    0.4869   -1.1063   -1.8916 N   0  0  0  0  0  0  0  0  0  0  0  0
    1.7608   -1.1202   -2.4254 N   0  0  0  0  0  0  0  0  0  0  0  0
    2.1760   -0.1615   -3.1810 C   0  0  0  0  0  0  0  0  0  0  0  0
    3.5171   -0.2015   -3.8105 C   0  0  0  0  0  0  0  0  0  0  0  0
    4.3530   -1.3243   -3.6836 C   0  0  0  0  0  0  0  0  0  0  0  0
    5.5985   -1.3530   -4.3201 C   0  0  0  0  0  0  0  0  0  0  0  0
    6.0347   -0.2569   -5.0893 C   0  0  0  0  0  0  0  0  0  0  0  0
    5.2015    0.8711   -5.1993 C   0  0  0  0  0  0  0  0  0  0  0  0
    3.9542    0.8955   -4.5682 C   0  0  0  0  0  0  0  0  0  0  0  0
    7.2981   -0.2884   -5.7551 N   0  3  0  0  0  0  0  0  0  0  0  0
    7.6991    0.7398   -6.4720 O   0  5  0  0  0  0  0  0  0  0  0  0
    7.9925   -1.2590   -5.6889 O   0  0  0  0  0  0  0  0  0  0  0  0
   -7.9299   -0.8756    2.2487 H   0  0  0  0  0  0  0  0  0  0  0  0
   -7.9547   -0.8253    0.4484 H   0  0  0  0  0  0  0  0  0  0  0  0
   -8.2688   -2.3816    1.3190 H   0  0  0  0  0  0  0  0  0  0  0  0
   -6.3835   -2.7747   -0.5568 H   0  0  0  0  0  0  0  0  0  0  0  0
   -4.1673   -3.8363    0.1953 H   0  0  0  0  0  0  0  0  0  0  0  0
   -3.9230   -2.4901   -0.9711 H   0  0  0  0  0  0  0  0  0  0  0  0
   -3.3397   -0.8810    0.8086 H   0  0  0  0  0  0  0  0  0  0  0  0
   -4.0882   -3.1184    2.7387 H   0  0  0  0  0  0  0  0  0  0  0  0
   -3.3741   -1.5379    3.2356 H   0  0  0  0  0  0  0  0  0  0  0  0
   -5.8194   -1.5493    3.3982 H   0  0  0  0  0  0  0  0  0  0  0  0
   -5.1944   -0.2300    2.3482 H   0  0  0  0  0  0  0  0  0  0  0  0
   -1.3125   -2.1393    3.1044 H   0  0  0  0  0  0  0  0  0  0  0  0
    0.0939   -1.9851    2.0718 H   0  0  0  0  0  0  0  0  0  0  0  0
   -1.1021   -0.6507    2.0928 H   0  0  0  0  0  0  0  0  0  0  0  0
   -2.1456   -4.3214    1.9874 H   0  0  0  0  0  0  0  0  0  0  0  0
   -0.5976   -4.2888    1.1361 H   0  0  0  0  0  0  0  0  0  0  0  0
   -2.0841   -4.4593    0.1858 H   0  0  0  0  0  0  0  0  0  0  0  0
   -1.8853   -1.3318   -0.9010 H   0  0  0  0  0  0  0  0  0  0  0  0
   -0.2051   -0.4255   -2.2422 H   0  0  0  0  0  0  0  0  0  0  0  0
    1.5333    0.6956   -3.3699 H   0  0  0  0  0  0  0  0  0  0  0  0
    4.0378   -2.1836   -3.1055 H   0  0  0  0  0  0  0  0  0  0  0  0
    6.2195   -2.2339   -4.2179 H   0  0  0  0  0  0  0  0  0  0  0  0
    5.5115    1.7298   -5.7810 H   0  0  0  0  0  0  0  0  0  0  0  0
    3.3257    1.7714   -4.6746 H   0  0  0  0  0  0  0  0  0  0  0  0
  1 26  1  0  0  0  0
  1 27  1  0  0  0  0
  1 28  1  0  0  0  0
  2  1  1  0  0  0  0
  3  2  2  0  0  0  0
  3 29  1  0  0  0  0
  4  3  1  0  0  0  0
  4 30  1  0  0  0  0
  4 31  1  0  0  0  0
  5  4  1  0  0  0  0
  5 32  1  6  0  0  0
  6  5  1  0  0  0  0
  6 33  1  0  0  0  0
  6 34  1  0  0  0  0
  7  6  1  0  0  0  0
  7  2  1  0  0  0  0
  7 35  1  0  0  0  0
  7 36  1  0  0  0  0
  8  5  1  0  0  0  0
  9  8  1  0  0  0  0
  9 37  1  0  0  0  0
  9 38  1  0  0  0  0
  9 39  1  0  0  0  0
 10  8  1  0  0  0  0
 10 40  1  0  0  0  0
 10 41  1  0  0  0  0
 10 42  1  0  0  0  0
 11  8  1  0  0  0  0
 11 43  1  0  0  0  0
 12 11  1  0  0  0  0
 13 12  2  0  0  0  0
 14 12  1  0  0  0  0
 14 44  1  0  0  0  0
 15 14  1  0  0  0  0
 16 15  2  0  0  0  0
 16 45  1  0  0  0  0
 17 16  1  0  0  0  0
 18 17  2  0  0  0  0
 18 46  1  0  0  0  0
 19 18  1  0  0  0  0
 19 47  1  0  0  0  0
 20 19  2  0  0  0  0
 21 20  1  0  0  0  0
 21 48  1  0  0  0  0
 22 21  2  0  0  0  0
 22 17  1  0  0  0  0
 22 49  1  0  0  0  0
 23 20  1  0  0  0  0
 24 23  1  0  0  0  0
 25 23  2  0  0  0  0
M  CHG  2  23   1  24  -1
M  END
>  <MOL Chiral Flag>
0

>  <energy>
93.692220454605689

$$$$
> 404_AKC_j.bmcl.2015.04.097
>389.sdf
 OpenBabel10062213163D

 38 40  0  0  0  0  0  0  0  0999 V2000
    1.8683    2.0856   -1.7538 C   0  0  0  0  0  0  0  0  0  0  0  0
    2.5619    1.8082   -0.4117 C   0  0  1  0  0  0  0  0  0  0  0  0
    1.6668    1.2333    0.5127 O   0  0  0  0  0  0  0  0  0  0  0  0
    2.0906   -0.0641    0.8843 C   0  0  2  0  0  0  0  0  0  0  0  0
    3.4929   -0.3149    0.2905 C   0  0  0  0  0  0  0  0  0  0  0  0
    3.7505    0.8851   -0.6316 C   0  0  2  0  0  0  0  0  0  0  0  0
    5.0077    1.6103   -0.5486 N   0  0  0  0  0  0  0  0  0  0  0  0
    5.2518    2.4546   -1.4078 N   0  3  0  0  0  0  0  0  0  0  0  0
    5.4449    3.2778   -2.2841 N   0  5  0  0  0  0  0  0  0  0  0  0
    1.0165   -1.0716    0.5670 N   0  0  0  0  0  0  0  0  0  0  0  0
   -0.2153   -0.6310    0.1317 C   0  0  0  0  0  0  0  0  0  0  0  0
   -1.2693   -1.5152   -0.1296 C   0  0  0  0  0  0  0  0  0  0  0  0
   -2.5818   -0.9844   -0.5714 C   0  0  0  0  0  0  0  0  0  0  0  0
   -3.1917   -1.3057   -1.7296 N   0  0  0  0  0  0  0  0  0  0  0  0
   -4.2930   -0.6085   -1.7957 O   0  0  0  0  0  0  0  0  0  0  0  0
   -4.4481    0.1316   -0.7192 C   0  0  0  0  0  0  0  0  0  0  0  0
   -5.6332    1.0244   -0.4691 C   0  0  0  0  0  0  0  0  0  0  0  0
   -5.6834    1.4597    0.8641 O   0  0  0  0  0  0  0  0  0  0  0  0
   -3.3624   -0.0726    0.1085 C   0  0  0  0  0  0  0  0  0  0  0  0
   -1.0561   -2.8793    0.0574 C   0  0  0  0  0  0  0  0  0  0  0  0
   -1.9571   -3.6792   -0.1410 O   0  0  0  0  0  0  0  0  0  0  0  0
    0.1602   -3.3172    0.5152 N   0  0  0  0  0  0  0  0  0  0  0  0
    1.1900   -2.4353    0.7755 C   0  0  0  0  0  0  0  0  0  0  0  0
    2.2508   -2.8669    1.1952 O   0  0  0  0  0  0  0  0  0  0  0  0
    2.5583    2.6311   -2.4356 H   0  0  0  0  0  0  0  0  0  0  0  0
    0.9573    2.6977   -1.6138 H   0  0  0  0  0  0  0  0  0  0  0  0
    1.5803    1.1288   -2.2432 H   0  0  0  0  0  0  0  0  0  0  0  0
    2.8836    2.7722    0.0400 H   0  0  0  0  0  0  0  0  0  0  0  0
    2.2400   -0.0608    1.9854 H   0  0  0  0  0  0  0  0  0  0  0  0
    4.2281   -0.5640    1.1075 H   0  0  0  0  0  0  0  0  0  0  0  0
    3.4108   -1.1922   -0.3792 H   0  0  0  0  0  0  0  0  0  0  0  0
    3.7351    0.4636   -1.6558 H   0  0  0  0  0  0  0  0  0  0  0  0
   -0.4060    0.4213   -0.0209 H   0  0  0  0  0  0  0  0  0  0  0  0
   -5.6324    1.8891   -1.1704 H   0  0  0  0  0  0  0  0  0  0  0  0
   -6.5604    0.4464   -0.6640 H   0  0  0  0  0  0  0  0  0  0  0  0
   -4.9567    2.1221    0.9864 H   0  0  0  0  0  0  0  0  0  0  0  0
   -3.1714    0.3701    1.0767 H   0  0  0  0  0  0  0  0  0  0  0  0
    0.2979   -4.3413    0.6835 H   0  0  0  0  0  0  0  0  0  0  0  0
  1 25  1  0  0  0  0
  1 26  1  0  0  0  0
  1 27  1  0  0  0  0
  2  1  1  0  0  0  0
  2 28  1  1  0  0  0
  3  2  1  0  0  0  0
  4  3  1  0  0  0  0
  4 29  1  1  0  0  0
  5  4  1  0  0  0  0
  5 30  1  0  0  0  0
  5 31  1  0  0  0  0
  6  5  1  0  0  0  0
  6  2  1  0  0  0  0
  6 32  1  6  0  0  0
  7  6  1  0  0  0  0
  8  7  2  0  0  0  0
  9  8  2  0  0  0  0
 10  4  1  0  0  0  0
 11 10  1  0  0  0  0
 11 33  1  0  0  0  0
 12 11  2  0  0  0  0
 13 12  1  0  0  0  0
 14 13  2  0  0  0  0
 15 14  1  0  0  0  0
 16 15  1  0  0  0  0
 17 16  1  0  0  0  0
 17 34  1  0  0  0  0
 17 35  1  0  0  0  0
 18 17  1  0  0  0  0
 18 36  1  0  0  0  0
 19 16  2  0  0  0  0
 19 13  1  0  0  0  0
 19 37  1  0  0  0  0
 20 12  1  0  0  0  0
 21 20  2  0  0  0  0
 22 20  1  0  0  0  0
 22 38  1  0  0  0  0
 23 22  1  0  0  0  0
 23 10  1  0  0  0  0
 24 23  2  0  0  0  0
M  CHG  2   8   1   9  -1
M  END
>  <MOL Chiral Flag>
0

>  <energy>
-61.232943029346451

$$$$
> 405_AKC_j.ejpb.2015.04.018
>390.sdf
 OpenBabel10062213173D

 40 40  0  0  0  0  0  0  0  0999 V2000
   -1.7897   -3.6379    1.5594 C   0  0  0  0  0  0  0  0  0  0  0  0
   -2.7500   -2.9270    0.6027 C   0  0  0  0  0  0  0  0  0  0  0  0
   -2.3829   -1.4525    0.3746 C   0  0  0  0  0  0  0  0  0  0  0  0
   -1.0477   -1.2660   -0.3877 C   0  0  0  0  0  0  0  0  0  0  0  0
   -0.6536    0.1377   -0.5355 N   0  0  0  0  0  0  0  0  0  0  0  0
   -1.5476    1.0918   -1.1926 C   0  0  0  0  0  0  0  0  0  0  0  0
   -1.9901    2.1825   -0.2176 C   0  0  0  0  0  0  0  0  0  0  0  0
   -2.8261    3.1029   -0.8643 O   0  0  0  0  0  0  0  0  0  0  0  0
    0.7248    0.4972   -0.3310 C   0  0  0  0  0  0  0  0  0  0  0  0
    1.6242    0.5563   -1.4528 C   0  0  0  0  0  0  0  0  0  0  0  0
    2.9665    0.9270   -1.2362 C   0  0  0  0  0  0  0  0  0  0  0  0
    3.4471    1.2180    0.0404 C   0  0  0  0  0  0  0  0  0  0  0  0
    2.5824    1.1520    1.1286 C   0  0  0  0  0  0  0  0  0  0  0  0
    1.2270    0.8004    0.9801 C   0  0  0  0  0  0  0  0  0  0  0  0
    0.4032    0.7754    2.1562 N   0  0  0  0  0  0  0  0  0  0  0  0
    0.8664    1.0598    3.2203 O   0  0  0  0  0  0  0  0  0  0  0  0
   -0.7515    0.5039    2.0897 O   0  0  0  0  0  0  0  0  0  0  0  0
    4.8926    1.5931    0.2713 C   0  0  0  0  0  0  0  0  0  0  0  0
    5.6210    1.6128   -0.9058 F   0  0  0  0  0  0  0  0  0  0  0  0
    4.9576    2.8483    0.8483 F   0  0  0  0  0  0  0  0  0  0  0  0
    5.4718    0.6740    1.1279 F   0  0  0  0  0  0  0  0  0  0  0  0
    1.2202    0.2234   -2.7964 N   0  0  0  0  0  0  0  0  0  0  0  0
    0.1632   -0.2818   -3.0156 O   0  0  0  0  0  0  0  0  0  0  0  0
    1.9859    0.3658   -3.7026 O   0  0  0  0  0  0  0  0  0  0  0  0
   -2.1460   -4.6732    1.7402 H   0  0  0  0  0  0  0  0  0  0  0  0
   -0.7666   -3.7018    1.1391 H   0  0  0  0  0  0  0  0  0  0  0  0
   -1.7521   -3.1027    2.5328 H   0  0  0  0  0  0  0  0  0  0  0  0
   -2.7933   -3.4689   -0.3664 H   0  0  0  0  0  0  0  0  0  0  0  0
   -3.7621   -2.9585    1.0627 H   0  0  0  0  0  0  0  0  0  0  0  0
   -3.2031   -0.9935   -0.2153 H   0  0  0  0  0  0  0  0  0  0  0  0
   -2.3774   -0.9604    1.3608 H   0  0  0  0  0  0  0  0  0  0  0  0
   -1.1764   -1.7206   -1.3930 H   0  0  0  0  0  0  0  0  0  0  0  0
   -0.2289   -1.8119    0.1238 H   0  0  0  0  0  0  0  0  0  0  0  0
   -1.0463    1.5729   -2.0580 H   0  0  0  0  0  0  0  0  0  0  0  0
   -2.4529    0.5831   -1.5835 H   0  0  0  0  0  0  0  0  0  0  0  0
   -2.5202    1.7368    0.6541 H   0  0  0  0  0  0  0  0  0  0  0  0
   -1.1028    2.7258    0.1700 H   0  0  0  0  0  0  0  0  0  0  0  0
   -3.7106    2.6622   -0.9648 H   0  0  0  0  0  0  0  0  0  0  0  0
    3.6481    0.9710   -2.0753 H   0  0  0  0  0  0  0  0  0  0  0  0
    2.9759    1.3822    2.1113 H   0  0  0  0  0  0  0  0  0  0  0  0
  1 25  1  0  0  0  0
  1 26  1  0  0  0  0
  1 27  1  0  0  0  0
  2  1  1  0  0  0  0
  2 28  1  0  0  0  0
  2 29  1  0  0  0  0
  3  2  1  0  0  0  0
  3 30  1  0  0  0  0
  3 31  1  0  0  0  0
  4  3  1  0  0  0  0
  4 32  1  0  0  0  0
  4 33  1  0  0  0  0
  5  4  1  0  0  0  0
  6  5  1  0  0  0  0
  6 34  1  0  0  0  0
  6 35  1  0  0  0  0
  7  6  1  0  0  0  0
  7 36  1  0  0  0  0
  7 37  1  0  0  0  0
  8  7  1  0  0  0  0
  8 38  1  0  0  0  0
  9  5  1  0  0  0  0
 10  9  2  0  0  0  0
 11 10  1  0  0  0  0
 11 39  1  0  0  0  0
 12 11  2  0  0  0  0
 13 12  1  0  0  0  0
 13 40  1  0  0  0  0
 14 13  2  0  0  0  0
 14  9  1  0  0  0  0
 15 14  1  0  0  0  0
 16 15  2  0  0  0  0
 17 15  2  0  0  0  0
 18 12  1  0  0  0  0
 19 18  1  0  0  0  0
 20 18  1  0  0  0  0
 21 18  1  0  0  0  0
 22 10  1  0  0  0  0
 23 22  2  0  0  0  0
 24 22  2  0  0  0  0
M  END
>  <MOL Chiral Flag>
0

>  <energy>
166.76134297461925

$$$$
> 406_AKC_s10719-015-9582-x
>391.sdf
 OpenBabel10042217083D

110118  0  0  0  0  0  0  0  0999 V2000
    1.1598    4.1363    4.3117 C   0  0  0  0  0  0  0  0  0  0  0  0
   -0.0585    4.4594    3.6607 O   0  0  0  0  0  0  0  0  0  0  0  0
    0.1288    4.9820    2.3456 C   0  0  2  0  0  0  0  0  0  0  0  0
   -1.1340    5.4951    1.8697 O   0  0  0  0  0  0  0  0  0  0  0  0
   -1.3310    5.0464    0.5059 C   0  0  2  0  0  0  0  0  0  0  0  0
   -2.6221    4.2129    0.3722 C   0  0  0  0  0  0  0  0  0  0  0  0
   -2.5638    2.8728    0.9585 N   0  0  0  0  0  0  0  0  0  0  0  0
   -2.1561    2.6559    2.3012 N   0  0  0  0  0  0  0  0  0  0  0  0
   -2.6638    1.3769    2.6390 N   0  0  0  0  0  0  0  0  0  0  0  0
   -3.3117    0.8490    1.5201 C   0  0  0  0  0  0  0  0  0  0  0  0
   -3.7957   -0.5686    1.5078 C   0  0  0  0  0  0  0  0  0  0  0  0
   -4.2569   -0.9862    0.2202 O   0  0  0  0  0  0  0  0  0  0  0  0
   -3.8899   -2.2203   -0.2538 C   0  0  0  0  0  0  0  0  0  0  0  0
   -3.9028   -2.2729   -1.6607 C   0  0  0  0  0  0  0  0  0  0  0  0
   -3.4464   -3.4002   -2.3520 C   0  0  0  0  0  0  0  0  0  0  0  0
   -3.3671   -3.4518   -3.7197 O   0  0  0  0  0  0  0  0  0  0  0  0
   -2.4598   -2.4767   -4.2632 C   0  0  0  0  0  0  0  0  0  0  0  0
   -1.0572   -2.9870   -4.5468 C   0  0  0  0  0  0  0  0  0  0  0  0
   -0.0765   -2.0653   -4.9529 C   0  0  0  0  0  0  0  0  0  0  0  0
    1.2271   -2.4712   -5.2436 C   0  0  0  0  0  0  0  0  0  0  0  0
    1.5758   -3.8134   -5.1367 C   0  0  0  0  0  0  0  0  0  0  0  0
    0.6167   -4.7420   -4.7378 C   0  0  0  0  0  0  0  0  0  0  0  0
   -0.6925   -4.3360   -4.4562 C   0  0  0  0  0  0  0  0  0  0  0  0
   -3.0372   -4.5268   -1.6589 C   0  0  0  0  0  0  0  0  0  0  0  0
   -2.9824   -4.4720   -0.2707 C   0  0  0  0  0  0  0  0  0  0  0  0
   -3.4709   -3.3644    0.4436 C   0  0  0  0  0  0  0  0  0  0  0  0
   -3.5027   -3.5718    1.9097 C   0  0  0  0  0  0  0  0  0  0  0  0
   -4.3649   -3.0430    2.6066 O   0  0  0  0  0  0  0  0  0  0  0  0
   -2.4912   -4.5225    2.5050 C   0  0  0  0  0  0  0  0  0  0  0  0
   -1.4848   -4.9726    1.4483 C   0  0  1  0  0  0  0  0  0  0  0  0
   -2.2785   -5.4907    0.3443 O   0  0  0  0  0  0  0  0  0  0  0  0
   -0.4249   -3.9549    0.9910 C   0  0  0  0  0  0  0  0  0  0  0  0
    0.0647   -3.9918   -0.3268 C   0  0  0  0  0  0  0  0  0  0  0  0
    0.8227   -2.9409   -0.8408 C   0  0  0  0  0  0  0  0  0  0  0  0
    1.1847   -1.8754   -0.0156 C   0  0  0  0  0  0  0  0  0  0  0  0
    1.7328   -0.8006   -0.6661 O   0  0  0  0  0  0  0  0  0  0  0  0
    0.9303    0.3788   -0.5214 C   0  0  0  0  0  0  0  0  0  0  0  0
    0.2877    0.7492   -1.8344 C   0  0  0  0  0  0  0  0  0  0  0  0
   -1.1054    0.7553   -1.9586 C   0  0  0  0  0  0  0  0  0  0  0  0
   -1.7139    1.2371   -3.1160 C   0  0  0  0  0  0  0  0  0  0  0  0
   -0.9320    1.6954   -4.1727 C   0  0  0  0  0  0  0  0  0  0  0  0
    0.4587    1.6475   -4.0786 C   0  0  0  0  0  0  0  0  0  0  0  0
    1.0671    1.1646   -2.9200 C   0  0  0  0  0  0  0  0  0  0  0  0
    0.9298   -1.9399    1.3581 C   0  0  0  0  0  0  0  0  0  0  0  0
    1.3562   -1.0662    2.3241 O   0  0  0  0  0  0  0  0  0  0  0  0
    2.6214   -0.4204    2.1460 C   0  0  0  0  0  0  0  0  0  0  0  0
    3.7447   -1.0284    2.9516 C   0  0  0  0  0  0  0  0  0  0  0  0
    5.0314   -1.1098    2.3896 C   0  0  0  0  0  0  0  0  0  0  0  0
    6.1136   -1.5518    3.1486 C   0  0  0  0  0  0  0  0  0  0  0  0
    5.9221   -1.9217    4.4751 C   0  0  0  0  0  0  0  0  0  0  0  0
    4.6492   -1.8603    5.0406 C   0  0  0  0  0  0  0  0  0  0  0  0
    3.5640   -1.4155    4.2829 C   0  0  0  0  0  0  0  0  0  0  0  0
    0.0784   -2.9524    1.8391 C   0  0  0  0  0  0  0  0  0  0  0  0
   -3.3260    1.7894    0.5652 C   0  0  0  0  0  0  0  0  0  0  0  0
   -0.0537    4.3622    0.0592 C   0  0  1  0  0  0  0  0  0  0  0  0
    0.8703    5.3266   -0.4871 O   0  0  0  0  0  0  0  0  0  0  0  0
    2.1643    4.8781   -0.0749 C   0  0  0  0  0  0  0  0  0  0  0  0
    3.0269    6.0791    0.2974 C   0  0  0  0  0  0  0  0  0  0  0  0
    2.8130    4.0943   -1.2094 C   0  0  0  0  0  0  0  0  0  0  0  0
    2.0278    4.0175    1.0646 O   0  0  0  0  0  0  0  0  0  0  0  0
    0.6188    3.9379    1.3294 C   0  0  1  0  0  0  0  0  0  0  0  0
    1.7566    5.0370    4.4752 H   0  0  0  0  0  0  0  0  0  0  0  0
    0.9192    3.7035    5.2864 H   0  0  0  0  0  0  0  0  0  0  0  0
    1.7312    3.3992    3.7434 H   0  0  0  0  0  0  0  0  0  0  0  0
    0.8126    5.8369    2.4087 H   0  0  0  0  0  0  0  0  0  0  0  0
   -1.4764    5.9597   -0.0837 H   0  0  0  0  0  0  0  0  0  0  0  0
   -2.8462    4.1092   -0.6979 H   0  0  0  0  0  0  0  0  0  0  0  0
   -3.4582    4.7584    0.8302 H   0  0  0  0  0  0  0  0  0  0  0  0
   -2.5639    3.3649    2.9246 H   0  0  0  0  0  0  0  0  0  0  0  0
   -2.0111    0.7359    3.0869 H   0  0  0  0  0  0  0  0  0  0  0  0
   -4.6273   -0.6571    2.2148 H   0  0  0  0  0  0  0  0  0  0  0  0
   -2.9415   -1.1643    1.8436 H   0  0  0  0  0  0  0  0  0  0  0  0
   -4.2529   -1.4041   -2.2121 H   0  0  0  0  0  0  0  0  0  0  0  0
   -2.3940   -1.5833   -3.6327 H   0  0  0  0  0  0  0  0  0  0  0  0
   -2.8951   -2.1585   -5.2180 H   0  0  0  0  0  0  0  0  0  0  0  0
   -0.3298   -1.0122   -5.0463 H   0  0  0  0  0  0  0  0  0  0  0  0
    1.9656   -1.7367   -5.5537 H   0  0  0  0  0  0  0  0  0  0  0  0
    2.5865   -4.1400   -5.3704 H   0  0  0  0  0  0  0  0  0  0  0  0
    0.8878   -5.7913   -4.6549 H   0  0  0  0  0  0  0  0  0  0  0  0
   -1.4193   -5.0885   -4.1684 H   0  0  0  0  0  0  0  0  0  0  0  0
   -2.6700   -5.3996   -2.1852 H   0  0  0  0  0  0  0  0  0  0  0  0
   -2.0160   -4.0593    3.3724 H   0  0  0  0  0  0  0  0  0  0  0  0
   -3.0649   -5.3924    2.8510 H   0  0  0  0  0  0  0  0  0  0  0  0
   -0.9233   -5.8246    1.8519 H   0  0  0  0  0  0  0  0  0  0  0  0
   -0.2274   -4.7944   -1.0065 H   0  0  0  0  0  0  0  0  0  0  0  0
    1.0765   -2.9238   -1.9006 H   0  0  0  0  0  0  0  0  0  0  0  0
    0.1736    0.3124    0.2716 H   0  0  0  0  0  0  0  0  0  0  0  0
    1.5956    1.2004   -0.2274 H   0  0  0  0  0  0  0  0  0  0  0  0
   -1.7227    0.4038   -1.1373 H   0  0  0  0  0  0  0  0  0  0  0  0
   -2.7969    1.2571   -3.1852 H   0  0  0  0  0  0  0  0  0  0  0  0
   -1.4049    2.0766   -5.0736 H   0  0  0  0  0  0  0  0  0  0  0  0
    1.0734    1.9924   -4.9049 H   0  0  0  0  0  0  0  0  0  0  0  0
    2.1528    1.1435   -2.8487 H   0  0  0  0  0  0  0  0  0  0  0  0
    2.9456   -0.3448    1.1108 H   0  0  0  0  0  0  0  0  0  0  0  0
    2.4882    0.6111    2.4898 H   0  0  0  0  0  0  0  0  0  0  0  0
    5.2026   -0.8114    1.3574 H   0  0  0  0  0  0  0  0  0  0  0  0
    7.1068   -1.5984    2.7085 H   0  0  0  0  0  0  0  0  0  0  0  0
    6.7658   -2.2537    5.0703 H   0  0  0  0  0  0  0  0  0  0  0  0
    4.5044   -2.1491    6.0769 H   0  0  0  0  0  0  0  0  0  0  0  0
    2.5809   -1.3542    4.7443 H   0  0  0  0  0  0  0  0  0  0  0  0
   -0.1807   -2.9361    2.8959 H   0  0  0  0  0  0  0  0  0  0  0  0
   -3.7688    1.7440   -0.4157 H   0  0  0  0  0  0  0  0  0  0  0  0
   -0.1864    3.5806   -0.6915 H   0  0  0  0  0  0  0  0  0  0  0  0
    2.5588    6.6575    1.1010 H   0  0  0  0  0  0  0  0  0  0  0  0
    3.1632    6.7650   -0.5470 H   0  0  0  0  0  0  0  0  0  0  0  0
    4.0079    5.7604    0.6636 H   0  0  0  0  0  0  0  0  0  0  0  0
    2.1780    3.2589   -1.5048 H   0  0  0  0  0  0  0  0  0  0  0  0
    2.9576    4.7136   -2.1001 H   0  0  0  0  0  0  0  0  0  0  0  0
    3.7699    3.6648   -0.9029 H   0  0  0  0  0  0  0  0  0  0  0  0
    0.3822    2.9164    1.6329 H   0  0  0  0  0  0  0  0  0  0  0  0
  1 62  1  0  0  0  0
  1 63  1  0  0  0  0
  1 64  1  0  0  0  0
  2  1  1  0  0  0  0
  3  2  1  0  0  0  0
  3 65  1  1  0  0  0
  4  3  1  0  0  0  0
  5  4  1  0  0  0  0
  5 66  1  6  0  0  0
  6  5  1  0  0  0  0
  6 67  1  0  0  0  0
  6 68  1  0  0  0  0
  7  6  1  0  0  0  0
  8  7  1  0  0  0  0
  8 69  1  0  0  0  0
  9  8  1  0  0  0  0
  9 70  1  0  0  0  0
 10  9  1  0  0  0  0
 11 10  1  0  0  0  0
 11 71  1  0  0  0  0
 11 72  1  0  0  0  0
 12 11  1  0  0  0  0
 13 12  1  0  0  0  0
 14 13  2  0  0  0  0
 14 73  1  0  0  0  0
 15 14  1  0  0  0  0
 16 15  1  0  0  0  0
 17 16  1  0  0  0  0
 17 74  1  0  0  0  0
 17 75  1  0  0  0  0
 18 17  1  0  0  0  0
 19 18  2  0  0  0  0
 19 76  1  0  0  0  0
 20 19  1  0  0  0  0
 20 77  1  0  0  0  0
 21 20  2  0  0  0  0
 21 78  1  0  0  0  0
 22 21  1  0  0  0  0
 22 79  1  0  0  0  0
 23 22  2  0  0  0  0
 23 18  1  0  0  0  0
 23 80  1  0  0  0  0
 24 15  2  0  0  0  0
 24 81  1  0  0  0  0
 25 24  1  0  0  0  0
 26 25  2  0  0  0  0
 26 13  1  0  0  0  0
 27 26  1  0  0  0  0
 28 27  2  0  0  0  0
 29 27  1  0  0  0  0
 29 82  1  0  0  0  0
 29 83  1  0  0  0  0
 30 29  1  0  0  0  0
 30 84  1  1  0  0  0
 31 30  1  0  0  0  0
 31 25  1  0  0  0  0
 32 30  1  0  0  0  0
 33 32  2  0  0  0  0
 33 85  1  0  0  0  0
 34 33  1  0  0  0  0
 34 86  1  0  0  0  0
 35 34  2  0  0  0  0
 36 35  1  0  0  0  0
 37 36  1  0  0  0  0
 37 87  1  0  0  0  0
 37 88  1  0  0  0  0
 38 37  1  0  0  0  0
 39 38  2  0  0  0  0
 39 89  1  0  0  0  0
 40 39  1  0  0  0  0
 40 90  1  0  0  0  0
 41 40  2  0  0  0  0
 41 91  1  0  0  0  0
 42 41  1  0  0  0  0
 42 92  1  0  0  0  0
 43 42  2  0  0  0  0
 43 38  1  0  0  0  0
 43 93  1  0  0  0  0
 44 35  1  0  0  0  0
 45 44  1  0  0  0  0
 46 45  1  0  0  0  0
 46 94  1  0  0  0  0
 46 95  1  0  0  0  0
 47 46  1  0  0  0  0
 48 47  2  0  0  0  0
 48 96  1  0  0  0  0
 49 48  1  0  0  0  0
 49 97  1  0  0  0  0
 50 49  2  0  0  0  0
 50 98  1  0  0  0  0
 51 50  1  0  0  0  0
 51 99  1  0  0  0  0
 52 51  2  0  0  0  0
 52 47  1  0  0  0  0
 52100  1  0  0  0  0
 53 44  2  0  0  0  0
 53 32  1  0  0  0  0
 53101  1  0  0  0  0
 54 10  2  0  0  0  0
 54  7  1  0  0  0  0
 54102  1  0  0  0  0
 55  5  1  0  0  0  0
 55103  1  6  0  0  0
 56 55  1  0  0  0  0
 57 56  1  0  0  0  0
 58 57  1  0  0  0  0
 58104  1  0  0  0  0
 58105  1  0  0  0  0
 58106  1  0  0  0  0
 59 57  1  0  0  0  0
 59107  1  0  0  0  0
 59108  1  0  0  0  0
 59109  1  0  0  0  0
 60 57  1  0  0  0  0
 61 60  1  0  0  0  0
 61  3  1  0  0  0  0
 61 55  1  0  0  0  0
 61110  1  1  0  0  0
M  END
>  <energy>
295.23899104046268

$$$$
> 407_AKC_j.bmc.2015.03.064
>392.sdf
 OpenBabel10062213183D

 33 35  0  0  0  0  0  0  0  0999 V2000
   -5.7773   -0.7918    2.0779 F   0  0  0  0  0  0  0  0  0  0  0  0
   -4.9361    0.2962    2.2371 C   0  0  0  0  0  0  0  0  0  0  0  0
   -5.5957    1.4260    1.7859 F   0  0  0  0  0  0  0  0  0  0  0  0
   -4.6584    0.4459    3.5832 F   0  0  0  0  0  0  0  0  0  0  0  0
   -3.6455    0.1263    1.4710 C   0  0  0  0  0  0  0  0  0  0  0  0
   -3.3781   -1.0435    0.7356 C   0  0  0  0  0  0  0  0  0  0  0  0
   -2.1915   -1.1633    0.0029 C   0  0  0  0  0  0  0  0  0  0  0  0
   -1.2414   -0.1309    0.0178 C   0  0  0  0  0  0  0  0  0  0  0  0
   -1.5007    1.0307    0.7645 C   0  0  0  0  0  0  0  0  0  0  0  0
   -2.6961    1.1608    1.4785 C   0  0  0  0  0  0  0  0  0  0  0  0
   -0.0192   -0.2090   -0.8253 C   0  0  0  0  0  0  0  0  0  0  0  0
   -0.2052   -0.3090   -2.2026 C   0  0  0  0  0  0  0  0  0  0  0  0
    0.8834   -0.2684   -3.0590 C   0  0  0  0  0  0  0  0  0  0  0  0
    0.7028   -0.3265   -4.2636 O   0  0  0  0  0  0  0  0  0  0  0  0
    2.1560   -0.1415   -2.5640 N   0  0  0  0  0  0  0  0  0  0  0  0
    2.4127   -0.0768   -1.2131 C   0  0  0  0  0  0  0  0  0  0  0  0
    1.3010   -0.1143   -0.3081 C   0  0  0  0  0  0  0  0  0  0  0  0
    1.5287   -0.0819    1.0791 C   0  0  0  0  0  0  0  0  0  0  0  0
    2.8170    0.0052    1.5826 C   0  0  0  0  0  0  0  0  0  0  0  0
    3.9054    0.0858    0.7268 C   0  0  0  0  0  0  0  0  0  0  0  0
    3.7520    0.0486   -0.6761 C   0  0  0  0  0  0  0  0  0  0  0  0
    4.9540    0.1410   -1.4744 N   0  0  0  0  0  0  0  0  0  0  0  0
    4.9578   -0.1211   -2.6365 O   0  0  0  0  0  0  0  0  0  0  0  0
    5.9858    0.4475   -0.9582 O   0  0  0  0  0  0  0  0  0  0  0  0
   -4.0895   -1.8586    0.7163 H   0  0  0  0  0  0  0  0  0  0  0  0
   -2.0084   -2.0631   -0.5707 H   0  0  0  0  0  0  0  0  0  0  0  0
   -0.7954    1.8531    0.7568 H   0  0  0  0  0  0  0  0  0  0  0  0
   -2.8929    2.0766    2.0234 H   0  0  0  0  0  0  0  0  0  0  0  0
   -1.2068   -0.3742   -2.6139 H   0  0  0  0  0  0  0  0  0  0  0  0
    2.9015   -0.0993   -3.2786 H   0  0  0  0  0  0  0  0  0  0  0  0
    0.7107   -0.1446    1.7836 H   0  0  0  0  0  0  0  0  0  0  0  0
    2.9779    0.0128    2.6535 H   0  0  0  0  0  0  0  0  0  0  0  0
    4.8918    0.1609    1.1675 H   0  0  0  0  0  0  0  0  0  0  0  0
  2  1  1  0  0  0  0
  3  2  1  0  0  0  0
  4  2  1  0  0  0  0
  5  2  1  0  0  0  0
  6  5  2  0  0  0  0
  6 25  1  0  0  0  0
  7  6  1  0  0  0  0
  7 26  1  0  0  0  0
  8  7  2  0  0  0  0
  9  8  1  0  0  0  0
  9 27  1  0  0  0  0
 10  9  2  0  0  0  0
 10  5  1  0  0  0  0
 10 28  1  0  0  0  0
 11  8  1  0  0  0  0
 12 11  2  0  0  0  0
 12 29  1  0  0  0  0
 13 12  1  0  0  0  0
 14 13  2  0  0  0  0
 15 13  1  0  0  0  0
 15 30  1  0  0  0  0
 16 15  1  0  0  0  0
 17 16  2  0  0  0  0
 17 11  1  0  0  0  0
 18 17  1  0  0  0  0
 18 31  1  0  0  0  0
 19 18  2  0  0  0  0
 19 32  1  0  0  0  0
 20 19  1  0  0  0  0
 20 33  1  0  0  0  0
 21 20  2  0  0  0  0
 21 16  1  0  0  0  0
 22 21  1  0  0  0  0
 23 22  2  0  0  0  0
 24 22  2  0  0  0  0
M  END
>  <MOL Chiral Flag>
0

>  <energy>
80.229567390980549

$$$$
> 408_AKC_fmb.14.149
>393.sdf
 OpenBabel10062213193D

 84 88  0  0  0  0  0  0  0  0999 V2000
   -5.7079   -4.0755    1.6631 C   0  0  0  0  0  0  0  0  0  0  0  0
   -5.0926   -3.1255    0.6288 C   0  0  1  0  0  0  0  0  0  0  0  0
   -6.1220   -2.0593    0.2377 C   0  0  0  0  0  0  0  0  0  0  0  0
   -5.4289   -0.9608   -0.5541 C   0  0  0  0  0  0  0  0  0  0  0  0
   -4.3331   -0.2290    0.3056 C   0  0  2  0  0  0  0  0  0  0  0  0
   -3.5685   -1.1538    1.0097 O   0  0  0  0  0  0  0  0  0  0  0  0
   -3.8111   -2.4917    1.1305 C   0  0  0  0  0  0  0  0  0  0  0  0
   -2.9355   -3.2103    1.5935 O   0  0  0  0  0  0  0  0  0  0  0  0
   -5.0463    0.6619    1.3581 C   0  0  0  0  0  0  0  0  0  0  0  0
   -3.4055    0.6045   -0.6936 C   0  0  1  0  0  0  0  0  0  0  0  0
   -4.2183    1.7504   -1.3645 C   0  0  0  0  0  0  0  0  0  0  0  0
   -2.0029    1.1998   -0.2466 C   0  0  1  0  0  0  0  0  0  0  0  0
   -1.8913    2.1741    0.9665 C   0  0  0  0  0  0  0  0  0  0  0  0
   -0.3980    2.1564    1.3991 C   0  0  0  0  0  0  0  0  0  0  0  0
    0.3412    1.5525    0.1962 C   0  0  2  0  0  0  0  0  0  0  0  0
   -0.6557    0.4156   -0.2318 C   0  0  2  0  0  0  0  0  0  0  0  0
   -0.2060   -0.1862   -1.6008 C   0  0  0  0  0  0  0  0  0  0  0  0
    1.3377   -0.1913   -1.8149 C   0  0  0  0  0  0  0  0  0  0  0  0
    2.2085    0.0868   -0.5766 C   0  0  0  0  0  0  0  0  0  0  0  0
    1.7091    0.8983    0.4169 C   0  0  0  0  0  0  0  0  0  0  0  0
    2.4535    1.1386    1.7201 C   0  0  0  0  0  0  0  0  0  0  0  0
    3.7030    0.2729    1.9139 C   0  0  0  0  0  0  0  0  0  0  0  0
    4.4814    0.2266    0.5967 C   0  0  2  0  0  0  0  0  0  0  0  0
    3.6177   -0.5464   -0.4906 C   0  0  2  0  0  0  0  0  0  0  0  0
    4.3729   -0.3621   -1.8422 C   0  0  0  0  0  0  0  0  0  0  0  0
    5.8340   -0.8480   -1.7849 C   0  0  0  0  0  0  0  0  0  0  0  0
    6.6272   -0.0604   -0.7225 C   0  0  1  0  0  0  0  0  0  0  0  0
    6.0122   -0.1668    0.7129 C   0  0  0  0  0  0  0  0  0  0  0  0
    6.7511    0.8693    1.6070 C   0  0  0  0  0  0  0  0  0  0  0  0
    6.2741   -1.5514    1.3589 C   0  0  0  0  0  0  0  0  0  0  0  0
    7.9919   -0.4072   -0.7413 O   0  0  0  0  0  0  0  0  0  0  0  0
    3.3621   -2.0607   -0.2408 C   0  0  0  0  0  0  0  0  0  0  0  0
   -0.6859   -0.7617    0.7984 C   0  0  0  0  0  0  0  0  0  0  0  0
    0.5590    2.7542   -0.7926 C   0  0  0  0  0  0  0  0  0  0  0  0
   -5.9765   -3.5258    2.5909 H   0  0  0  0  0  0  0  0  0  0  0  0
   -4.9900   -4.8826    1.9212 H   0  0  0  0  0  0  0  0  0  0  0  0
   -6.6233   -4.5501    1.2485 H   0  0  0  0  0  0  0  0  0  0  0  0
   -4.8173   -3.7203   -0.2703 H   0  0  0  0  0  0  0  0  0  0  0  0
   -6.6023   -1.6219    1.1345 H   0  0  0  0  0  0  0  0  0  0  0  0
   -6.9313   -2.5311   -0.3616 H   0  0  0  0  0  0  0  0  0  0  0  0
   -6.1954   -0.2497   -0.9248 H   0  0  0  0  0  0  0  0  0  0  0  0
   -4.9642   -1.4528   -1.4377 H   0  0  0  0  0  0  0  0  0  0  0  0
   -4.3570    1.2060    2.0093 H   0  0  0  0  0  0  0  0  0  0  0  0
   -5.7281    1.3947    0.8801 H   0  0  0  0  0  0  0  0  0  0  0  0
   -5.6548    0.0591    2.0581 H   0  0  0  0  0  0  0  0  0  0  0  0
   -3.1305   -0.0885   -1.5194 H   0  0  0  0  0  0  0  0  0  0  0  0
   -5.1448    1.3927   -1.8487 H   0  0  0  0  0  0  0  0  0  0  0  0
   -3.6366    2.2285   -2.1815 H   0  0  0  0  0  0  0  0  0  0  0  0
   -4.4710    2.5425   -0.6301 H   0  0  0  0  0  0  0  0  0  0  0  0
   -1.7804    1.8374   -1.1217 H   0  0  0  0  0  0  0  0  0  0  0  0
   -2.4436    1.8865    1.8698 H   0  0  0  0  0  0  0  0  0  0  0  0
   -2.2315    3.1798    0.6363 H   0  0  0  0  0  0  0  0  0  0  0  0
   -0.0134    3.1172    1.8047 H   0  0  0  0  0  0  0  0  0  0  0  0
   -0.3203    1.4451    2.2433 H   0  0  0  0  0  0  0  0  0  0  0  0
   -0.6339    0.3744   -2.4590 H   0  0  0  0  0  0  0  0  0  0  0  0
   -0.6185   -1.2139   -1.7094 H   0  0  0  0  0  0  0  0  0  0  0  0
    1.5812    0.6385   -2.5036 H   0  0  0  0  0  0  0  0  0  0  0  0
    1.6452   -1.0549   -2.4364 H   0  0  0  0  0  0  0  0  0  0  0  0
    2.7369    2.2134    1.7211 H   0  0  0  0  0  0  0  0  0  0  0  0
    1.8096    0.9490    2.6022 H   0  0  0  0  0  0  0  0  0  0  0  0
    3.4410   -0.7574    2.2265 H   0  0  0  0  0  0  0  0  0  0  0  0
    4.2620    0.7294    2.7520 H   0  0  0  0  0  0  0  0  0  0  0  0
    4.5285    1.2868    0.2468 H   0  0  0  0  0  0  0  0  0  0  0  0
    4.3804    0.7179   -2.1136 H   0  0  0  0  0  0  0  0  0  0  0  0
    3.8638   -0.9033   -2.6661 H   0  0  0  0  0  0  0  0  0  0  0  0
    5.8823   -1.9369   -1.5870 H   0  0  0  0  0  0  0  0  0  0  0  0
    6.3015   -0.6741   -2.7788 H   0  0  0  0  0  0  0  0  0  0  0  0
    6.5657    1.0043   -1.0449 H   0  0  0  0  0  0  0  0  0  0  0  0
    7.8441    0.6688    1.6259 H   0  0  0  0  0  0  0  0  0  0  0  0
    6.6067    1.9031    1.2258 H   0  0  0  0  0  0  0  0  0  0  0  0
    6.4128    0.8360    2.6613 H   0  0  0  0  0  0  0  0  0  0  0  0
    5.7902   -1.6184    2.3557 H   0  0  0  0  0  0  0  0  0  0  0  0
    7.3635   -1.7052    1.5138 H   0  0  0  0  0  0  0  0  0  0  0  0
    5.9641   -2.4059    0.7529 H   0  0  0  0  0  0  0  0  0  0  0  0
    8.0600   -1.3969   -0.7328 H   0  0  0  0  0  0  0  0  0  0  0  0
    4.2497   -2.6960   -0.2732 H   0  0  0  0  0  0  0  0  0  0  0  0
    2.8308   -2.2382    0.7149 H   0  0  0  0  0  0  0  0  0  0  0  0
    2.7196   -2.4836   -1.0402 H   0  0  0  0  0  0  0  0  0  0  0  0
   -1.3192   -1.5782    0.4136 H   0  0  0  0  0  0  0  0  0  0  0  0
   -1.0827   -0.4813    1.7935 H   0  0  0  0  0  0  0  0  0  0  0  0
    0.3135   -1.2191    0.9452 H   0  0  0  0  0  0  0  0  0  0  0  0
    1.2913    3.4592   -0.3424 H   0  0  0  0  0  0  0  0  0  0  0  0
   -0.3462    3.3645   -0.9816 H   0  0  0  0  0  0  0  0  0  0  0  0
    0.9586    2.4817   -1.7783 H   0  0  0  0  0  0  0  0  0  0  0  0
  1 35  1  0  0  0  0
  1 36  1  0  0  0  0
  1 37  1  0  0  0  0
  2  1  1  0  0  0  0
  2 38  1  6  0  0  0
  3  2  1  0  0  0  0
  3 39  1  0  0  0  0
  3 40  1  0  0  0  0
  4  3  1  0  0  0  0
  4 41  1  0  0  0  0
  4 42  1  0  0  0  0
  5  4  1  0  0  0  0
  5  9  1  1  0  0  0
  6  5  1  0  0  0  0
  7  6  1  0  0  0  0
  7  2  1  0  0  0  0
  8  7  2  0  0  0  0
  9 43  1  0  0  0  0
  9 44  1  0  0  0  0
  9 45  1  0  0  0  0
 10  5  1  0  0  0  0
 10 46  1  6  0  0  0
 11 10  1  0  0  0  0
 11 47  1  0  0  0  0
 11 48  1  0  0  0  0
 11 49  1  0  0  0  0
 12 10  1  0  0  0  0
 12 50  1  6  0  0  0
 13 12  1  0  0  0  0
 13 51  1  0  0  0  0
 13 52  1  0  0  0  0
 14 13  1  0  0  0  0
 14 53  1  0  0  0  0
 14 54  1  0  0  0  0
 15 14  1  0  0  0  0
 15 34  1  6  0  0  0
 16 15  1  0  0  0  0
 16 12  1  0  0  0  0
 16 33  1  1  0  0  0
 17 16  1  0  0  0  0
 17 55  1  0  0  0  0
 17 56  1  0  0  0  0
 18 17  1  0  0  0  0
 18 57  1  0  0  0  0
 18 58  1  0  0  0  0
 19 18  1  0  0  0  0
 20 19  2  0  0  0  0
 20 15  1  0  0  0  0
 21 20  1  0  0  0  0
 21 59  1  0  0  0  0
 21 60  1  0  0  0  0
 22 21  1  0  0  0  0
 22 61  1  0  0  0  0
 22 62  1  0  0  0  0
 23 22  1  0  0  0  0
 23 63  1  6  0  0  0
 24 23  1  0  0  0  0
 24 19  1  0  0  0  0
 24 32  1  1  0  0  0
 25 24  1  0  0  0  0
 25 64  1  0  0  0  0
 25 65  1  0  0  0  0
 26 25  1  0  0  0  0
 26 66  1  0  0  0  0
 26 67  1  0  0  0  0
 27 26  1  0  0  0  0
 27 68  1  6  0  0  0
 28 27  1  0  0  0  0
 28 23  1  0  0  0  0
 29 28  1  0  0  0  0
 29 69  1  0  0  0  0
 29 70  1  0  0  0  0
 29 71  1  0  0  0  0
 30 28  1  0  0  0  0
 30 72  1  0  0  0  0
 30 73  1  0  0  0  0
 30 74  1  0  0  0  0
 31 27  1  0  0  0  0
 31 75  1  0  0  0  0
 32 76  1  0  0  0  0
 32 77  1  0  0  0  0
 32 78  1  0  0  0  0
 33 79  1  0  0  0  0
 33 80  1  0  0  0  0
 33 81  1  0  0  0  0
 34 82  1  0  0  0  0
 34 83  1  0  0  0  0
 34 84  1  0  0  0  0
M  END
>  <MOL Chiral Flag>
0

>  <energy>
174.94490721181506

$$$$
> 409_AKC_np500809a
>394.sdf
 OpenBabel10062213193D

 49 50  0  0  0  0  0  0  0  0999 V2000
    0.7258   -2.6111    3.1470 C   0  0  0  0  0  0  0  0  0  0  0  0
   -0.6427   -2.4529    3.0849 O   0  0  0  0  0  0  0  0  0  0  0  0
   -1.3344   -1.4125    2.5389 C   0  0  0  0  0  0  0  0  0  0  0  0
   -2.7325   -1.4886    2.5672 C   0  0  0  0  0  0  0  0  0  0  0  0
   -3.5389   -0.4801    2.0152 C   0  0  0  0  0  0  0  0  0  0  0  0
   -5.0468   -0.6633    2.1082 C   0  0  0  0  0  0  0  0  0  0  0  0
   -5.9416    0.3587    1.4440 C   0  0  0  0  0  0  0  0  0  0  0  0
   -7.2695    0.2347    1.5242 C   0  0  0  0  0  0  0  0  0  0  0  0
   -2.9142    0.6329    1.4189 C   0  0  0  0  0  0  0  0  0  0  0  0
   -1.5221    0.7224    1.3783 C   0  0  0  0  0  0  0  0  0  0  0  0
   -0.7185   -0.2864    1.9342 C   0  0  0  0  0  0  0  0  0  0  0  0
    0.6294   -0.1593    1.9071 O   0  0  0  0  0  0  0  0  0  0  0  0
    1.3228    0.1528    0.7871 C   0  0  0  0  0  0  0  0  0  0  0  0
    1.4582   -0.8130   -0.2121 C   0  0  0  0  0  0  0  0  0  0  0  0
    2.1966   -0.5493   -1.3671 C   0  0  0  0  0  0  0  0  0  0  0  0
    2.3507   -1.6165   -2.4231 C   0  0  0  0  0  0  0  0  0  0  0  0
    1.0078   -2.0404   -2.9612 C   0  0  0  0  0  0  0  0  0  0  0  0
    0.6992   -1.9243   -4.2554 C   0  0  0  0  0  0  0  0  0  0  0  0
    2.8069    0.7019   -1.5212 C   0  0  0  0  0  0  0  0  0  0  0  0
    2.6791    1.6991   -0.5267 C   0  0  0  0  0  0  0  0  0  0  0  0
    3.2786    2.9121   -0.6739 O   0  0  0  0  0  0  0  0  0  0  0  0
    4.0978    3.2866   -1.7204 C   0  0  0  0  0  0  0  0  0  0  0  0
    1.9201    1.4172    0.6470 C   0  0  0  0  0  0  0  0  0  0  0  0
    1.7260    2.3180    1.6531 O   0  0  0  0  0  0  0  0  0  0  0  0
    2.1179    3.6406    1.6804 C   0  0  0  0  0  0  0  0  0  0  0  0
    1.1798   -1.8077    3.7632 H   0  0  0  0  0  0  0  0  0  0  0  0
    0.9508   -3.5871    3.6232 H   0  0  0  0  0  0  0  0  0  0  0  0
    1.1654   -2.6287    2.1290 H   0  0  0  0  0  0  0  0  0  0  0  0
   -3.1999   -2.3536    3.0239 H   0  0  0  0  0  0  0  0  0  0  0  0
   -5.2937   -1.6483    1.6551 H   0  0  0  0  0  0  0  0  0  0  0  0
   -5.3079   -0.7015    3.1889 H   0  0  0  0  0  0  0  0  0  0  0  0
   -5.5493    1.1967    0.8881 H   0  0  0  0  0  0  0  0  0  0  0  0
   -7.9139    0.9627    1.0420 H   0  0  0  0  0  0  0  0  0  0  0  0
   -7.7190   -0.5902    2.0696 H   0  0  0  0  0  0  0  0  0  0  0  0
   -3.4766    1.4447    0.9920 H   0  0  0  0  0  0  0  0  0  0  0  0
   -1.0639    1.5938    0.9272 H   0  0  0  0  0  0  0  0  0  0  0  0
    0.9947   -1.7821   -0.0793 H   0  0  0  0  0  0  0  0  0  0  0  0
    3.0031   -1.2535   -3.2479 H   0  0  0  0  0  0  0  0  0  0  0  0
    2.8473   -2.5013   -1.9706 H   0  0  0  0  0  0  0  0  0  0  0  0
    0.2708   -2.4575   -2.2810 H   0  0  0  0  0  0  0  0  0  0  0  0
    1.4099   -1.5151   -4.9663 H   0  0  0  0  0  0  0  0  0  0  0  0
   -0.2763   -2.2433   -4.6078 H   0  0  0  0  0  0  0  0  0  0  0  0
    3.3831    0.8927   -2.4163 H   0  0  0  0  0  0  0  0  0  0  0  0
    3.5433    3.2470   -2.6819 H   0  0  0  0  0  0  0  0  0  0  0  0
    4.9909    2.6266   -1.7627 H   0  0  0  0  0  0  0  0  0  0  0  0
    4.4408    4.3284   -1.5555 H   0  0  0  0  0  0  0  0  0  0  0  0
    1.7686    4.0986    2.6281 H   0  0  0  0  0  0  0  0  0  0  0  0
    1.6511    4.1968    0.8386 H   0  0  0  0  0  0  0  0  0  0  0  0
    3.2242    3.7234    1.6481 H   0  0  0  0  0  0  0  0  0  0  0  0
  1 26  1  0  0  0  0
  1 27  1  0  0  0  0
  1 28  1  0  0  0  0
  2  1  1  0  0  0  0
  3  2  1  0  0  0  0
  4  3  2  0  0  0  0
  4 29  1  0  0  0  0
  5  4  1  0  0  0  0
  6  5  1  0  0  0  0
  6 30  1  0  0  0  0
  6 31  1  0  0  0  0
  7  6  1  0  0  0  0
  7 32  1  0  0  0  0
  8  7  2  0  0  0  0
  8 33  1  0  0  0  0
  8 34  1  0  0  0  0
  9  5  2  0  0  0  0
  9 35  1  0  0  0  0
 10  9  1  0  0  0  0
 10 36  1  0  0  0  0
 11 10  2  0  0  0  0
 11  3  1  0  0  0  0
 12 11  1  0  0  0  0
 13 12  1  0  0  0  0
 14 13  2  0  0  0  0
 14 37  1  0  0  0  0
 15 14  1  0  0  0  0
 16 15  1  0  0  0  0
 16 38  1  0  0  0  0
 16 39  1  0  0  0  0
 17 16  1  0  0  0  0
 17 40  1  0  0  0  0
 18 17  2  0  0  0  0
 18 41  1  0  0  0  0
 18 42  1  0  0  0  0
 19 15  2  0  0  0  0
 19 43  1  0  0  0  0
 20 19  1  0  0  0  0
 21 20  1  0  0  0  0
 22 21  1  0  0  0  0
 22 44  1  0  0  0  0
 22 45  1  0  0  0  0
 22 46  1  0  0  0  0
 23 20  2  0  0  0  0
 23 13  1  0  0  0  0
 24 23  1  0  0  0  0
 25 24  1  0  0  0  0
 25 47  1  0  0  0  0
 25 48  1  0  0  0  0
 25 49  1  0  0  0  0
M  END
>  <MOL Chiral Flag>
0

>  <energy>
124.24595292185043

$$$$
> 410_AKC_AAC.04742-14
>395.sdf
 OpenBabel10062213193D

 35 38  0  0  0  0  0  0  0  0999 V2000
   -3.8142    0.0345    0.2175 C   0  0  0  0  0  0  0  0  0  0  0  0
   -2.8000   -0.5304   -0.7893 C   0  0  0  0  0  0  0  0  0  0  0  0
   -3.3274   -0.2935   -2.2163 C   0  0  0  0  0  0  0  0  0  0  0  0
   -2.5928   -2.0323   -0.5011 C   0  0  0  0  0  0  0  0  0  0  0  0
   -1.4189   -2.5880   -1.3082 C   0  0  0  0  0  0  0  0  0  0  0  0
   -0.2008   -1.7074   -1.1269 C   0  0  0  0  0  0  0  0  0  0  0  0
   -0.3548   -0.4014   -0.7827 C   0  0  0  0  0  0  0  0  0  0  0  0
   -1.5983    0.1501   -0.6307 O   0  0  0  0  0  0  0  0  0  0  0  0
    0.8585    0.4692   -0.5708 C   0  0  2  0  0  0  0  0  0  0  0  0
    0.8132    1.0398    0.8157 C   0  0  0  0  0  0  0  0  0  0  0  0
    0.6802    1.8397   -0.3400 O   0  0  0  0  0  0  0  0  0  0  0  0
    2.2366   -0.0664   -0.8841 C   0  0  0  0  0  0  0  0  0  0  0  0
    2.3692   -1.4185   -1.2541 C   0  0  0  0  0  0  0  0  0  0  0  0
    3.6469   -1.9409   -1.5290 C   0  0  0  0  0  0  0  0  0  0  0  0
    4.7762   -1.1232   -1.4413 C   0  0  0  0  0  0  0  0  0  0  0  0
    4.6435    0.2199   -1.0872 C   0  0  0  0  0  0  0  0  0  0  0  0
    3.3814    0.7513   -0.8123 C   0  0  0  0  0  0  0  0  0  0  0  0
    1.1584   -2.2764   -1.3655 C   0  0  0  0  0  0  0  0  0  0  0  0
    1.2724   -3.4508   -1.6835 O   0  0  0  0  0  0  0  0  0  0  0  0
   -3.4414   -0.0940    1.2568 H   0  0  0  0  0  0  0  0  0  0  0  0
   -3.9703    1.1210    0.0436 H   0  0  0  0  0  0  0  0  0  0  0  0
   -4.7930   -0.4842    0.1264 H   0  0  0  0  0  0  0  0  0  0  0  0
   -3.4887    0.7919   -2.3917 H   0  0  0  0  0  0  0  0  0  0  0  0
   -2.6043   -0.6505   -2.9778 H   0  0  0  0  0  0  0  0  0  0  0  0
   -4.2931   -0.8226   -2.3682 H   0  0  0  0  0  0  0  0  0  0  0  0
   -3.5165   -2.6255   -0.6774 H   0  0  0  0  0  0  0  0  0  0  0  0
   -2.3193   -2.1399    0.5737 H   0  0  0  0  0  0  0  0  0  0  0  0
   -1.6464   -2.6737   -2.3913 H   0  0  0  0  0  0  0  0  0  0  0  0
   -1.2195   -3.6107   -0.9212 H   0  0  0  0  0  0  0  0  0  0  0  0
   -0.1531    1.1469    1.3539 H   0  0  0  0  0  0  0  0  0  0  0  0
    1.7355    1.4010    1.3172 H   0  0  0  0  0  0  0  0  0  0  0  0
    3.7693   -2.9782   -1.8136 H   0  0  0  0  0  0  0  0  0  0  0  0
    5.7561   -1.5316   -1.6527 H   0  0  0  0  0  0  0  0  0  0  0  0
    5.5208    0.8506   -1.0233 H   0  0  0  0  0  0  0  0  0  0  0  0
    3.2980    1.7946   -0.5367 H   0  0  0  0  0  0  0  0  0  0  0  0
  1 20  1  0  0  0  0
  1 21  1  0  0  0  0
  1 22  1  0  0  0  0
  2  1  1  0  0  0  0
  3  2  1  0  0  0  0
  3 23  1  0  0  0  0
  3 24  1  0  0  0  0
  3 25  1  0  0  0  0
  4  2  1  0  0  0  0
  4 26  1  0  0  0  0
  4 27  1  0  0  0  0
  5  4  1  0  0  0  0
  5 28  1  0  0  0  0
  5 29  1  0  0  0  0
  6  5  1  0  0  0  0
  7  6  2  0  0  0  0
  8  7  1  0  0  0  0
  8  2  1  0  0  0  0
  9  7  1  6  0  0  0
 10  9  1  0  0  0  0
 10 30  1  0  0  0  0
 10 31  1  0  0  0  0
 11 10  1  0  0  0  0
 11  9  1  0  0  0  0
 12  9  1  0  0  0  0
 13 12  2  0  0  0  0
 14 13  1  0  0  0  0
 14 32  1  0  0  0  0
 15 14  2  0  0  0  0
 15 33  1  0  0  0  0
 16 15  1  0  0  0  0
 16 34  1  0  0  0  0
 17 16  2  0  0  0  0
 17 12  1  0  0  0  0
 17 35  1  0  0  0  0
 18 13  1  0  0  0  0
 18  6  1  0  0  0  0
 19 18  2  0  0  0  0
M  END
>  <MOL Chiral Flag>
0

>  <energy>
55.082426027093646

$$$$
> 411_AKC_j.jtcme.2014.11.004
>396.sdf
 OpenBabel10062213203D

 30 32  0  0  0  0  0  0  0  0999 V2000
    4.6028   -1.7212   -1.7898 O   0  0  0  0  0  0  0  0  0  0  0  0
    4.2853   -1.5295   -0.4298 C   0  0  0  0  0  0  0  0  0  0  0  0
    3.0015   -0.7559   -0.2370 C   0  0  0  0  0  0  0  0  0  0  0  0
    3.0354    0.6347   -0.2149 C   0  0  0  0  0  0  0  0  0  0  0  0
    1.8712    1.3871   -0.0704 C   0  0  0  0  0  0  0  0  0  0  0  0
    2.0311    2.7328   -0.0637 O   0  0  0  0  0  0  0  0  0  0  0  0
    0.6034    0.7208    0.0516 C   0  0  0  0  0  0  0  0  0  0  0  0
   -0.6994    1.4547    0.1963 C   0  0  0  0  0  0  0  0  0  0  0  0
   -0.6970    2.6669    0.2235 O   0  0  0  0  0  0  0  0  0  0  0  0
   -2.0052    0.7197    0.3036 C   0  0  0  0  0  0  0  0  0  0  0  0
   -1.9856   -0.6982    0.2738 C   0  0  0  0  0  0  0  0  0  0  0  0
   -3.1889   -1.4216    0.3712 C   0  0  0  0  0  0  0  0  0  0  0  0
   -4.4039   -0.7612    0.4980 C   0  0  0  0  0  0  0  0  0  0  0  0
   -4.4436    0.6250    0.5290 C   0  0  0  0  0  0  0  0  0  0  0  0
   -3.2749    1.3833    0.4342 C   0  0  0  0  0  0  0  0  0  0  0  0
   -3.4317    2.7291    0.4726 O   0  0  0  0  0  0  0  0  0  0  0  0
   -0.7034   -1.4311    0.1390 C   0  0  0  0  0  0  0  0  0  0  0  0
   -0.7057   -2.6555    0.1138 O   0  0  0  0  0  0  0  0  0  0  0  0
    0.5808   -0.6968    0.0269 C   0  0  0  0  0  0  0  0  0  0  0  0
    1.7806   -1.4194   -0.1145 C   0  0  0  0  0  0  0  0  0  0  0  0
    3.9835   -1.1972   -2.3635 H   0  0  0  0  0  0  0  0  0  0  0  0
    4.1990   -2.5234    0.0567 H   0  0  0  0  0  0  0  0  0  0  0  0
    5.1219   -0.9910    0.0667 H   0  0  0  0  0  0  0  0  0  0  0  0
    3.9844    1.1484   -0.3148 H   0  0  0  0  0  0  0  0  0  0  0  0
    1.3528    3.4059    0.0194 H   0  0  0  0  0  0  0  0  0  0  0  0
   -3.1882   -2.5046    0.3489 H   0  0  0  0  0  0  0  0  0  0  0  0
   -5.3239   -1.3263    0.5726 H   0  0  0  0  0  0  0  0  0  0  0  0
   -5.3985    1.1263    0.6278 H   0  0  0  0  0  0  0  0  0  0  0  0
   -2.7497    3.4017    0.4151 H   0  0  0  0  0  0  0  0  0  0  0  0
    1.7662   -2.5031   -0.1421 H   0  0  0  0  0  0  0  0  0  0  0  0
  1 21  1  0  0  0  0
  2  1  1  0  0  0  0
  2 22  1  0  0  0  0
  2 23  1  0  0  0  0
  3  2  1  0  0  0  0
  4  3  2  0  0  0  0
  4 24  1  0  0  0  0
  5  4  1  0  0  0  0
  6  5  1  0  0  0  0
  6 25  1  0  0  0  0
  7  5  2  0  0  0  0
  8  7  1  0  0  0  0
  9  8  2  0  0  0  0
 10  8  1  0  0  0  0
 11 10  2  0  0  0  0
 12 11  1  0  0  0  0
 12 26  1  0  0  0  0
 13 12  2  0  0  0  0
 13 27  1  0  0  0  0
 14 13  1  0  0  0  0
 14 28  1  0  0  0  0
 15 14  2  0  0  0  0
 15 10  1  0  0  0  0
 16 15  1  0  0  0  0
 16 29  1  0  0  0  0
 17 11  1  0  0  0  0
 18 17  2  0  0  0  0
 19 17  1  0  0  0  0
 19  7  1  0  0  0  0
 20 19  2  0  0  0  0
 20  3  1  0  0  0  0
 20 30  1  0  0  0  0
M  END
>  <MOL Chiral Flag>
0

>  <energy>
47.420013418603077

$$$$
> 412_AKC_C4MD00441H
>397.sdf
 OpenBabel10062213203D

 68 72  0  0  0  0  0  0  0  0999 V2000
   -5.6647    1.7456    1.4638 C   0  0  0  0  0  0  0  0  0  0  0  0
   -6.2087    0.5122    0.6920 C   0  0  0  0  0  0  0  0  0  0  0  0
   -7.1620    1.0357   -0.3978 C   0  0  0  0  0  0  0  0  0  0  0  0
   -7.0077   -0.3955    1.6438 C   0  0  0  0  0  0  0  0  0  0  0  0
   -5.2143   -0.2455    0.0008 O   0  0  0  0  0  0  0  0  0  0  0  0
   -4.0380   -0.5823    0.7239 C   0  0  0  0  0  0  0  0  0  0  0  0
   -2.8672    0.2822    0.3030 C   0  0  0  0  0  0  0  0  0  0  0  0
   -1.5664    0.0011    0.7630 C   0  0  0  0  0  0  0  0  0  0  0  0
   -0.4801    0.8052    0.3675 C   0  0  0  0  0  0  0  0  0  0  0  0
   -0.6938    1.9258   -0.4616 C   0  0  0  0  0  0  0  0  0  0  0  0
   -2.0005    2.1860   -0.9142 C   0  0  0  0  0  0  0  0  0  0  0  0
   -3.0594    1.3706   -0.5566 C   0  0  0  0  0  0  0  0  0  0  0  0
    0.4101    2.8419   -0.8872 C   0  0  0  0  0  0  0  0  0  0  0  0
    0.1081    4.1994   -1.1152 C   0  0  0  0  0  0  0  0  0  0  0  0
    1.0756    5.0841   -1.5508 C   0  0  0  0  0  0  0  0  0  0  0  0
    2.3675    4.6463   -1.7943 C   0  0  0  0  0  0  0  0  0  0  0  0
    3.2765    5.5374   -2.2567 N   0  0  0  0  0  0  0  0  0  0  0  0
    4.5406    5.1596   -2.5311 C   0  0  0  0  0  0  0  0  0  0  0  0
    4.9168    3.8773   -2.3383 N   0  0  0  0  0  0  0  0  0  0  0  0
    4.0730    2.9204   -1.8586 C   0  0  0  0  0  0  0  0  0  0  0  0
    4.5635    1.5746   -1.7317 N   0  0  0  0  0  0  0  0  0  0  0  0
    5.9671    1.2774   -1.8200 C   0  0  0  0  0  0  0  0  0  0  0  0
    6.9316    2.2046   -1.3941 C   0  0  0  0  0  0  0  0  0  0  0  0
    8.2827    1.9435   -1.5414 C   0  0  0  0  0  0  0  0  0  0  0  0
    8.7421    0.7560   -2.1092 C   0  0  0  0  0  0  0  0  0  0  0  0
   10.0965    0.6767   -2.2428 O   0  0  0  0  0  0  0  0  0  0  0  0
   10.9993   -0.2427   -2.7398 C   0  0  0  0  0  0  0  0  0  0  0  0
   12.0915   -0.5187   -1.7335 C   0  0  0  0  0  0  0  0  0  0  0  0
   13.2114   -1.2668   -2.1320 C   0  0  0  0  0  0  0  0  0  0  0  0
   14.2501   -1.5194   -1.2308 C   0  0  0  0  0  0  0  0  0  0  0  0
   14.1767   -1.0359    0.0777 C   0  0  0  0  0  0  0  0  0  0  0  0
   13.0654   -0.2957    0.4882 C   0  0  0  0  0  0  0  0  0  0  0  0
   12.9948    0.1708    1.7594 F   0  0  0  0  0  0  0  0  0  0  0  0
   12.0270   -0.0322   -0.4106 C   0  0  0  0  0  0  0  0  0  0  0  0
    7.7792   -0.2252   -2.5049 C   0  0  0  0  0  0  0  0  0  0  0  0
    8.1785   -1.7781   -3.2234 Cl  0  0  0  0  0  0  0  0  0  0  0  0
    6.4037    0.0496   -2.3440 C   0  0  0  0  0  0  0  0  0  0  0  0
    2.7267    3.2890   -1.5749 C   0  0  0  0  0  0  0  0  0  0  0  0
    1.7373    2.3898   -1.0953 C   0  0  0  0  0  0  0  0  0  0  0  0
   -4.9726    1.4621    2.2811 H   0  0  0  0  0  0  0  0  0  0  0  0
   -5.1464    2.4578    0.7924 H   0  0  0  0  0  0  0  0  0  0  0  0
   -6.5054    2.3041    1.9297 H   0  0  0  0  0  0  0  0  0  0  0  0
   -6.6094    1.6821   -1.1148 H   0  0  0  0  0  0  0  0  0  0  0  0
   -7.5959    0.1895   -0.9738 H   0  0  0  0  0  0  0  0  0  0  0  0
   -7.9944    1.6288    0.0379 H   0  0  0  0  0  0  0  0  0  0  0  0
   -7.8447    0.1714    2.1077 H   0  0  0  0  0  0  0  0  0  0  0  0
   -6.3668   -0.7860    2.4597 H   0  0  0  0  0  0  0  0  0  0  0  0
   -7.4349   -1.2572    1.0879 H   0  0  0  0  0  0  0  0  0  0  0  0
   -3.7993   -1.6361    0.4690 H   0  0  0  0  0  0  0  0  0  0  0  0
   -4.1673   -0.5647    1.8265 H   0  0  0  0  0  0  0  0  0  0  0  0
   -1.3945   -0.8428    1.4206 H   0  0  0  0  0  0  0  0  0  0  0  0
    0.5104    0.5706    0.7357 H   0  0  0  0  0  0  0  0  0  0  0  0
   -2.2104    3.0126   -1.5770 H   0  0  0  0  0  0  0  0  0  0  0  0
   -4.0344    1.6084   -0.9536 H   0  0  0  0  0  0  0  0  0  0  0  0
   -0.8836    4.5910   -0.9395 H   0  0  0  0  0  0  0  0  0  0  0  0
    0.8136    6.1225   -1.7138 H   0  0  0  0  0  0  0  0  0  0  0  0
    5.2503    5.8792   -2.9135 H   0  0  0  0  0  0  0  0  0  0  0  0
    3.8957    0.7917   -1.7426 H   0  0  0  0  0  0  0  0  0  0  0  0
    6.6512    3.1414   -0.9381 H   0  0  0  0  0  0  0  0  0  0  0  0
    8.9962    2.6924   -1.2196 H   0  0  0  0  0  0  0  0  0  0  0  0
   11.4770    0.2308   -3.6240 H   0  0  0  0  0  0  0  0  0  0  0  0
   10.5644   -1.1921   -3.0652 H   0  0  0  0  0  0  0  0  0  0  0  0
   13.2831   -1.6419   -3.1456 H   0  0  0  0  0  0  0  0  0  0  0  0
   15.1141   -2.0885   -1.5483 H   0  0  0  0  0  0  0  0  0  0  0  0
   14.9821   -1.2341    0.7730 H   0  0  0  0  0  0  0  0  0  0  0  0
   11.1776    0.5461   -0.0703 H   0  0  0  0  0  0  0  0  0  0  0  0
    5.6726   -0.6827   -2.6657 H   0  0  0  0  0  0  0  0  0  0  0  0
    1.9719    1.3504   -0.9234 H   0  0  0  0  0  0  0  0  0  0  0  0
  1 40  1  0  0  0  0
  1 41  1  0  0  0  0
  1 42  1  0  0  0  0
  2  1  1  0  0  0  0
  3  2  1  0  0  0  0
  3 43  1  0  0  0  0
  3 44  1  0  0  0  0
  3 45  1  0  0  0  0
  4  2  1  0  0  0  0
  4 46  1  0  0  0  0
  4 47  1  0  0  0  0
  4 48  1  0  0  0  0
  5  2  1  0  0  0  0
  6  5  1  0  0  0  0
  6 49  1  0  0  0  0
  6 50  1  0  0  0  0
  7  6  1  0  0  0  0
  8  7  2  0  0  0  0
  8 51  1  0  0  0  0
  9  8  1  0  0  0  0
  9 52  1  0  0  0  0
 10  9  2  0  0  0  0
 11 10  1  0  0  0  0
 11 53  1  0  0  0  0
 12 11  2  0  0  0  0
 12  7  1  0  0  0  0
 12 54  1  0  0  0  0
 13 10  1  0  0  0  0
 14 13  2  0  0  0  0
 14 55  1  0  0  0  0
 15 14  1  0  0  0  0
 15 56  1  0  0  0  0
 16 15  2  0  0  0  0
 17 16  1  0  0  0  0
 18 17  2  0  0  0  0
 18 57  1  0  0  0  0
 19 18  1  0  0  0  0
 20 19  2  0  0  0  0
 21 20  1  0  0  0  0
 21 58  1  0  0  0  0
 22 21  1  0  0  0  0
 23 22  2  0  0  0  0
 23 59  1  0  0  0  0
 24 23  1  0  0  0  0
 24 60  1  0  0  0  0
 25 24  2  0  0  0  0
 26 25  1  0  0  0  0
 27 26  1  0  0  0  0
 27 61  1  0  0  0  0
 27 62  1  0  0  0  0
 28 27  1  0  0  0  0
 29 28  2  0  0  0  0
 29 63  1  0  0  0  0
 30 29  1  0  0  0  0
 30 64  1  0  0  0  0
 31 30  2  0  0  0  0
 31 65  1  0  0  0  0
 32 31  1  0  0  0  0
 33 32  1  0  0  0  0
 34 32  2  0  0  0  0
 34 28  1  0  0  0  0
 34 66  1  0  0  0  0
 35 25  1  0  0  0  0
 36 35  1  0  0  0  0
 37 35  2  0  0  0  0
 37 22  1  0  0  0  0
 37 67  1  0  0  0  0
 38 20  1  0  0  0  0
 38 16  1  0  0  0  0
 39 38  2  0  0  0  0
 39 13  1  0  0  0  0
 39 68  1  0  0  0  0
M  END
>  <MOL Chiral Flag>
0

>  <energy>
86.662941878464025

$$$$
> 413_AKC_jac/dku422
>398.sdf
 OpenBabel10062213203D

 33 35  0  0  0  0  0  0  0  0999 V2000
    0.5613   -2.7324   -1.2786 C   0  0  0  0  0  0  0  0  0  0  0  0
    0.0823   -1.8130   -0.1435 C   0  0  2  0  0  0  0  0  0  0  0  0
    1.1263   -1.7025    0.9941 C   0  0  0  0  0  0  0  0  0  0  0  0
    2.4380   -1.6344    0.5370 O   0  0  0  0  0  0  0  0  0  0  0  0
    3.4352   -2.4350    1.0242 C   0  0  0  0  0  0  0  0  0  0  0  0
    3.4077   -2.9320    2.3499 C   0  0  0  0  0  0  0  0  0  0  0  0
    4.4191   -3.7741    2.8139 C   0  0  0  0  0  0  0  0  0  0  0  0
    5.4732   -4.1294    1.9738 C   0  0  0  0  0  0  0  0  0  0  0  0
    5.5243   -3.6321    0.6683 C   0  0  0  0  0  0  0  0  0  0  0  0
    4.5128   -2.7832    0.1950 C   0  0  0  0  0  0  0  0  0  0  0  0
   -1.2882   -2.3564    0.4649 C   0  0  0  0  0  0  0  0  0  0  0  0
   -2.1646   -1.2694    0.1483 N   0  0  0  0  0  0  0  0  0  0  0  0
   -3.4356   -0.8892    0.2823 C   0  0  0  0  0  0  0  0  0  0  0  0
   -3.5272    0.3654   -0.3048 C   0  0  0  0  0  0  0  0  0  0  0  0
   -2.3072    0.7374   -0.7891 N   0  0  0  0  0  0  0  0  0  0  0  0
   -1.5298   -0.3180   -0.4684 C   0  0  0  0  0  0  0  0  0  0  0  0
   -0.2322   -0.5479   -0.6694 O   0  0  0  0  0  0  0  0  0  0  0  0
   -4.7018    1.1555   -0.3911 N   0  0  0  0  0  0  0  0  0  0  0  0
   -5.7271    0.7587    0.0777 O   0  0  0  0  0  0  0  0  0  0  0  0
   -4.6711    2.2192   -0.9286 O   0  0  0  0  0  0  0  0  0  0  0  0
    1.4736   -2.3149   -1.7572 H   0  0  0  0  0  0  0  0  0  0  0  0
    0.7900   -3.7468   -0.8901 H   0  0  0  0  0  0  0  0  0  0  0  0
   -0.2228   -2.8133   -2.0622 H   0  0  0  0  0  0  0  0  0  0  0  0
    1.0009   -2.6222    1.6004 H   0  0  0  0  0  0  0  0  0  0  0  0
    0.8919   -0.8279    1.6387 H   0  0  0  0  0  0  0  0  0  0  0  0
    2.6099   -2.6699    3.0309 H   0  0  0  0  0  0  0  0  0  0  0  0
    4.3814   -4.1529    3.8277 H   0  0  0  0  0  0  0  0  0  0  0  0
    6.2516   -4.7885    2.3373 H   0  0  0  0  0  0  0  0  0  0  0  0
    6.3465   -3.9105    0.0221 H   0  0  0  0  0  0  0  0  0  0  0  0
    4.5593   -2.4133   -0.8209 H   0  0  0  0  0  0  0  0  0  0  0  0
   -1.2671   -2.4806    1.5695 H   0  0  0  0  0  0  0  0  0  0  0  0
   -1.6454   -3.2872   -0.0255 H   0  0  0  0  0  0  0  0  0  0  0  0
   -4.2141   -1.4681    0.7627 H   0  0  0  0  0  0  0  0  0  0  0  0
  1 21  1  0  0  0  0
  1 22  1  0  0  0  0
  1 23  1  0  0  0  0
  2  1  1  6  0  0  0
  3  2  1  0  0  0  0
  3 24  1  0  0  0  0
  3 25  1  0  0  0  0
  4  3  1  0  0  0  0
  5  4  1  0  0  0  0
  6  5  2  0  0  0  0
  6 26  1  0  0  0  0
  7  6  1  0  0  0  0
  7 27  1  0  0  0  0
  8  7  2  0  0  0  0
  8 28  1  0  0  0  0
  9  8  1  0  0  0  0
  9 29  1  0  0  0  0
 10  9  2  0  0  0  0
 10  5  1  0  0  0  0
 10 30  1  0  0  0  0
 11  2  1  0  0  0  0
 11 31  1  0  0  0  0
 11 32  1  0  0  0  0
 12 11  1  0  0  0  0
 13 12  1  0  0  0  0
 13 33  1  0  0  0  0
 14 13  2  0  0  0  0
 15 14  1  0  0  0  0
 16 15  2  0  0  0  0
 16 12  1  0  0  0  0
 17 16  1  0  0  0  0
 17  2  1  0  0  0  0
 18 14  1  0  0  0  0
 19 18  2  0  0  0  0
 20 18  2  0  0  0  0
M  END
>  <MOL Chiral Flag>
0

>  <energy>
111.44472508061075

$$$$
> 414_AKC_AAC.04003-14
>399.sdf
 OpenBabel10062213213D

 48 47  0  0  0  0  0  0  0  0999 V2000
  -10.1446   -2.4177    5.0123 C   0  0  0  0  0  0  0  0  0  0  0  0
   -8.8815   -1.6382    4.6157 C   0  0  0  0  0  0  0  0  0  0  0  0
   -8.7826   -1.5190    3.0902 C   0  0  0  0  0  0  0  0  0  0  0  0
   -7.6161   -0.6575    2.5479 C   0  0  0  0  0  0  0  0  0  0  0  0
   -6.1771   -1.2185    2.7278 C   0  0  0  0  0  0  0  0  0  0  0  0
   -5.1826   -0.4619    1.7878 C   0  0  0  0  0  0  0  0  0  0  0  0
   -3.7474   -1.0780    1.6753 C   0  0  0  0  0  0  0  0  0  0  0  0
   -3.0797   -0.8376    0.2723 C   0  0  0  0  0  0  0  0  0  0  0  0
   -1.8943    0.1288    0.0545 C   0  0  0  0  0  0  0  0  0  0  0  0
   -0.5011   -0.3853    0.5022 C   0  0  0  0  0  0  0  0  0  0  0  0
    0.6102    0.6121    0.0346 C   0  0  2  0  0  0  0  0  0  0  0  0
    1.1155    0.3808   -1.4190 C   0  0  0  0  0  0  0  0  0  0  0  0
    1.7414   -0.8645   -1.5718 O   0  0  0  0  0  0  0  0  0  0  0  0
    1.7046    0.7635    1.0269 N   0  3  0  0  0  0  0  0  0  0  0  0
    2.5971   -0.3781    1.2444 C   0  0  0  0  0  0  0  0  0  0  0  0
    3.5868   -0.0306    2.3638 C   0  0  0  0  0  0  0  0  0  0  0  0
  -10.1244   -3.4458    4.5907 H   0  0  0  0  0  0  0  0  0  0  0  0
  -10.2200   -2.4922    6.1177 H   0  0  0  0  0  0  0  0  0  0  0  0
  -11.0580   -1.9022    4.6401 H   0  0  0  0  0  0  0  0  0  0  0  0
   -7.9886   -2.1604    5.0168 H   0  0  0  0  0  0  0  0  0  0  0  0
   -8.9457   -0.6239    5.0648 H   0  0  0  0  0  0  0  0  0  0  0  0
   -9.7244   -1.0383    2.7392 H   0  0  0  0  0  0  0  0  0  0  0  0
   -8.7369   -2.5340    2.6371 H   0  0  0  0  0  0  0  0  0  0  0  0
   -7.8151   -0.5998    1.4554 H   0  0  0  0  0  0  0  0  0  0  0  0
   -7.6768    0.3741    2.9555 H   0  0  0  0  0  0  0  0  0  0  0  0
   -6.1937   -2.2836    2.4064 H   0  0  0  0  0  0  0  0  0  0  0  0
   -5.8657   -1.1798    3.7934 H   0  0  0  0  0  0  0  0  0  0  0  0
   -5.1317    0.6224    2.0244 H   0  0  0  0  0  0  0  0  0  0  0  0
   -5.6523   -0.5674    0.7877 H   0  0  0  0  0  0  0  0  0  0  0  0
   -3.9278   -2.1725    1.6905 H   0  0  0  0  0  0  0  0  0  0  0  0
   -3.0885   -0.8767    2.5498 H   0  0  0  0  0  0  0  0  0  0  0  0
   -3.8742   -0.4935   -0.4214 H   0  0  0  0  0  0  0  0  0  0  0  0
   -2.7427   -1.8142   -0.1303 H   0  0  0  0  0  0  0  0  0  0  0  0
   -2.1082    1.1230    0.5041 H   0  0  0  0  0  0  0  0  0  0  0  0
   -1.8190    0.2659   -1.0459 H   0  0  0  0  0  0  0  0  0  0  0  0
   -0.2773   -1.4016    0.1001 H   0  0  0  0  0  0  0  0  0  0  0  0
   -0.5318   -0.4603    1.6070 H   0  0  0  0  0  0  0  0  0  0  0  0
    0.1365    1.6181    0.0200 H   0  0  0  0  0  0  0  0  0  0  0  0
    1.8328    1.1927   -1.6815 H   0  0  0  0  0  0  0  0  0  0  0  0
    0.2578    0.4307   -2.1246 H   0  0  0  0  0  0  0  0  0  0  0  0
    2.1136   -0.8781   -2.4944 H   0  0  0  0  0  0  0  0  0  0  0  0
    1.2516    1.0101    1.9384 H   0  0  0  0  0  0  0  0  0  0  0  0
    2.2839    1.5870    0.7390 H   0  0  0  0  0  0  0  0  0  0  0  0
    3.1932   -0.5937    0.3331 H   0  0  0  0  0  0  0  0  0  0  0  0
    2.0232   -1.2848    1.5359 H   0  0  0  0  0  0  0  0  0  0  0  0
    4.1645    0.8792    2.0881 H   0  0  0  0  0  0  0  0  0  0  0  0
    4.2965   -0.8643    2.5357 H   0  0  0  0  0  0  0  0  0  0  0  0
    3.0371    0.1761    3.3074 H   0  0  0  0  0  0  0  0  0  0  0  0
  1 17  1  0  0  0  0
  1 18  1  0  0  0  0
  1 19  1  0  0  0  0
  2  1  1  0  0  0  0
  2 20  1  0  0  0  0
  2 21  1  0  0  0  0
  3  2  1  0  0  0  0
  3 22  1  0  0  0  0
  3 23  1  0  0  0  0
  4  3  1  0  0  0  0
  4 24  1  0  0  0  0
  4 25  1  0  0  0  0
  5  4  1  0  0  0  0
  5 26  1  0  0  0  0
  5 27  1  0  0  0  0
  6  5  1  0  0  0  0
  6 28  1  0  0  0  0
  6 29  1  0  0  0  0
  7  6  1  0  0  0  0
  7 30  1  0  0  0  0
  7 31  1  0  0  0  0
  8  7  1  0  0  0  0
  8 32  1  0  0  0  0
  8 33  1  0  0  0  0
  9  8  1  0  0  0  0
  9 34  1  0  0  0  0
  9 35  1  0  0  0  0
 10  9  1  0  0  0  0
 10 36  1  0  0  0  0
 10 37  1  0  0  0  0
 11 10  1  0  0  0  0
 11 38  1  6  0  0  0
 12 11  1  0  0  0  0
 12 39  1  0  0  0  0
 12 40  1  0  0  0  0
 13 12  1  0  0  0  0
 13 41  1  0  0  0  0
 14 11  1  0  0  0  0
 14 42  1  0  0  0  0
 14 43  1  0  0  0  0
 15 14  1  0  0  0  0
 15 44  1  0  0  0  0
 15 45  1  0  0  0  0
 16 15  1  0  0  0  0
 16 46  1  0  0  0  0
 16 47  1  0  0  0  0
 16 48  1  0  0  0  0
M  CHG  1  14   1
M  END
>  <MOL Chiral Flag>
0

>  <energy>
24.66505582814677

$$$$
> 415_AKC_j.bmcl.2014.09.078
>400.sdf
 OpenBabel10062213223D

109115  0  0  0  0  0  0  0  0999 V2000
   -6.5338   -2.8630    7.6790 C   0  0  0  0  0  0  0  0  0  0  0  0
   -7.2443   -1.7132    7.3848 O   0  0  0  0  0  0  0  0  0  0  0  0
   -7.1221   -0.8801    6.3120 C   0  0  0  0  0  0  0  0  0  0  0  0
   -7.9096    0.2944    6.3058 C   0  0  0  0  0  0  0  0  0  0  0  0
   -8.7616    0.5392    7.3460 O   0  0  0  0  0  0  0  0  0  0  0  0
   -9.3636    1.7567    7.6467 C   0  0  0  0  0  0  0  0  0  0  0  0
  -10.8105    1.8211    7.1904 C   0  0  0  0  0  0  0  0  0  0  0  0
  -11.1541    1.7134    5.8261 C   0  0  0  0  0  0  0  0  0  0  0  0
  -12.4822    1.8297    5.4150 C   0  0  0  0  0  0  0  0  0  0  0  0
  -13.4885    2.0473    6.3535 C   0  0  0  0  0  0  0  0  0  0  0  0
  -13.1678    2.1453    7.7095 C   0  0  0  0  0  0  0  0  0  0  0  0
  -11.8361    2.0345    8.1293 C   0  0  0  0  0  0  0  0  0  0  0  0
   -7.8261    1.1701    5.2149 C   0  0  0  0  0  0  0  0  0  0  0  0
   -7.0376    0.8681    4.1288 C   0  0  0  0  0  0  0  0  0  0  0  0
   -6.2443   -0.2806    4.0996 C   0  0  0  0  0  0  0  0  0  0  0  0
   -5.4528   -0.4494    2.8560 C   0  0  0  0  0  0  0  0  0  0  0  0
   -4.2009   -0.9404    2.6682 C   0  0  0  0  0  0  0  0  0  0  0  0
   -3.3225   -1.4761    3.7679 C   0  0  0  0  0  0  0  0  0  0  0  0
   -1.9144   -1.6967    3.3637 N   0  0  0  0  0  0  0  0  0  0  0  0
   -1.2708   -0.8308    2.3573 C   0  0  0  0  0  0  0  0  0  0  0  0
   -2.2062   -0.3204    1.2915 C   0  0  0  0  0  0  0  0  0  0  0  0
   -1.8812    0.6017    0.3458 C   0  0  0  0  0  0  0  0  0  0  0  0
   -0.6429    1.3972    0.0881 C   0  0  0  0  0  0  0  0  0  0  0  0
    0.6433    1.1727    0.6230 C   0  0  0  0  0  0  0  0  0  0  0  0
    1.7179    2.0403    0.3025 C   0  0  0  0  0  0  0  0  0  0  0  0
    2.9237    1.7889    0.8890 O   0  0  0  0  0  0  0  0  0  0  0  0
    4.0512    2.5834    0.8270 C   0  0  0  0  0  0  0  0  0  0  0  0
    1.4925    3.1440   -0.5811 C   0  0  0  0  0  0  0  0  0  0  0  0
    2.5083    3.9813   -0.9487 O   0  0  0  0  0  0  0  0  0  0  0  0
    2.3502    5.2392   -1.5252 C   0  0  0  0  0  0  0  0  0  0  0  0
    2.3830    5.2637   -3.0442 C   0  0  0  0  0  0  0  0  0  0  0  0
    2.1603    6.4954   -3.6856 C   0  0  0  0  0  0  0  0  0  0  0  0
    2.1837    6.5918   -5.0793 C   0  0  0  0  0  0  0  0  0  0  0  0
    2.4366    5.4604   -5.8543 C   0  0  0  0  0  0  0  0  0  0  0  0
    2.6589    4.2261   -5.2353 C   0  0  0  0  0  0  0  0  0  0  0  0
    2.6289    4.1200   -3.8338 C   0  0  0  0  0  0  0  0  0  0  0  0
    0.1999    3.3544   -1.0763 C   0  0  0  0  0  0  0  0  0  0  0  0
   -0.8327    2.5044   -0.7479 C   0  0  0  0  0  0  0  0  0  0  0  0
   -3.6186   -0.7301    1.3400 C   0  0  0  0  0  0  0  0  0  0  0  0
   -4.3460   -0.5758    0.3641 O   0  0  0  0  0  0  0  0  0  0  0  0
   -1.1813   -2.6344    4.0722 C   0  0  0  0  0  0  0  0  0  0  0  0
   -1.7426   -3.3125    4.9206 O   0  0  0  0  0  0  0  0  0  0  0  0
    0.2645   -2.9367    3.8214 C   0  0  0  0  0  0  0  0  0  0  0  0
    1.1545   -2.1952    3.1322 N   0  0  0  0  0  0  0  0  0  0  0  0
    2.2768   -2.8607    3.0935 O   0  0  0  0  0  0  0  0  0  0  0  0
    2.1629   -4.0078    3.7231 C   0  0  0  0  0  0  0  0  0  0  0  0
    3.2244   -5.0416    3.7698 C   0  0  0  0  0  0  0  0  0  0  0  0
    2.9856   -6.2607    4.2857 C   0  0  0  0  0  0  0  0  0  0  0  0
    3.9951   -7.4034    4.2757 C   0  0  2  0  0  0  0  0  0  0  0  0
    3.2246   -8.7299    4.4223 C   0  0  0  0  0  0  0  0  0  0  0  0
    2.0136   -8.9902    3.5537 C   0  0  0  0  0  0  0  0  0  0  0  0
    3.6043   -9.7042    5.2771 C   0  0  0  0  0  0  0  0  0  0  0  0
    4.8602   -9.6339    6.0967 C   0  0  0  0  0  0  0  0  0  0  0  0
    5.8329   -8.5792    5.5558 C   0  0  0  0  0  0  0  0  0  0  0  0
    5.1422   -7.2159    5.3471 C   0  0  0  0  0  0  0  0  0  0  0  0
    6.2108   -6.2176    4.8495 C   0  0  0  0  0  0  0  0  0  0  0  0
    4.5935   -6.6962    6.7029 C   0  0  0  0  0  0  0  0  0  0  0  0
    0.8838   -4.0954    4.2354 C   0  0  0  0  0  0  0  0  0  0  0  0
   -6.2612   -1.1531    5.2056 C   0  0  0  0  0  0  0  0  0  0  0  0
   -7.2288   -3.7279    7.6595 H   0  0  0  0  0  0  0  0  0  0  0  0
   -6.1205   -2.7751    8.7050 H   0  0  0  0  0  0  0  0  0  0  0  0
   -5.6890   -3.0660    6.9995 H   0  0  0  0  0  0  0  0  0  0  0  0
   -8.8048    2.6119    7.2145 H   0  0  0  0  0  0  0  0  0  0  0  0
   -9.2915    1.9028    8.7457 H   0  0  0  0  0  0  0  0  0  0  0  0
  -10.4148    1.5487    5.0681 H   0  0  0  0  0  0  0  0  0  0  0  0
  -12.7280    1.7560    4.3627 H   0  0  0  0  0  0  0  0  0  0  0  0
  -14.5163    2.1415    6.0281 H   0  0  0  0  0  0  0  0  0  0  0  0
  -13.9517    2.3155    8.4350 H   0  0  0  0  0  0  0  0  0  0  0  0
  -11.6053    2.1264    9.1827 H   0  0  0  0  0  0  0  0  0  0  0  0
   -8.3866    2.0867    5.1704 H   0  0  0  0  0  0  0  0  0  0  0  0
   -7.0305    1.5608    3.2946 H   0  0  0  0  0  0  0  0  0  0  0  0
   -5.9107    0.0354    1.9955 H   0  0  0  0  0  0  0  0  0  0  0  0
   -3.3343   -0.7961    4.6451 H   0  0  0  0  0  0  0  0  0  0  0  0
   -3.7885   -2.4440    4.0497 H   0  0  0  0  0  0  0  0  0  0  0  0
   -0.7705    0.0080    2.8840 H   0  0  0  0  0  0  0  0  0  0  0  0
   -0.5618   -1.4235    1.7496 H   0  0  0  0  0  0  0  0  0  0  0  0
   -2.6993    0.9015   -0.3034 H   0  0  0  0  0  0  0  0  0  0  0  0
    0.8353    0.3415    1.2826 H   0  0  0  0  0  0  0  0  0  0  0  0
    4.4476    2.6182   -0.2089 H   0  0  0  0  0  0  0  0  0  0  0  0
    4.8353    2.1567    1.4855 H   0  0  0  0  0  0  0  0  0  0  0  0
    3.8203    3.6062    1.1979 H   0  0  0  0  0  0  0  0  0  0  0  0
    1.4099    5.7110   -1.1681 H   0  0  0  0  0  0  0  0  0  0  0  0
    3.1610    5.8954   -1.1493 H   0  0  0  0  0  0  0  0  0  0  0  0
    1.9628    7.3834   -3.0989 H   0  0  0  0  0  0  0  0  0  0  0  0
    2.0072    7.5474   -5.5576 H   0  0  0  0  0  0  0  0  0  0  0  0
    2.4600    5.5423   -6.9349 H   0  0  0  0  0  0  0  0  0  0  0  0
    2.8563    3.3533   -5.8456 H   0  0  0  0  0  0  0  0  0  0  0  0
    2.8059    3.1558   -3.3767 H   0  0  0  0  0  0  0  0  0  0  0  0
   -0.0275    4.1808   -1.7312 H   0  0  0  0  0  0  0  0  0  0  0  0
   -1.8135    2.7272   -1.1500 H   0  0  0  0  0  0  0  0  0  0  0  0
    4.1809   -4.8182    3.3137 H   0  0  0  0  0  0  0  0  0  0  0  0
    1.9986   -6.4760    4.6796 H   0  0  0  0  0  0  0  0  0  0  0  0
    4.4262   -7.4823    3.2527 H   0  0  0  0  0  0  0  0  0  0  0  0
    2.1835   -9.8995    2.9388 H   0  0  0  0  0  0  0  0  0  0  0  0
    1.8150   -8.1500    2.8560 H   0  0  0  0  0  0  0  0  0  0  0  0
    1.1157   -9.1426    4.1889 H   0  0  0  0  0  0  0  0  0  0  0  0
    2.9969  -10.6014    5.3658 H   0  0  0  0  0  0  0  0  0  0  0  0
    5.3843  -10.6119    6.0424 H   0  0  0  0  0  0  0  0  0  0  0  0
    4.5841   -9.4681    7.1589 H   0  0  0  0  0  0  0  0  0  0  0  0
    6.2212   -8.9297    4.5723 H   0  0  0  0  0  0  0  0  0  0  0  0
    6.6962   -8.5036    6.2531 H   0  0  0  0  0  0  0  0  0  0  0  0
    7.0497   -6.1523    5.5762 H   0  0  0  0  0  0  0  0  0  0  0  0
    5.8060   -5.1951    4.7387 H   0  0  0  0  0  0  0  0  0  0  0  0
    6.6302   -6.5466    3.8737 H   0  0  0  0  0  0  0  0  0  0  0  0
    5.4079   -6.6391    7.4571 H   0  0  0  0  0  0  0  0  0  0  0  0
    4.1713   -5.6748    6.5932 H   0  0  0  0  0  0  0  0  0  0  0  0
    3.7849   -7.3425    7.0998 H   0  0  0  0  0  0  0  0  0  0  0  0
    0.4329   -4.9061    4.7894 H   0  0  0  0  0  0  0  0  0  0  0  0
   -5.6629   -2.0431    5.1729 H   0  0  0  0  0  0  0  0  0  0  0  0
  1 60  1  0  0  0  0
  1 61  1  0  0  0  0
  1 62  1  0  0  0  0
  2  1  1  0  0  0  0
  3  2  1  0  0  0  0
  4  3  2  0  0  0  0
  5  4  1  0  0  0  0
  6  5  1  0  0  0  0
  6 63  1  0  0  0  0
  6 64  1  0  0  0  0
  7  6  1  0  0  0  0
  8  7  2  0  0  0  0
  8 65  1  0  0  0  0
  9  8  1  0  0  0  0
  9 66  1  0  0  0  0
 10  9  2  0  0  0  0
 10 67  1  0  0  0  0
 11 10  1  0  0  0  0
 11 68  1  0  0  0  0
 12 11  2  0  0  0  0
 12  7  1  0  0  0  0
 12 69  1  0  0  0  0
 13  4  1  0  0  0  0
 13 70  1  0  0  0  0
 14 13  2  0  0  0  0
 14 71  1  0  0  0  0
 15 14  1  0  0  0  0
 16 15  1  0  0  0  0
 16 72  1  0  0  0  0
 17 16  2  0  0  0  0
 18 17  1  0  0  0  0
 18 73  1  0  0  0  0
 18 74  1  0  0  0  0
 19 18  1  0  0  0  0
 20 19  1  0  0  0  0
 20 75  1  0  0  0  0
 20 76  1  0  0  0  0
 21 20  1  0  0  0  0
 22 21  2  0  0  0  0
 22 77  1  0  0  0  0
 23 22  1  0  0  0  0
 24 23  2  0  0  0  0
 24 78  1  0  0  0  0
 25 24  1  0  0  0  0
 26 25  1  0  0  0  0
 27 26  1  0  0  0  0
 27 79  1  0  0  0  0
 27 80  1  0  0  0  0
 27 81  1  0  0  0  0
 28 25  2  0  0  0  0
 29 28  1  0  0  0  0
 30 29  1  0  0  0  0
 30 82  1  0  0  0  0
 30 83  1  0  0  0  0
 31 30  1  0  0  0  0
 32 31  2  0  0  0  0
 32 84  1  0  0  0  0
 33 32  1  0  0  0  0
 33 85  1  0  0  0  0
 34 33  2  0  0  0  0
 34 86  1  0  0  0  0
 35 34  1  0  0  0  0
 35 87  1  0  0  0  0
 36 35  2  0  0  0  0
 36 31  1  0  0  0  0
 36 88  1  0  0  0  0
 37 28  1  0  0  0  0
 37 89  1  0  0  0  0
 38 37  2  0  0  0  0
 38 23  1  0  0  0  0
 38 90  1  0  0  0  0
 39 21  1  0  0  0  0
 39 17  1  0  0  0  0
 40 39  2  0  0  0  0
 41 19  1  0  0  0  0
 42 41  2  0  0  0  0
 43 41  1  0  0  0  0
 44 43  2  0  0  0  0
 45 44  1  0  0  0  0
 46 45  1  0  0  0  0
 47 46  1  0  0  0  0
 47 91  1  0  0  0  0
 48 47  2  0  0  0  0
 48 92  1  0  0  0  0
 49 48  1  0  0  0  0
 49 93  1  6  0  0  0
 50 49  1  0  0  0  0
 51 50  1  0  0  0  0
 51 94  1  0  0  0  0
 51 95  1  0  0  0  0
 51 96  1  0  0  0  0
 52 50  2  0  0  0  0
 52 97  1  0  0  0  0
 53 52  1  0  0  0  0
 53 98  1  0  0  0  0
 53 99  1  0  0  0  0
 54 53  1  0  0  0  0
 54100  1  0  0  0  0
 54101  1  0  0  0  0
 55 54  1  0  0  0  0
 55 49  1  0  0  0  0
 56 55  1  0  0  0  0
 56102  1  0  0  0  0
 56103  1  0  0  0  0
 56104  1  0  0  0  0
 57 55  1  0  0  0  0
 57105  1  0  0  0  0
 57106  1  0  0  0  0
 57107  1  0  0  0  0
 58 46  2  0  0  0  0
 58 43  1  0  0  0  0
 58108  1  0  0  0  0
 59 15  2  0  0  0  0
 59  3  1  0  0  0  0
 59109  1  0  0  0  0
M  END
>  <MOL Chiral Flag>
0

>  <energy>
219.93256235478776

$$$$
> 416_AKC_j.bmcl.2014.11.073
>401.sdf
 OpenBabel10062213223D

 40 39  0  0  0  0  0  0  0  0999 V2000
   -6.1017   -5.8047    0.7956 C   0  0  0  0  0  0  0  0  0  0  0  0
   -4.9273   -5.0453    0.9908 O   0  0  0  0  0  0  0  0  0  0  0  0
   -4.8878   -3.9996    0.0429 C   0  0  0  0  0  0  0  0  0  0  0  0
   -3.9284   -2.9331    0.4962 C   0  0  0  0  0  0  0  0  0  0  0  0
   -4.1091   -2.4014    1.5832 O   0  0  0  0  0  0  0  0  0  0  0  0
   -2.9233   -2.5099   -0.3250 N   0  0  0  0  0  0  0  0  0  0  0  0
   -2.0851   -1.3654   -0.0050 C   0  0  0  0  0  0  0  0  0  0  0  0
   -0.5876   -1.6670   -0.1577 C   0  0  0  0  0  0  0  0  0  0  0  0
    0.2035   -0.3632    0.0618 C   0  0  0  0  0  0  0  0  0  0  0  0
    1.6488   -0.5369   -0.1474 N   0  3  0  0  0  0  0  0  0  0  0  0
    2.3156    0.7779   -0.1264 C   0  0  0  0  0  0  0  0  0  0  0  0
    3.8376    0.6355   -0.2476 C   0  0  0  0  0  0  0  0  0  0  0  0
    4.5136    2.0073   -0.3897 C   0  0  0  0  0  0  0  0  0  0  0  0
    6.0415    1.8644   -0.4075 C   0  0  0  0  0  0  0  0  0  0  0  0
    6.6898    3.1484   -0.6732 N   0  3  0  0  0  0  0  0  0  0  0  0
   -7.0179   -5.1894    0.9483 H   0  0  0  0  0  0  0  0  0  0  0  0
   -6.1343   -6.6091    1.5581 H   0  0  0  0  0  0  0  0  0  0  0  0
   -6.1056   -6.2917   -0.2048 H   0  0  0  0  0  0  0  0  0  0  0  0
   -4.5955   -4.3972   -0.9543 H   0  0  0  0  0  0  0  0  0  0  0  0
   -5.8755   -3.4879   -0.0424 H   0  0  0  0  0  0  0  0  0  0  0  0
   -2.8151   -2.9467   -1.2534 H   0  0  0  0  0  0  0  0  0  0  0  0
   -2.2797   -0.9788    1.0191 H   0  0  0  0  0  0  0  0  0  0  0  0
   -2.3463   -0.5607   -0.7253 H   0  0  0  0  0  0  0  0  0  0  0  0
   -0.3971   -2.0355   -1.1899 H   0  0  0  0  0  0  0  0  0  0  0  0
   -0.2683   -2.4475    0.5666 H   0  0  0  0  0  0  0  0  0  0  0  0
    0.0185    0.0089    1.0956 H   0  0  0  0  0  0  0  0  0  0  0  0
   -0.1831    0.3937   -0.6585 H   0  0  0  0  0  0  0  0  0  0  0  0
    1.8153   -0.9762   -1.0838 H   0  0  0  0  0  0  0  0  0  0  0  0
    2.0366   -1.1556    0.6030 H   0  0  0  0  0  0  0  0  0  0  0  0
    1.9404    1.3910   -0.9779 H   0  0  0  0  0  0  0  0  0  0  0  0
    2.0866    1.3158    0.8224 H   0  0  0  0  0  0  0  0  0  0  0  0
    4.2183    0.1094    0.6547 H   0  0  0  0  0  0  0  0  0  0  0  0
    4.0849    0.0310   -1.1476 H   0  0  0  0  0  0  0  0  0  0  0  0
    4.2251    2.6715    0.4549 H   0  0  0  0  0  0  0  0  0  0  0  0
    4.1710    2.4739   -1.3400 H   0  0  0  0  0  0  0  0  0  0  0  0
    6.3459    1.1395   -1.1944 H   0  0  0  0  0  0  0  0  0  0  0  0
    6.3780    1.4742    0.5792 H   0  0  0  0  0  0  0  0  0  0  0  0
    6.4444    3.4757   -1.6362 H   0  0  0  0  0  0  0  0  0  0  0  0
    7.7267    3.0252   -0.6161 H   0  0  0  0  0  0  0  0  0  0  0  0
    6.3925    3.8635    0.0293 H   0  0  0  0  0  0  0  0  0  0  0  0
  1 16  1  0  0  0  0
  1 17  1  0  0  0  0
  1 18  1  0  0  0  0
  2  1  1  0  0  0  0
  3  2  1  0  0  0  0
  3 19  1  0  0  0  0
  3 20  1  0  0  0  0
  4  3  1  0  0  0  0
  5  4  2  0  0  0  0
  6  4  1  0  0  0  0
  6 21  1  0  0  0  0
  7  6  1  0  0  0  0
  7 22  1  0  0  0  0
  7 23  1  0  0  0  0
  8  7  1  0  0  0  0
  8 24  1  0  0  0  0
  8 25  1  0  0  0  0
  9  8  1  0  0  0  0
  9 26  1  0  0  0  0
  9 27  1  0  0  0  0
 10  9  1  0  0  0  0
 10 28  1  0  0  0  0
 10 29  1  0  0  0  0
 11 10  1  0  0  0  0
 11 30  1  0  0  0  0
 11 31  1  0  0  0  0
 12 11  1  0  0  0  0
 12 32  1  0  0  0  0
 12 33  1  0  0  0  0
 13 12  1  0  0  0  0
 13 34  1  0  0  0  0
 13 35  1  0  0  0  0
 14 13  1  0  0  0  0
 14 36  1  0  0  0  0
 14 37  1  0  0  0  0
 15 14  1  0  0  0  0
 15 38  1  0  0  0  0
 15 39  1  0  0  0  0
 15 40  1  0  0  0  0
M  CHG  2  10   1  15   1
M  END
>  <MOL Chiral Flag>
0

>  <energy>
9.7332112864341145

$$$$
> 417_AKC_j.ejmech.2014.10.040
>402.sdf
 OpenBabel10062213233D

 60 62  0  0  0  0  0  0  0  0999 V2000
    3.0534   -1.1409    0.4154 C   0  0  0  0  0  0  0  0  0  0  0  0
    4.3970   -0.3806    0.3231 C   0  0  0  0  0  0  0  0  0  0  0  0
    4.4459    0.9493   -0.4455 C   0  0  0  0  0  0  0  0  0  0  0  0
    3.7993    2.1431    0.2709 C   0  0  0  0  0  0  0  0  0  0  0  0
    2.3381    2.1958    0.1444 N   0  3  0  0  0  0  0  0  0  0  0  0
    1.7784    2.4046   -1.0890 C   0  0  0  0  0  0  0  0  0  0  0  0
    0.3984    2.5670   -1.2255 C   0  0  0  0  0  0  0  0  0  0  0  0
   -0.4222    2.5039   -0.0917 C   0  0  0  0  0  0  0  0  0  0  0  0
   -1.8318    2.7096   -0.1685 N   0  0  0  0  0  0  0  0  0  0  0  0
   -2.4503    3.5154   -1.2083 C   0  0  0  0  0  0  0  0  0  0  0  0
   -3.1517    2.6974   -2.3095 C   0  0  0  0  0  0  0  0  0  0  0  0
   -4.1553    1.6662   -1.7635 C   0  0  0  0  0  0  0  0  0  0  0  0
   -3.4563    0.3447   -1.4209 C   0  0  0  0  0  0  0  0  0  0  0  0
   -4.3917   -0.6470   -0.7215 C   0  0  0  0  0  0  0  0  0  0  0  0
   -3.7571   -1.9483   -0.6233 N   0  0  0  0  0  0  0  0  0  0  0  0
   -2.5484   -2.2079    0.0974 C   0  0  0  0  0  0  0  0  0  0  0  0
   -1.9794   -1.2858    0.9967 C   0  0  0  0  0  0  0  0  0  0  0  0
   -0.7853   -1.6015    1.6576 C   0  0  0  0  0  0  0  0  0  0  0  0
   -0.1715   -2.8054    1.4394 N   0  3  0  0  0  0  0  0  0  0  0  0
    1.0389   -3.1774    2.1878 C   0  0  0  0  0  0  0  0  0  0  0  0
    2.2431   -3.5213    1.2838 C   0  0  0  0  0  0  0  0  0  0  0  0
    3.3452   -2.4571    1.1639 C   0  0  0  0  0  0  0  0  0  0  0  0
   -0.7237   -3.7139    0.5799 C   0  0  0  0  0  0  0  0  0  0  0  0
   -1.9062   -3.4329   -0.0973 C   0  0  0  0  0  0  0  0  0  0  0  0
    0.1666    2.2504    1.1550 C   0  0  0  0  0  0  0  0  0  0  0  0
    1.5510    2.1132    1.2558 C   0  0  0  0  0  0  0  0  0  0  0  0
    2.2881   -0.5517    0.9603 H   0  0  0  0  0  0  0  0  0  0  0  0
    2.6873   -1.3618   -0.6100 H   0  0  0  0  0  0  0  0  0  0  0  0
    5.1124   -1.0504   -0.2048 H   0  0  0  0  0  0  0  0  0  0  0  0
    4.7994   -0.2066    1.3465 H   0  0  0  0  0  0  0  0  0  0  0  0
    4.0929    0.8394   -1.4920 H   0  0  0  0  0  0  0  0  0  0  0  0
    5.5297    1.2003   -0.4954 H   0  0  0  0  0  0  0  0  0  0  0  0
    4.1286    2.1432    1.3345 H   0  0  0  0  0  0  0  0  0  0  0  0
    4.1981    3.0801   -0.1785 H   0  0  0  0  0  0  0  0  0  0  0  0
    2.4048    2.4812   -1.9691 H   0  0  0  0  0  0  0  0  0  0  0  0
   -0.0166    2.7493   -2.2078 H   0  0  0  0  0  0  0  0  0  0  0  0
   -2.3522    2.6458    0.7202 H   0  0  0  0  0  0  0  0  0  0  0  0
   -1.7259    4.2271   -1.6590 H   0  0  0  0  0  0  0  0  0  0  0  0
   -3.2257    4.1461   -0.7194 H   0  0  0  0  0  0  0  0  0  0  0  0
   -2.4258    2.2010   -2.9899 H   0  0  0  0  0  0  0  0  0  0  0  0
   -3.7113    3.4435   -2.9147 H   0  0  0  0  0  0  0  0  0  0  0  0
   -4.8990    1.4253   -2.5547 H   0  0  0  0  0  0  0  0  0  0  0  0
   -4.7042    2.1011   -0.8994 H   0  0  0  0  0  0  0  0  0  0  0  0
   -2.5766    0.5176   -0.7898 H   0  0  0  0  0  0  0  0  0  0  0  0
   -3.0889   -0.1018   -2.3716 H   0  0  0  0  0  0  0  0  0  0  0  0
   -5.3104   -0.7572   -1.3397 H   0  0  0  0  0  0  0  0  0  0  0  0
   -4.6948   -0.2783    0.2820 H   0  0  0  0  0  0  0  0  0  0  0  0
   -4.1781   -2.7189   -1.1646 H   0  0  0  0  0  0  0  0  0  0  0  0
   -2.4520   -0.3367    1.2072 H   0  0  0  0  0  0  0  0  0  0  0  0
   -0.3642   -0.8900    2.3563 H   0  0  0  0  0  0  0  0  0  0  0  0
    0.7668   -4.1022    2.7454 H   0  0  0  0  0  0  0  0  0  0  0  0
    1.3314   -2.4314    2.9587 H   0  0  0  0  0  0  0  0  0  0  0  0
    1.9372   -3.9211    0.2945 H   0  0  0  0  0  0  0  0  0  0  0  0
    2.7663   -4.3579    1.7993 H   0  0  0  0  0  0  0  0  0  0  0  0
    3.7060   -2.2127    2.1881 H   0  0  0  0  0  0  0  0  0  0  0  0
    4.1779   -2.9678    0.6292 H   0  0  0  0  0  0  0  0  0  0  0  0
   -0.2554   -4.6794    0.4232 H   0  0  0  0  0  0  0  0  0  0  0  0
   -2.3221   -4.1687   -0.7736 H   0  0  0  0  0  0  0  0  0  0  0  0
   -0.4408    2.1962    2.0492 H   0  0  0  0  0  0  0  0  0  0  0  0
    1.9934    1.9567    2.2332 H   0  0  0  0  0  0  0  0  0  0  0  0
  1 27  1  0  0  0  0
  1 28  1  0  0  0  0
  2  1  1  0  0  0  0
  2 29  1  0  0  0  0
  2 30  1  0  0  0  0
  3  2  1  0  0  0  0
  3 31  1  0  0  0  0
  3 32  1  0  0  0  0
  4  3  1  0  0  0  0
  4 33  1  0  0  0  0
  4 34  1  0  0  0  0
  5  4  1  0  0  0  0
  6  5  2  0  0  0  0
  6 35  1  0  0  0  0
  7  6  1  0  0  0  0
  7 36  1  0  0  0  0
  8  7  2  0  0  0  0
  9  8  1  0  0  0  0
  9 37  1  0  0  0  0
 10  9  1  0  0  0  0
 10 38  1  0  0  0  0
 10 39  1  0  0  0  0
 11 10  1  0  0  0  0
 11 40  1  0  0  0  0
 11 41  1  0  0  0  0
 12 11  1  0  0  0  0
 12 42  1  0  0  0  0
 12 43  1  0  0  0  0
 13 12  1  0  0  0  0
 13 44  1  0  0  0  0
 13 45  1  0  0  0  0
 14 13  1  0  0  0  0
 14 46  1  0  0  0  0
 14 47  1  0  0  0  0
 15 14  1  0  0  0  0
 15 48  1  0  0  0  0
 16 15  1  0  0  0  0
 17 16  2  0  0  0  0
 17 49  1  0  0  0  0
 18 17  1  0  0  0  0
 18 50  1  0  0  0  0
 19 18  2  0  0  0  0
 20 19  1  0  0  0  0
 20 51  1  0  0  0  0
 20 52  1  0  0  0  0
 21 20  1  0  0  0  0
 21 53  1  0  0  0  0
 21 54  1  0  0  0  0
 22 21  1  0  0  0  0
 22  1  1  0  0  0  0
 22 55  1  0  0  0  0
 22 56  1  0  0  0  0
 23 19  1  0  0  0  0
 23 57  1  0  0  0  0
 24 23  2  0  0  0  0
 24 16  1  0  0  0  0
 24 58  1  0  0  0  0
 25  8  1  0  0  0  0
 25 59  1  0  0  0  0
 26 25  2  0  0  0  0
 26  5  1  0  0  0  0
 26 60  1  0  0  0  0
M  CHG  2   5   1  19   1
M  END
>  <MOL Chiral Flag>
0

>  <energy>
124.95930256079299

$$$$
> 418_AKC_AAC.03340-14
>403.sdf
 OpenBabel10062213233D

 51 54  0  0  0  0  0  0  0  0999 V2000
   -2.7035   -6.9760   -1.1844 C   0  0  0  0  0  0  0  0  0  0  0  0
   -3.0946   -5.9706   -0.1045 C   0  0  0  0  0  0  0  0  0  0  0  0
   -2.2205   -4.7150   -0.1804 C   0  0  0  0  0  0  0  0  0  0  0  0
   -2.6774   -3.6528    0.8241 C   0  0  0  0  0  0  0  0  0  0  0  0
   -1.8078   -2.4944    0.7221 N   0  0  0  0  0  0  0  0  0  0  0  0
   -2.2352   -1.2828    0.2546 C   0  0  0  0  0  0  0  0  0  0  0  0
   -3.3939   -1.1306   -0.1018 O   0  0  0  0  0  0  0  0  0  0  0  0
   -1.2725   -0.1599    0.1238 C   0  0  0  0  0  0  0  0  0  0  0  0
   -0.0112   -0.2960    0.6345 N   0  0  0  0  0  0  0  0  0  0  0  0
    0.9629    0.6583    0.5227 C   0  0  0  0  0  0  0  0  0  0  0  0
    0.6174    1.8520   -0.1458 C   0  0  0  0  0  0  0  0  0  0  0  0
    1.3552    2.9716   -0.3652 N   0  0  0  0  0  0  0  0  0  0  0  0
    0.5475    3.8175   -1.0404 C   0  0  0  0  0  0  0  0  0  0  0  0
   -0.6929    3.2595   -1.2400 C   0  0  0  0  0  0  0  0  0  0  0  0
   -1.7051    3.9430   -1.9107 C   0  0  0  0  0  0  0  0  0  0  0  0
   -1.4217    5.2369   -2.3887 C   0  0  0  0  0  0  0  0  0  0  0  0
   -0.1455    5.8121   -2.1824 C   0  0  0  0  0  0  0  0  0  0  0  0
    0.8556    5.0971   -1.4975 C   0  0  0  0  0  0  0  0  0  0  0  0
   -0.6538    2.0128   -0.6603 C   0  0  0  0  0  0  0  0  0  0  0  0
   -1.6282    1.0284   -0.5463 C   0  0  0  0  0  0  0  0  0  0  0  0
    2.3009    0.3463    1.0993 C   0  0  0  0  0  0  0  0  0  0  0  0
    3.5003    0.8380    0.5506 C   0  0  0  0  0  0  0  0  0  0  0  0
    4.7343    0.4749    1.1013 C   0  0  0  0  0  0  0  0  0  0  0  0
    4.7925   -0.3840    2.2176 C   0  0  0  0  0  0  0  0  0  0  0  0
    5.9676   -0.7738    2.7783 O   0  0  0  0  0  0  0  0  0  0  0  0
    7.2211   -0.4664    2.2917 C   0  0  0  0  0  0  0  0  0  0  0  0
    3.6028   -0.8704    2.7628 C   0  0  0  0  0  0  0  0  0  0  0  0
    2.3725   -0.5224    2.2052 C   0  0  0  0  0  0  0  0  0  0  0  0
   -2.8434   -6.5274   -2.1917 H   0  0  0  0  0  0  0  0  0  0  0  0
   -3.3492   -7.8758   -1.1074 H   0  0  0  0  0  0  0  0  0  0  0  0
   -1.6429   -7.2837   -1.0674 H   0  0  0  0  0  0  0  0  0  0  0  0
   -4.1612   -5.6954   -0.2536 H   0  0  0  0  0  0  0  0  0  0  0  0
   -2.9827   -6.4412    0.8966 H   0  0  0  0  0  0  0  0  0  0  0  0
   -1.1597   -4.9899    0.0124 H   0  0  0  0  0  0  0  0  0  0  0  0
   -2.2939   -4.2780   -1.2011 H   0  0  0  0  0  0  0  0  0  0  0  0
   -3.7353   -3.3948    0.6037 H   0  0  0  0  0  0  0  0  0  0  0  0
   -2.6309   -4.0473    1.8625 H   0  0  0  0  0  0  0  0  0  0  0  0
   -0.8169   -2.6204    0.9755 H   0  0  0  0  0  0  0  0  0  0  0  0
    2.3314    3.1838   -0.0753 H   0  0  0  0  0  0  0  0  0  0  0  0
   -2.6793    3.4966   -2.0622 H   0  0  0  0  0  0  0  0  0  0  0  0
   -2.1846    5.7950   -2.9156 H   0  0  0  0  0  0  0  0  0  0  0  0
    0.0624    6.8077   -2.5525 H   0  0  0  0  0  0  0  0  0  0  0  0
    1.8345    5.5284   -1.3336 H   0  0  0  0  0  0  0  0  0  0  0  0
   -2.6155    1.1729   -0.9657 H   0  0  0  0  0  0  0  0  0  0  0  0
    3.5009    1.4601   -0.3281 H   0  0  0  0  0  0  0  0  0  0  0  0
    5.6378    0.8563    0.6456 H   0  0  0  0  0  0  0  0  0  0  0  0
    7.3439   -0.8827    1.2687 H   0  0  0  0  0  0  0  0  0  0  0  0
    7.9858   -0.9250    2.9515 H   0  0  0  0  0  0  0  0  0  0  0  0
    7.3758    0.6331    2.2813 H   0  0  0  0  0  0  0  0  0  0  0  0
    3.6320   -1.5335    3.6185 H   0  0  0  0  0  0  0  0  0  0  0  0
    1.4690   -0.9247    2.6473 H   0  0  0  0  0  0  0  0  0  0  0  0
  1 29  1  0  0  0  0
  1 30  1  0  0  0  0
  1 31  1  0  0  0  0
  2  1  1  0  0  0  0
  2 32  1  0  0  0  0
  2 33  1  0  0  0  0
  3  2  1  0  0  0  0
  3 34  1  0  0  0  0
  3 35  1  0  0  0  0
  4  3  1  0  0  0  0
  4 36  1  0  0  0  0
  4 37  1  0  0  0  0
  5  4  1  0  0  0  0
  5 38  1  0  0  0  0
  6  5  1  0  0  0  0
  7  6  2  0  0  0  0
  8  6  1  0  0  0  0
  9  8  2  0  0  0  0
 10  9  1  0  0  0  0
 11 10  2  0  0  0  0
 12 11  1  0  0  0  0
 12 39  1  0  0  0  0
 13 12  1  0  0  0  0
 14 13  2  0  0  0  0
 15 14  1  0  0  0  0
 15 40  1  0  0  0  0
 16 15  2  0  0  0  0
 16 41  1  0  0  0  0
 17 16  1  0  0  0  0
 17 42  1  0  0  0  0
 18 17  2  0  0  0  0
 18 13  1  0  0  0  0
 18 43  1  0  0  0  0
 19 14  1  0  0  0  0
 19 11  1  0  0  0  0
 20 19  2  0  0  0  0
 20  8  1  0  0  0  0
 20 44  1  0  0  0  0
 21 10  1  0  0  0  0
 22 21  2  0  0  0  0
 22 45  1  0  0  0  0
 23 22  1  0  0  0  0
 23 46  1  0  0  0  0
 24 23  2  0  0  0  0
 25 24  1  0  0  0  0
 26 25  1  0  0  0  0
 26 47  1  0  0  0  0
 26 48  1  0  0  0  0
 26 49  1  0  0  0  0
 27 24  1  0  0  0  0
 27 50  1  0  0  0  0
 28 27  2  0  0  0  0
 28 21  1  0  0  0  0
 28 51  1  0  0  0  0
M  END
>  <MOL Chiral Flag>
0

>  <energy>
68.089981018146659

$$$$
> 419_AKC_j.ejmech.2014.09.076
>404.sdf
 OpenBabel10062213233D

 38 40  0  0  0  0  0  0  0  0999 V2000
   -4.9158    1.9575   -1.3567 C   0  0  0  0  0  0  0  0  0  0  0  0
   -5.1041    0.6665   -0.9074 O   0  0  0  0  0  0  0  0  0  0  0  0
   -4.1251   -0.1280   -0.4000 C   0  0  0  0  0  0  0  0  0  0  0  0
   -4.4977   -1.2700    0.3056 C   0  0  0  0  0  0  0  0  0  0  0  0
   -3.5477   -2.1072    0.9035 C   0  0  0  0  0  0  0  0  0  0  0  0
   -4.0236   -3.1696    1.5937 O   0  0  0  0  0  0  0  0  0  0  0  0
   -2.1539   -1.7970    0.7686 C   0  0  0  0  0  0  0  0  0  0  0  0
   -1.0958   -2.5693    1.3179 C   0  0  0  0  0  0  0  0  0  0  0  0
   -1.3016   -3.5701    1.9746 O   0  0  0  0  0  0  0  0  0  0  0  0
    0.2255   -2.1766    1.1037 C   0  0  0  0  0  0  0  0  0  0  0  0
    0.4938   -1.0115    0.3773 C   0  0  0  0  0  0  0  0  0  0  0  0
   -0.5131   -0.2926   -0.1067 O   0  0  0  0  0  0  0  0  0  0  0  0
   -1.7891   -0.6359    0.0378 C   0  0  0  0  0  0  0  0  0  0  0  0
   -2.7634    0.1810   -0.5375 C   0  0  0  0  0  0  0  0  0  0  0  0
    1.8813   -0.5380    0.1487 C   0  0  0  0  0  0  0  0  0  0  0  0
    2.1164    0.8347   -0.0147 C   0  0  0  0  0  0  0  0  0  0  0  0
    3.4234    1.3254   -0.2095 C   0  0  0  0  0  0  0  0  0  0  0  0
    3.6768    2.6569   -0.3332 O   0  0  0  0  0  0  0  0  0  0  0  0
    2.7218    3.6534   -0.3414 C   0  0  0  0  0  0  0  0  0  0  0  0
    4.4976    0.4165   -0.2779 C   0  0  0  0  0  0  0  0  0  0  0  0
    5.7603    0.8585   -0.4706 O   0  0  0  0  0  0  0  0  0  0  0  0
    4.2600   -0.9641   -0.1462 C   0  0  0  0  0  0  0  0  0  0  0  0
    5.2700   -1.8555   -0.2439 O   0  0  0  0  0  0  0  0  0  0  0  0
    2.9634   -1.4327    0.0838 C   0  0  0  0  0  0  0  0  0  0  0  0
   -5.8945    2.3823   -1.6582 H   0  0  0  0  0  0  0  0  0  0  0  0
   -4.2315    1.9837   -2.2302 H   0  0  0  0  0  0  0  0  0  0  0  0
   -4.5067    2.5786   -0.5301 H   0  0  0  0  0  0  0  0  0  0  0  0
   -5.5507   -1.5023    0.4130 H   0  0  0  0  0  0  0  0  0  0  0  0
   -3.5070   -3.8027    2.0987 H   0  0  0  0  0  0  0  0  0  0  0  0
    1.0293   -2.7612    1.5337 H   0  0  0  0  0  0  0  0  0  0  0  0
   -2.4475    1.0567   -1.0882 H   0  0  0  0  0  0  0  0  0  0  0  0
    1.2811    1.5198    0.0430 H   0  0  0  0  0  0  0  0  0  0  0  0
    2.1464    3.6531    0.6096 H   0  0  0  0  0  0  0  0  0  0  0  0
    2.0371    3.5128   -1.2046 H   0  0  0  0  0  0  0  0  0  0  0  0
    3.2252    4.6359   -0.4451 H   0  0  0  0  0  0  0  0  0  0  0  0
    5.9763    1.7984   -0.5472 H   0  0  0  0  0  0  0  0  0  0  0  0
    6.1788   -1.5887   -0.4410 H   0  0  0  0  0  0  0  0  0  0  0  0
    2.8039   -2.4988    0.1769 H   0  0  0  0  0  0  0  0  0  0  0  0
  1 25  1  0  0  0  0
  1 26  1  0  0  0  0
  1 27  1  0  0  0  0
  2  1  1  0  0  0  0
  3  2  1  0  0  0  0
  4  3  2  0  0  0  0
  4 28  1  0  0  0  0
  5  4  1  0  0  0  0
  6  5  1  0  0  0  0
  6 29  1  0  0  0  0
  7  5  2  0  0  0  0
  8  7  1  0  0  0  0
  9  8  2  0  0  0  0
 10  8  1  0  0  0  0
 10 30  1  0  0  0  0
 11 10  2  0  0  0  0
 12 11  1  0  0  0  0
 13 12  1  0  0  0  0
 13  7  1  0  0  0  0
 14 13  2  0  0  0  0
 14  3  1  0  0  0  0
 14 31  1  0  0  0  0
 15 11  1  0  0  0  0
 16 15  2  0  0  0  0
 16 32  1  0  0  0  0
 17 16  1  0  0  0  0
 18 17  1  0  0  0  0
 19 18  1  0  0  0  0
 19 33  1  0  0  0  0
 19 34  1  0  0  0  0
 19 35  1  0  0  0  0
 20 17  2  0  0  0  0
 21 20  1  0  0  0  0
 21 36  1  0  0  0  0
 22 20  1  0  0  0  0
 23 22  1  0  0  0  0
 23 37  1  0  0  0  0
 24 22  2  0  0  0  0
 24 15  1  0  0  0  0
 24 38  1  0  0  0  0
M  END
>  <MOL Chiral Flag>
0

>  <energy>
43.412855645319574

$$$$
> 420_AKC_j.jep.2014.09.010
>405.sdf
 OpenBabel10102214483D

 37 39  0  0  0  0  0  0  0  0999 V2000
   -0.6391    0.7142   -2.2348 H   0  0  0  0  0  0  0  0  0  0  0  0
   -0.4378    0.9184   -1.1574 C   0  0  2  0  0  0  0  0  0  0  0  0
   -1.6211    1.8030   -0.6739 C   0  0  0  0  0  0  0  0  0  0  0  0
   -2.2125    1.0606    0.5166 C   0  0  0  0  0  0  0  0  0  0  0  0
   -2.0589   -0.4178    0.1244 C   0  0  2  0  0  0  0  0  0  0  0  0
   -3.0683   -0.8478   -0.9717 C   0  0  0  0  0  0  0  0  0  0  0  0
   -2.2091   -1.2650    1.2371 O   0  0  0  0  0  0  0  0  0  0  0  0
   -0.5886   -0.4066   -0.3488 C   0  0  1  0  0  0  0  0  0  0  0  0
   -0.0037   -0.3144    0.5873 H   0  0  0  0  0  0  0  0  0  0  0  0
   -0.1686   -1.6702   -1.1235 C   0  0  2  0  0  0  0  0  0  0  0  0
    0.8304   -2.6673   -0.5083 C   0  0  0  0  0  0  0  0  0  0  0  0
    1.2868   -1.6606   -1.5505 C   0  0  2  0  0  0  0  0  0  0  0  0
    2.3038   -0.6478   -1.0061 C   0  0  0  0  0  0  0  0  0  0  0  0
    2.1150    0.7397   -1.6376 C   0  0  0  0  0  0  0  0  0  0  0  0
    0.9663    1.6163   -1.0562 C   0  0  2  0  0  0  0  0  0  0  0  0
    1.3280    2.0251    0.4068 C   0  0  0  0  0  0  0  0  0  0  0  0
    0.9391    2.7762   -1.8624 O   0  0  0  0  0  0  0  0  0  0  0  0
   -2.3936    1.8033   -1.4732 H   0  0  0  0  0  0  0  0  0  0  0  0
   -1.4085    2.8717   -0.4726 H   0  0  0  0  0  0  0  0  0  0  0  0
   -1.5633    1.2633    1.3993 H   0  0  0  0  0  0  0  0  0  0  0  0
   -3.2467    1.3752    0.7748 H   0  0  0  0  0  0  0  0  0  0  0  0
   -4.1066   -0.7180   -0.5992 H   0  0  0  0  0  0  0  0  0  0  0  0
   -2.9346   -1.9232   -1.2121 H   0  0  0  0  0  0  0  0  0  0  0  0
   -2.9607   -0.2785   -1.9156 H   0  0  0  0  0  0  0  0  0  0  0  0
   -3.0794   -1.0467    1.6636 H   0  0  0  0  0  0  0  0  0  0  0  0
   -0.7348   -1.9449   -2.0398 H   0  0  0  0  0  0  0  0  0  0  0  0
    0.9048   -2.4332    0.5750 H   0  0  0  0  0  0  0  0  0  0  0  0
    0.5049   -3.6721   -0.8488 H   0  0  0  0  0  0  0  0  0  0  0  0
    1.4402   -2.0752   -2.5715 H   0  0  0  0  0  0  0  0  0  0  0  0
    2.3318   -0.5825    0.0991 H   0  0  0  0  0  0  0  0  0  0  0  0
    3.2952   -1.0414   -1.3177 H   0  0  0  0  0  0  0  0  0  0  0  0
    3.0598    1.3100   -1.4936 H   0  0  0  0  0  0  0  0  0  0  0  0
    1.9877    0.6111   -2.7360 H   0  0  0  0  0  0  0  0  0  0  0  0
    1.4421    1.1729    1.1002 H   0  0  0  0  0  0  0  0  0  0  0  0
    0.5578    2.6959    0.8391 H   0  0  0  0  0  0  0  0  0  0  0  0
    2.2915    2.5777    0.4175 H   0  0  0  0  0  0  0  0  0  0  0  0
    0.5484    3.5339   -1.3545 H   0  0  0  0  0  0  0  0  0  0  0  0
  2  1  1  6  0  0  0
  3  2  1  0  0  0  0
  3 18  1  0  0  0  0
  3 19  1  0  0  0  0
  4  3  1  0  0  0  0
  4 20  1  0  0  0  0
  4 21  1  0  0  0  0
  5  4  1  0  0  0  0
  5  6  1  6  0  0  0
  6 22  1  0  0  0  0
  6 23  1  0  0  0  0
  6 24  1  0  0  0  0
  7  5  1  0  0  0  0
  7 25  1  0  0  0  0
  8  5  1  0  0  0  0
  8  2  1  0  0  0  0
  8  9  1  1  0  0  0
 10  8  1  0  0  0  0
 10 26  1  6  0  0  0
 11 10  1  0  0  0  0
 11 27  1  0  0  0  0
 11 28  1  0  0  0  0
 12 11  1  0  0  0  0
 12 10  1  0  0  0  0
 12 29  1  6  0  0  0
 13 12  1  0  0  0  0
 13 30  1  0  0  0  0
 13 31  1  0  0  0  0
 14 13  1  0  0  0  0
 14 32  1  0  0  0  0
 14 33  1  0  0  0  0
 15 14  1  0  0  0  0
 15  2  1  0  0  0  0
 15 16  1  1  0  0  0
 16 34  1  0  0  0  0
 16 35  1  0  0  0  0
 16 36  1  0  0  0  0
 17 15  1  0  0  0  0
 17 37  1  0  0  0  0
M  END
>  <MOL Chiral Flag>
0

>  <energy>
73.356305593110676

$$$$
> 421_AKC_journal.pone.0109672
>406.sdf
 OpenBabel10062213243D

 35 39  0  0  0  0  0  0  0  0999 V2000
    3.1473    0.8126   -1.2833 H   0  0  0  0  0  0  0  0  0  0  0  0
    2.6387    0.0610   -0.6407 C   0  0  2  0  0  0  0  0  0  0  0  0
    2.6673    0.4838    0.8305 C   0  0  0  0  0  0  0  0  0  0  0  0
    1.8640    1.5921    1.0054 O   0  0  0  0  0  0  0  0  0  0  0  0
    0.5690    1.6066    0.5797 C   0  0  0  0  0  0  0  0  0  0  0  0
    0.1567    0.7689   -0.4107 C   0  0  0  0  0  0  0  0  0  0  0  0
   -1.2618    0.7811   -0.8632 C   0  0  0  0  0  0  0  0  0  0  0  0
   -1.6236    0.0195   -1.7488 O   0  0  0  0  0  0  0  0  0  0  0  0
   -2.2249    1.7394   -0.2643 C   0  0  0  0  0  0  0  0  0  0  0  0
   -1.7899    2.6161    0.7492 C   0  0  0  0  0  0  0  0  0  0  0  0
   -2.6952    3.5351    1.3100 C   0  0  0  0  0  0  0  0  0  0  0  0
   -4.0182    3.5809    0.8636 C   0  0  0  0  0  0  0  0  0  0  0  0
   -4.4498    2.7118   -0.1400 C   0  0  0  0  0  0  0  0  0  0  0  0
   -3.5604    1.7931   -0.7031 C   0  0  0  0  0  0  0  0  0  0  0  0
   -0.3790    2.5604    1.2046 C   0  0  0  0  0  0  0  0  0  0  0  0
    0.0138    3.3063    2.0897 O   0  0  0  0  0  0  0  0  0  0  0  0
    1.1612   -0.1294   -1.1155 C   0  0  2  0  0  0  0  0  0  0  0  0
    1.1297    0.1167   -2.2013 H   0  0  0  0  0  0  0  0  0  0  0  0
    0.9086   -1.4917   -1.0328 O   0  0  0  0  0  0  0  0  0  0  0  0
    2.0610   -2.1649   -0.9439 C   0  0  0  0  0  0  0  0  0  0  0  0
    2.2196   -3.5474   -1.0325 C   0  0  0  0  0  0  0  0  0  0  0  0
    3.5173   -4.0790   -0.9231 C   0  0  0  0  0  0  0  0  0  0  0  0
    4.6185   -3.2211   -0.7176 C   0  0  0  0  0  0  0  0  0  0  0  0
    4.4214   -1.8330   -0.6216 C   0  0  0  0  0  0  0  0  0  0  0  0
    3.1241   -1.3364   -0.7542 C   0  0  0  0  0  0  0  0  0  0  0  0
    2.2522   -0.3319    1.4674 H   0  0  0  0  0  0  0  0  0  0  0  0
    3.7035    0.6922    1.1706 H   0  0  0  0  0  0  0  0  0  0  0  0
   -2.3771    4.2181    2.0878 H   0  0  0  0  0  0  0  0  0  0  0  0
   -4.7097    4.2929    1.2956 H   0  0  0  0  0  0  0  0  0  0  0  0
   -5.4753    2.7518   -0.4842 H   0  0  0  0  0  0  0  0  0  0  0  0
   -3.9118    1.1291   -1.4829 H   0  0  0  0  0  0  0  0  0  0  0  0
    1.3668   -4.1954   -1.1865 H   0  0  0  0  0  0  0  0  0  0  0  0
    3.6717   -5.1478   -0.9929 H   0  0  0  0  0  0  0  0  0  0  0  0
    5.6156   -3.6322   -0.6273 H   0  0  0  0  0  0  0  0  0  0  0  0
    5.2556   -1.1651   -0.4505 H   0  0  0  0  0  0  0  0  0  0  0  0
  2  1  1  6  0  0  0
  3  2  1  0  0  0  0
  3 26  1  0  0  0  0
  3 27  1  0  0  0  0
  4  3  1  0  0  0  0
  5  4  1  0  0  0  0
  6  5  2  0  0  0  0
  7  6  1  0  0  0  0
  8  7  2  0  0  0  0
  9  7  1  0  0  0  0
 10  9  2  0  0  0  0
 11 10  1  0  0  0  0
 11 28  1  0  0  0  0
 12 11  2  0  0  0  0
 12 29  1  0  0  0  0
 13 12  1  0  0  0  0
 13 30  1  0  0  0  0
 14 13  2  0  0  0  0
 14  9  1  0  0  0  0
 14 31  1  0  0  0  0
 15 10  1  0  0  0  0
 15  5  1  0  0  0  0
 16 15  2  0  0  0  0
 17  6  1  0  0  0  0
 17  2  1  0  0  0  0
 17 18  1  6  0  0  0
 19 17  1  0  0  0  0
 20 19  1  0  0  0  0
 21 20  2  0  0  0  0
 21 32  1  0  0  0  0
 22 21  1  0  0  0  0
 22 33  1  0  0  0  0
 23 22  2  0  0  0  0
 23 34  1  0  0  0  0
 24 23  1  0  0  0  0
 24 35  1  0  0  0  0
 25 24  2  0  0  0  0
 25  2  1  0  0  0  0
 25 20  1  0  0  0  0
M  END
>  <MOL Chiral Flag>
0

>  <energy>
71.857418166989603

$$$$
> 422_AKC_j.bmcl.2014.08.060
>407.sdf
 OpenBabel10062213253D

 44 46  0  0  0  0  0  0  0  0999 V2000
   -6.2841   -1.0751    0.3216 C   0  0  0  0  0  0  0  0  0  0  0  0
   -5.5398   -0.4468   -0.7605 N   0  0  0  0  0  0  0  0  0  0  0  0
   -6.1214   -0.4285   -2.0980 C   0  0  0  0  0  0  0  0  0  0  0  0
   -4.2297    0.1169   -0.5251 C   0  0  0  0  0  0  0  0  0  0  0  0
   -3.5337   -0.1179    0.6813 C   0  0  0  0  0  0  0  0  0  0  0  0
   -2.2418    0.3898    0.8800 C   0  0  0  0  0  0  0  0  0  0  0  0
   -1.6023    1.1547   -0.1186 C   0  0  0  0  0  0  0  0  0  0  0  0
   -2.3216    1.4164   -1.3062 C   0  0  0  0  0  0  0  0  0  0  0  0
   -3.6014    0.9058   -1.5056 C   0  0  0  0  0  0  0  0  0  0  0  0
   -0.1811    1.6468    0.0493 C   0  0  0  0  0  0  0  0  0  0  0  0
    0.5669    2.0371   -1.0763 C   0  0  0  0  0  0  0  0  0  0  0  0
    1.8854    2.4499   -0.9548 C   0  0  0  0  0  0  0  0  0  0  0  0
    2.5378    2.5022    0.2862 C   0  0  0  0  0  0  0  0  0  0  0  0
    3.9888    3.0051    0.2108 C   0  0  0  0  0  0  0  0  0  0  0  0
    5.0169    2.9788    1.3006 N   0  0  0  0  0  0  0  0  0  0  0  0
    4.8798    2.1974    2.4214 C   0  0  0  0  0  0  0  0  0  0  0  0
    5.8565    2.1787    3.4188 C   0  0  0  0  0  0  0  0  0  0  0  0
    7.0077    2.9347    3.2774 C   0  0  0  0  0  0  0  0  0  0  0  0
    7.1955    3.6992    2.1318 C   0  0  0  0  0  0  0  0  0  0  0  0
    8.3386    4.4115    1.9789 O   0  0  0  0  0  0  0  0  0  0  0  0
    6.1934    3.7179    1.1351 C   0  0  0  0  0  0  0  0  0  0  0  0
    6.4280    4.5117   -0.0561 S   0  0  0  0  0  0  0  0  0  0  0  0
    1.7859    2.1554    1.4345 C   0  0  0  0  0  0  0  0  0  0  0  0
    0.4524    1.7162    1.3122 C   0  0  0  0  0  0  0  0  0  0  0  0
   -6.4559   -0.3349    1.1318 H   0  0  0  0  0  0  0  0  0  0  0  0
   -5.7272   -1.9491    0.7168 H   0  0  0  0  0  0  0  0  0  0  0  0
   -7.2788   -1.4398   -0.0113 H   0  0  0  0  0  0  0  0  0  0  0  0
   -5.4454   -0.9651   -2.7998 H   0  0  0  0  0  0  0  0  0  0  0  0
   -6.2738    0.6131   -2.4466 H   0  0  0  0  0  0  0  0  0  0  0  0
   -7.1059   -0.9394   -2.1384 H   0  0  0  0  0  0  0  0  0  0  0  0
   -3.9675   -0.7203    1.4662 H   0  0  0  0  0  0  0  0  0  0  0  0
   -1.7416    0.1440    1.8041 H   0  0  0  0  0  0  0  0  0  0  0  0
   -1.9117    2.0196   -2.0985 H   0  0  0  0  0  0  0  0  0  0  0  0
   -4.0922    1.1360   -2.4396 H   0  0  0  0  0  0  0  0  0  0  0  0
    0.1609    2.0046   -2.0723 H   0  0  0  0  0  0  0  0  0  0  0  0
    2.4170    2.7310   -1.8565 H   0  0  0  0  0  0  0  0  0  0  0  0
    3.8359    4.0628   -0.0952 H   0  0  0  0  0  0  0  0  0  0  0  0
    4.4644    2.4792   -0.6481 H   0  0  0  0  0  0  0  0  0  0  0  0
    4.0473    1.5468    2.5599 H   0  0  0  0  0  0  0  0  0  0  0  0
    5.7248    1.5618    4.2983 H   0  0  0  0  0  0  0  0  0  0  0  0
    7.7667    2.9115    4.0498 H   0  0  0  0  0  0  0  0  0  0  0  0
    9.0442    4.4014    2.6410 H   0  0  0  0  0  0  0  0  0  0  0  0
    2.1753    2.2356    2.4293 H   0  0  0  0  0  0  0  0  0  0  0  0
   -0.0789    1.4564    2.2158 H   0  0  0  0  0  0  0  0  0  0  0  0
  1 25  1  0  0  0  0
  1 26  1  0  0  0  0
  1 27  1  0  0  0  0
  2  1  1  0  0  0  0
  3  2  1  0  0  0  0
  3 28  1  0  0  0  0
  3 29  1  0  0  0  0
  3 30  1  0  0  0  0
  4  2  1  0  0  0  0
  5  4  2  0  0  0  0
  5 31  1  0  0  0  0
  6  5  1  0  0  0  0
  6 32  1  0  0  0  0
  7  6  2  0  0  0  0
  8  7  1  0  0  0  0
  8 33  1  0  0  0  0
  9  8  2  0  0  0  0
  9  4  1  0  0  0  0
  9 34  1  0  0  0  0
 10  7  1  0  0  0  0
 11 10  2  0  0  0  0
 11 35  1  0  0  0  0
 12 11  1  0  0  0  0
 12 36  1  0  0  0  0
 13 12  2  0  0  0  0
 14 13  1  0  0  0  0
 14 37  1  0  0  0  0
 14 38  1  0  0  0  0
 15 14  1  0  0  0  0
 16 15  1  0  0  0  0
 16 39  1  0  0  0  0
 17 16  2  0  0  0  0
 17 40  1  0  0  0  0
 18 17  1  0  0  0  0
 18 41  1  0  0  0  0
 19 18  2  0  0  0  0
 20 19  1  0  0  0  0
 20 42  1  0  0  0  0
 21 19  1  0  0  0  0
 21 15  1  0  0  0  0
 22 21  2  0  0  0  0
 23 13  1  0  0  0  0
 23 43  1  0  0  0  0
 24 23  2  0  0  0  0
 24 10  1  0  0  0  0
 24 44  1  0  0  0  0
M  END
>  <MOL Chiral Flag>
0

>  <energy>
91.331883657607648

$$$$
> 423_AKC_AAC.02874-14
>408.sdf
 OpenBabel10062213253D

 30 32  0  0  0  0  0  0  0  0999 V2000
   -5.1792    0.3580    1.9290 C   0  0  0  0  0  0  0  0  0  0  0  0
   -4.6516   -0.2551    0.8135 O   0  0  0  0  0  0  0  0  0  0  0  0
   -3.3183   -0.3914    0.6437 C   0  0  0  0  0  0  0  0  0  0  0  0
   -2.7246    0.1585   -0.4903 C   0  0  0  0  0  0  0  0  0  0  0  0
   -1.3438    0.0809   -0.6748 C   0  0  0  0  0  0  0  0  0  0  0  0
   -0.5282   -0.5652    0.2777 C   0  0  0  0  0  0  0  0  0  0  0  0
   -1.1444   -1.1667    1.3931 C   0  0  0  0  0  0  0  0  0  0  0  0
   -2.5260   -1.0691    1.5831 C   0  0  0  0  0  0  0  0  0  0  0  0
    0.9007   -0.7071    0.0903 N   0  0  0  0  0  0  0  0  0  0  0  0
    1.5504   -1.7400    0.6060 N   0  0  0  0  0  0  0  0  0  0  0  0
    2.8239   -1.7101    0.1794 C   0  0  0  0  0  0  0  0  0  0  0  0
    3.0135   -0.6142   -0.6403 C   0  0  0  0  0  0  0  0  0  0  0  0
    4.3061   -0.3597   -1.3259 C   0  0  0  0  0  0  0  0  0  0  0  0
    5.3561   -1.1984   -1.2215 N   0  0  0  0  0  0  0  0  0  0  0  0
    6.2963   -0.7058   -2.0115 N   0  0  0  0  0  0  0  0  0  0  0  0
    5.8502    0.3990   -2.5904 N   0  0  0  0  0  0  0  0  0  0  0  0
    4.6171    0.6334   -2.1802 N   0  0  0  0  0  0  0  0  0  0  0  0
    1.7773    0.0364   -0.6414 C   0  0  0  0  0  0  0  0  0  0  0  0
    1.4740    1.2854   -1.2498 N   0  0  0  0  0  0  0  0  0  0  0  0
   -6.2857    0.3419    1.8693 H   0  0  0  0  0  0  0  0  0  0  0  0
   -4.8543   -0.1426    2.8641 H   0  0  0  0  0  0  0  0  0  0  0  0
   -4.8456    1.4193    1.9448 H   0  0  0  0  0  0  0  0  0  0  0  0
   -3.3384    0.6595   -1.2282 H   0  0  0  0  0  0  0  0  0  0  0  0
   -0.9380    0.4948   -1.5811 H   0  0  0  0  0  0  0  0  0  0  0  0
   -0.5507   -1.7022    2.1235 H   0  0  0  0  0  0  0  0  0  0  0  0
   -2.9769   -1.5297    2.4532 H   0  0  0  0  0  0  0  0  0  0  0  0
    3.5632   -2.4564    0.4362 H   0  0  0  0  0  0  0  0  0  0  0  0
    4.0513    1.4364   -2.5146 H   0  0  0  0  0  0  0  0  0  0  0  0
    2.1904    1.8278   -1.7349 H   0  0  0  0  0  0  0  0  0  0  0  0
    0.6038    1.7825   -1.0277 H   0  0  0  0  0  0  0  0  0  0  0  0
  1 20  1  0  0  0  0
  1 21  1  0  0  0  0
  1 22  1  0  0  0  0
  2  1  1  0  0  0  0
  3  2  1  0  0  0  0
  4  3  2  0  0  0  0
  4 23  1  0  0  0  0
  5  4  1  0  0  0  0
  5 24  1  0  0  0  0
  6  5  2  0  0  0  0
  7  6  1  0  0  0  0
  7 25  1  0  0  0  0
  8  7  2  0  0  0  0
  8  3  1  0  0  0  0
  8 26  1  0  0  0  0
  9  6  1  0  0  0  0
 10  9  1  0  0  0  0
 11 10  2  0  0  0  0
 11 27  1  0  0  0  0
 12 11  1  0  0  0  0
 13 12  1  0  0  0  0
 14 13  2  0  0  0  0
 15 14  1  0  0  0  0
 16 15  2  0  0  0  0
 17 16  1  0  0  0  0
 17 13  1  0  0  0  0
 17 28  1  0  0  0  0
 18 12  2  0  0  0  0
 18  9  1  0  0  0  0
 19 18  1  0  0  0  0
 19 29  1  0  0  0  0
 19 30  1  0  0  0  0
M  END
>  <MOL Chiral Flag>
0

>  <energy>
94.190495646440723

$$$$
> 424_AKC_j.ejmech.2014.07.038
>409.sdf
 OpenBabel10062213253D

 46 49  0  0  0  0  0  0  0  0999 V2000
    5.2054    3.4815   -0.6097 C   0  0  0  0  0  0  0  0  0  0  0  0
    4.4788    2.4789    0.3338 C   0  0  0  0  0  0  0  0  0  0  0  0
    4.7008    1.0230   -0.1405 C   0  0  0  0  0  0  0  0  0  0  0  0
    5.1180    2.5986    1.7388 C   0  0  0  0  0  0  0  0  0  0  0  0
    2.9599    2.7317    0.3006 C   0  0  0  0  0  0  0  0  0  0  0  0
    2.1889    3.0188    1.4499 C   0  0  0  0  0  0  0  0  0  0  0  0
    0.7984    3.1851    1.3466 C   0  0  0  0  0  0  0  0  0  0  0  0
    0.1573    3.0545    0.1034 C   0  0  0  0  0  0  0  0  0  0  0  0
   -1.3305    3.2141   -0.0449 C   0  0  0  0  0  0  0  0  0  0  0  0
   -2.0028    1.9114   -0.0580 N   0  0  0  0  0  0  0  0  0  0  0  0
   -2.4468    1.2041   -1.1261 C   0  0  0  0  0  0  0  0  0  0  0  0
   -2.3622    1.4545   -2.3600 N   0  0  0  0  0  0  0  0  0  0  0  0
   -2.9836    0.3623   -3.1041 C   0  0  0  0  0  0  0  0  0  0  0  0
   -3.5109   -0.6119   -1.9840 C   0  0  0  0  0  0  0  0  0  0  0  0
   -3.0511    0.0867   -0.8046 N   0  0  0  0  0  0  0  0  0  0  0  0
   -3.0308    0.0251    0.5321 C   0  0  0  0  0  0  0  0  0  0  0  0
   -2.3774    1.1451    1.0006 C   0  0  0  0  0  0  0  0  0  0  0  0
   -2.2127    1.3692    2.3663 C   0  0  0  0  0  0  0  0  0  0  0  0
   -2.7378    0.4104    3.2570 C   0  0  0  0  0  0  0  0  0  0  0  0
   -3.4114   -0.7369    2.7665 C   0  0  0  0  0  0  0  0  0  0  0  0
   -3.5618   -0.9384    1.3805 C   0  0  0  0  0  0  0  0  0  0  0  0
    0.9181    2.7808   -1.0341 C   0  0  0  0  0  0  0  0  0  0  0  0
    2.2933    2.6268   -0.9403 C   0  0  0  0  0  0  0  0  0  0  0  0
    6.1179    3.0288   -1.0526 H   0  0  0  0  0  0  0  0  0  0  0  0
    5.5123    4.4029   -0.0694 H   0  0  0  0  0  0  0  0  0  0  0  0
    4.5720    3.8242   -1.4533 H   0  0  0  0  0  0  0  0  0  0  0  0
    5.7804    0.7631   -0.1357 H   0  0  0  0  0  0  0  0  0  0  0  0
    4.3198    0.8461   -1.1660 H   0  0  0  0  0  0  0  0  0  0  0  0
    4.1770    0.3201    0.5462 H   0  0  0  0  0  0  0  0  0  0  0  0
    5.0009    3.6291    2.1398 H   0  0  0  0  0  0  0  0  0  0  0  0
    4.6601    1.8852    2.4565 H   0  0  0  0  0  0  0  0  0  0  0  0
    6.2075    2.3792    1.6888 H   0  0  0  0  0  0  0  0  0  0  0  0
    2.6448    3.1017    2.4260 H   0  0  0  0  0  0  0  0  0  0  0  0
    0.2242    3.3986    2.2371 H   0  0  0  0  0  0  0  0  0  0  0  0
   -1.7726    3.8575    0.7443 H   0  0  0  0  0  0  0  0  0  0  0  0
   -1.5197    3.7460   -1.0039 H   0  0  0  0  0  0  0  0  0  0  0  0
   -2.2155   -0.1390   -3.7321 H   0  0  0  0  0  0  0  0  0  0  0  0
   -3.8166    0.7434   -3.7312 H   0  0  0  0  0  0  0  0  0  0  0  0
   -3.0476   -1.6196   -2.0493 H   0  0  0  0  0  0  0  0  0  0  0  0
   -4.6205   -0.6676   -1.9693 H   0  0  0  0  0  0  0  0  0  0  0  0
   -1.7104    2.2488    2.7386 H   0  0  0  0  0  0  0  0  0  0  0  0
   -2.6321    0.5553    4.3241 H   0  0  0  0  0  0  0  0  0  0  0  0
   -3.8174   -1.4601    3.4618 H   0  0  0  0  0  0  0  0  0  0  0  0
   -4.0800   -1.8056    0.9920 H   0  0  0  0  0  0  0  0  0  0  0  0
    0.4432    2.6904   -2.0036 H   0  0  0  0  0  0  0  0  0  0  0  0
    2.8427    2.4128   -1.8472 H   0  0  0  0  0  0  0  0  0  0  0  0
  1 24  1  0  0  0  0
  1 25  1  0  0  0  0
  1 26  1  0  0  0  0
  2  1  1  0  0  0  0
  3  2  1  0  0  0  0
  3 27  1  0  0  0  0
  3 28  1  0  0  0  0
  3 29  1  0  0  0  0
  4  2  1  0  0  0  0
  4 30  1  0  0  0  0
  4 31  1  0  0  0  0
  4 32  1  0  0  0  0
  5  2  1  0  0  0  0
  6  5  2  0  0  0  0
  6 33  1  0  0  0  0
  7  6  1  0  0  0  0
  7 34  1  0  0  0  0
  8  7  2  0  0  0  0
  9  8  1  0  0  0  0
  9 35  1  0  0  0  0
  9 36  1  0  0  0  0
 10  9  1  0  0  0  0
 11 10  1  0  0  0  0
 12 11  2  0  0  0  0
 13 12  1  0  0  0  0
 13 37  1  0  0  0  0
 13 38  1  0  0  0  0
 14 13  1  0  0  0  0
 14 39  1  0  0  0  0
 14 40  1  0  0  0  0
 15 14  1  0  0  0  0
 15 11  1  0  0  0  0
 16 15  1  0  0  0  0
 17 16  2  0  0  0  0
 17 10  1  0  0  0  0
 18 17  1  0  0  0  0
 18 41  1  0  0  0  0
 19 18  2  0  0  0  0
 19 42  1  0  0  0  0
 20 19  1  0  0  0  0
 20 43  1  0  0  0  0
 21 20  2  0  0  0  0
 21 16  1  0  0  0  0
 21 44  1  0  0  0  0
 22  8  1  0  0  0  0
 22 45  1  0  0  0  0
 23 22  2  0  0  0  0
 23  5  1  0  0  0  0
 23 46  1  0  0  0  0
M  END
>  <MOL Chiral Flag>
0

>  <energy>
67.882199588551231

$$$$
> 425_AKC_journal.pone.0105127
>410.sdf
 OpenBabel10062213253D

 43 46  0  0  0  0  0  0  0  0999 V2000
    2.6713    0.6813   -0.2604 O   0  0  0  0  0  0  0  0  0  0  0  0
    2.5527   -0.4253    0.5087 C   0  0  0  0  0  0  0  0  0  0  0  0
    1.4851   -0.5840    1.3598 C   0  0  0  0  0  0  0  0  0  0  0  0
    0.3115    0.4400    1.4762 C   0  0  2  0  0  0  0  0  0  0  0  0
   -1.2951   -0.4917    1.6236 S   0  0  0  0  0  0  0  0  0  0  0  0
   -2.6618    0.5376    1.0370 C   0  0  0  0  0  0  0  0  0  0  0  0
   -3.7730   -0.1278    0.4995 C   0  0  0  0  0  0  0  0  0  0  0  0
   -4.8858    0.5886    0.0559 C   0  0  0  0  0  0  0  0  0  0  0  0
   -4.8952    1.9818    0.1361 C   0  0  0  0  0  0  0  0  0  0  0  0
   -5.9743    2.6771   -0.3002 F   0  0  0  0  0  0  0  0  0  0  0  0
   -3.7969    2.6566    0.6786 C   0  0  0  0  0  0  0  0  0  0  0  0
   -2.6877    1.9379    1.1440 C   0  0  0  0  0  0  0  0  0  0  0  0
    0.2534    1.4762    0.3659 C   0  0  0  0  0  0  0  0  0  0  0  0
    0.5237    2.8301    0.6441 C   0  0  0  0  0  0  0  0  0  0  0  0
    0.4647    3.7850   -0.3752 C   0  0  0  0  0  0  0  0  0  0  0  0
    0.1381    3.4005   -1.6778 C   0  0  0  0  0  0  0  0  0  0  0  0
   -0.1262    2.0590   -1.9662 C   0  0  0  0  0  0  0  0  0  0  0  0
   -0.0673    1.0979   -0.9523 C   0  0  0  0  0  0  0  0  0  0  0  0
    1.4678   -1.7974    2.2582 C   0  0  0  0  0  0  0  0  0  0  0  0
    0.6111   -1.9104    3.1226 O   0  0  0  0  0  0  0  0  0  0  0  0
    2.4744   -2.8744    2.1061 C   0  0  0  0  0  0  0  0  0  0  0  0
    3.5381   -2.7061    1.2093 C   0  0  0  0  0  0  0  0  0  0  0  0
    4.4967   -3.7269    1.0640 C   0  0  0  0  0  0  0  0  0  0  0  0
    4.3817   -4.9098    1.7984 C   0  0  0  0  0  0  0  0  0  0  0  0
    3.3184   -5.0813    2.6855 C   0  0  0  0  0  0  0  0  0  0  0  0
    2.3705   -4.0683    2.8455 C   0  0  0  0  0  0  0  0  0  0  0  0
    3.6302   -1.4568    0.4267 C   0  0  0  0  0  0  0  0  0  0  0  0
    4.5813   -1.2787   -0.3212 O   0  0  0  0  0  0  0  0  0  0  0  0
    3.4262    0.8309   -0.8464 H   0  0  0  0  0  0  0  0  0  0  0  0
    0.4537    0.9431    2.4570 H   0  0  0  0  0  0  0  0  0  0  0  0
   -3.7787   -1.2092    0.4388 H   0  0  0  0  0  0  0  0  0  0  0  0
   -5.7409    0.0607   -0.3472 H   0  0  0  0  0  0  0  0  0  0  0  0
   -3.8093    3.7365    0.7473 H   0  0  0  0  0  0  0  0  0  0  0  0
   -1.8662    2.4754    1.5847 H   0  0  0  0  0  0  0  0  0  0  0  0
    0.7780    3.1436    1.6489 H   0  0  0  0  0  0  0  0  0  0  0  0
    0.6714    4.8245   -0.1546 H   0  0  0  0  0  0  0  0  0  0  0  0
    0.0908    4.1427   -2.4643 H   0  0  0  0  0  0  0  0  0  0  0  0
   -0.3776    1.7639   -2.9765 H   0  0  0  0  0  0  0  0  0  0  0  0
   -0.2740    0.0617   -1.1877 H   0  0  0  0  0  0  0  0  0  0  0  0
    5.3263   -3.6120    0.3777 H   0  0  0  0  0  0  0  0  0  0  0  0
    5.1157   -5.6959    1.6769 H   0  0  0  0  0  0  0  0  0  0  0  0
    3.2274   -6.0008    3.2492 H   0  0  0  0  0  0  0  0  0  0  0  0
    1.5505   -4.2202    3.5364 H   0  0  0  0  0  0  0  0  0  0  0  0
  1 29  1  0  0  0  0
  2  1  1  0  0  0  0
  3  2  2  0  0  0  0
  4  3  1  0  0  0  0
  4 30  1  1  0  0  0
  5  4  1  0  0  0  0
  6  5  1  0  0  0  0
  7  6  2  0  0  0  0
  7 31  1  0  0  0  0
  8  7  1  0  0  0  0
  8 32  1  0  0  0  0
  9  8  2  0  0  0  0
 10  9  1  0  0  0  0
 11  9  1  0  0  0  0
 11 33  1  0  0  0  0
 12 11  2  0  0  0  0
 12  6  1  0  0  0  0
 12 34  1  0  0  0  0
 13  4  1  0  0  0  0
 14 13  2  0  0  0  0
 14 35  1  0  0  0  0
 15 14  1  0  0  0  0
 15 36  1  0  0  0  0
 16 15  2  0  0  0  0
 16 37  1  0  0  0  0
 17 16  1  0  0  0  0
 17 38  1  0  0  0  0
 18 17  2  0  0  0  0
 18 13  1  0  0  0  0
 18 39  1  0  0  0  0
 19  3  1  0  0  0  0
 20 19  2  0  0  0  0
 21 19  1  0  0  0  0
 22 21  2  0  0  0  0
 23 22  1  0  0  0  0
 23 40  1  0  0  0  0
 24 23  2  0  0  0  0
 24 41  1  0  0  0  0
 25 24  1  0  0  0  0
 25 42  1  0  0  0  0
 26 25  2  0  0  0  0
 26 21  1  0  0  0  0
 26 43  1  0  0  0  0
 27 22  1  0  0  0  0
 27  2  1  0  0  0  0
 28 27  2  0  0  0  0
M  END
>  <MOL Chiral Flag>
0

>  <energy>
96.481595492619888

$$$$
> 426_AKC_molecules190913251
>411.sdf
 OpenBabel10062213273D

 68 71  0  0  0  0  0  0  0  0999 V2000
   11.2412   -3.6184    0.6979 C   0  0  0  0  0  0  0  0  0  0  0  0
   10.0075   -4.2376    0.6983 O   0  0  0  0  0  0  0  0  0  0  0  0
    8.8776   -3.7593    1.2868 C   0  0  0  0  0  0  0  0  0  0  0  0
    7.6519   -4.4687    1.1584 C   0  0  0  0  0  0  0  0  0  0  0  0
    7.5290   -5.6464    0.4811 O   0  0  0  0  0  0  0  0  0  0  0  0
    8.5277   -6.3634   -0.1445 C   0  0  0  0  0  0  0  0  0  0  0  0
    6.4914   -3.9507    1.7527 C   0  0  0  0  0  0  0  0  0  0  0  0
    6.5199   -2.7488    2.4878 C   0  0  0  0  0  0  0  0  0  0  0  0
    5.3095   -2.1561    3.1308 C   0  0  0  0  0  0  0  0  0  0  0  0
    4.0466   -2.5857    2.9236 C   0  0  0  0  0  0  0  0  0  0  0  0
    2.8831   -1.9083    3.5720 C   0  0  0  0  0  0  0  0  0  0  0  0
    3.0999   -1.0516    4.4188 O   0  0  0  0  0  0  0  0  0  0  0  0
    1.4621   -2.1879    3.1800 C   0  0  0  0  0  0  0  0  0  0  0  0
    1.1244   -3.1213    2.1746 C   0  0  0  0  0  0  0  0  0  0  0  0
   -0.2092   -3.3118    1.8019 C   0  0  0  0  0  0  0  0  0  0  0  0
   -1.2258   -2.5699    2.4056 C   0  0  0  0  0  0  0  0  0  0  0  0
   -2.5030   -2.7288    1.9879 O   0  0  0  0  0  0  0  0  0  0  0  0
   -3.2175   -1.6942    1.4104 C   0  0  0  0  0  0  0  0  0  0  0  0
   -4.4608   -1.3372    2.2261 C   0  0  0  0  0  0  0  0  0  0  0  0
   -5.2401   -0.2312    1.5084 C   0  0  0  0  0  0  0  0  0  0  0  0
   -6.3884    0.0968    2.2090 O   0  0  0  0  0  0  0  0  0  0  0  0
   -6.6785    1.3006    2.7765 C   0  0  0  0  0  0  0  0  0  0  0  0
   -8.0270    1.6145    3.0209 C   0  0  0  0  0  0  0  0  0  0  0  0
   -8.9815    0.7131    2.6581 O   0  0  0  0  0  0  0  0  0  0  0  0
  -10.2849    0.7055    3.0409 C   0  0  0  0  0  0  0  0  0  0  0  0
  -10.6788    0.7771    4.4001 C   0  0  0  0  0  0  0  0  0  0  0  0
   -9.5044    0.8394    5.7112 Cl  0  0  0  0  0  0  0  0  0  0  0  0
  -12.0401    0.7601    4.7292 C   0  0  0  0  0  0  0  0  0  0  0  0
  -13.0092    0.6661    3.7261 C   0  0  0  0  0  0  0  0  0  0  0  0
  -14.7114    0.6447    4.1492 Cl  0  0  0  0  0  0  0  0  0  0  0  0
  -12.6215    0.5778    2.3872 C   0  0  0  0  0  0  0  0  0  0  0  0
  -11.2669    0.5920    2.0481 C   0  0  0  0  0  0  0  0  0  0  0  0
   -8.3609    2.8633    3.5859 C   0  0  0  0  0  0  0  0  0  0  0  0
   -7.3607    3.7750    3.9245 C   0  0  0  0  0  0  0  0  0  0  0  0
   -6.0206    3.4588    3.7019 C   0  0  0  0  0  0  0  0  0  0  0  0
   -4.7672    4.6075    4.1354 Cl  0  0  0  0  0  0  0  0  0  0  0  0
   -5.6752    2.2312    3.1303 C   0  0  0  0  0  0  0  0  0  0  0  0
   -0.9087   -1.6533    3.4154 C   0  0  0  0  0  0  0  0  0  0  0  0
    0.4208   -1.4680    3.8040 C   0  0  0  0  0  0  0  0  0  0  0  0
    7.7365   -2.0694    2.6217 C   0  0  0  0  0  0  0  0  0  0  0  0
    8.8972   -2.5590    2.0265 C   0  0  0  0  0  0  0  0  0  0  0  0
   11.6176   -3.5031    1.7363 H   0  0  0  0  0  0  0  0  0  0  0  0
   11.9593   -4.2458    0.1313 H   0  0  0  0  0  0  0  0  0  0  0  0
   11.1725   -2.6274    0.1999 H   0  0  0  0  0  0  0  0  0  0  0  0
    9.3026   -6.6689    0.5909 H   0  0  0  0  0  0  0  0  0  0  0  0
    8.0881   -7.2835   -0.5808 H   0  0  0  0  0  0  0  0  0  0  0  0
    8.9732   -5.7709   -0.9710 H   0  0  0  0  0  0  0  0  0  0  0  0
    5.5763   -4.5107    1.6376 H   0  0  0  0  0  0  0  0  0  0  0  0
    5.4648   -1.2962    3.7773 H   0  0  0  0  0  0  0  0  0  0  0  0
    3.8701   -3.4051    2.2513 H   0  0  0  0  0  0  0  0  0  0  0  0
    1.8728   -3.6953    1.6554 H   0  0  0  0  0  0  0  0  0  0  0  0
   -0.4504   -4.0169    1.0162 H   0  0  0  0  0  0  0  0  0  0  0  0
   -2.5837   -0.7841    1.2937 H   0  0  0  0  0  0  0  0  0  0  0  0
   -3.5252   -2.0218    0.3942 H   0  0  0  0  0  0  0  0  0  0  0  0
   -4.1556   -0.9835    3.2346 H   0  0  0  0  0  0  0  0  0  0  0  0
   -5.1075   -2.2343    2.3385 H   0  0  0  0  0  0  0  0  0  0  0  0
   -4.5839    0.6453    1.3350 H   0  0  0  0  0  0  0  0  0  0  0  0
   -5.5476   -0.5923    0.5036 H   0  0  0  0  0  0  0  0  0  0  0  0
  -12.3448    0.8126    5.7669 H   0  0  0  0  0  0  0  0  0  0  0  0
  -13.3694    0.4974    1.6086 H   0  0  0  0  0  0  0  0  0  0  0  0
  -10.9763    0.5237    1.0071 H   0  0  0  0  0  0  0  0  0  0  0  0
   -9.3936    3.1350    3.7584 H   0  0  0  0  0  0  0  0  0  0  0  0
   -7.6289    4.7293    4.3597 H   0  0  0  0  0  0  0  0  0  0  0  0
   -4.6286    2.0133    2.9773 H   0  0  0  0  0  0  0  0  0  0  0  0
   -1.6913   -1.0797    3.8953 H   0  0  0  0  0  0  0  0  0  0  0  0
    0.6377   -0.7458    4.5811 H   0  0  0  0  0  0  0  0  0  0  0  0
    7.7852   -1.1425    3.1807 H   0  0  0  0  0  0  0  0  0  0  0  0
    9.8109   -1.9934    2.1466 H   0  0  0  0  0  0  0  0  0  0  0  0
  1 42  1  0  0  0  0
  1 43  1  0  0  0  0
  1 44  1  0  0  0  0
  2  1  1  0  0  0  0
  3  2  1  0  0  0  0
  4  3  2  0  0  0  0
  5  4  1  0  0  0  0
  6  5  1  0  0  0  0
  6 45  1  0  0  0  0
  6 46  1  0  0  0  0
  6 47  1  0  0  0  0
  7  4  1  0  0  0  0
  7 48  1  0  0  0  0
  8  7  2  0  0  0  0
  9  8  1  0  0  0  0
  9 49  1  0  0  0  0
 10  9  2  0  0  0  0
 10 50  1  0  0  0  0
 11 10  1  0  0  0  0
 12 11  2  0  0  0  0
 13 11  1  0  0  0  0
 14 13  2  0  0  0  0
 14 51  1  0  0  0  0
 15 14  1  0  0  0  0
 15 52  1  0  0  0  0
 16 15  2  0  0  0  0
 17 16  1  0  0  0  0
 18 17  1  0  0  0  0
 18 53  1  0  0  0  0
 18 54  1  0  0  0  0
 19 18  1  0  0  0  0
 19 55  1  0  0  0  0
 19 56  1  0  0  0  0
 20 19  1  0  0  0  0
 20 57  1  0  0  0  0
 20 58  1  0  0  0  0
 21 20  1  0  0  0  0
 22 21  1  0  0  0  0
 23 22  2  0  0  0  0
 24 23  1  0  0  0  0
 25 24  1  0  0  0  0
 26 25  2  0  0  0  0
 27 26  1  0  0  0  0
 28 26  1  0  0  0  0
 28 59  1  0  0  0  0
 29 28  2  0  0  0  0
 30 29  1  0  0  0  0
 31 29  1  0  0  0  0
 31 60  1  0  0  0  0
 32 31  2  0  0  0  0
 32 25  1  0  0  0  0
 32 61  1  0  0  0  0
 33 23  1  0  0  0  0
 33 62  1  0  0  0  0
 34 33  2  0  0  0  0
 34 63  1  0  0  0  0
 35 34  1  0  0  0  0
 36 35  1  0  0  0  0
 37 35  2  0  0  0  0
 37 22  1  0  0  0  0
 37 64  1  0  0  0  0
 38 16  1  0  0  0  0
 38 65  1  0  0  0  0
 39 38  2  0  0  0  0
 39 13  1  0  0  0  0
 39 66  1  0  0  0  0
 40  8  1  0  0  0  0
 40 67  1  0  0  0  0
 41 40  2  0  0  0  0
 41  3  1  0  0  0  0
 41 68  1  0  0  0  0
M  END
>  <MOL Chiral Flag>
0

>  <energy>
163.84203448004058

$$$$
> 427_AKC_journal.pntd.0003093
>412.sdf
 OpenBabel10062213273D

 51 54  0  0  0  0  0  0  0  0999 V2000
    4.3601    2.6857    1.6474 O   0  0  0  0  0  0  0  0  0  0  0  0
    3.0288    2.6240    1.8541 C   0  0  0  0  0  0  0  0  0  0  0  0
    2.2804    3.7950    2.0443 C   0  0  0  0  0  0  0  0  0  0  0  0
    0.8952    3.7239    2.2596 C   0  0  0  0  0  0  0  0  0  0  0  0
    0.1767    4.8525    2.4408 O   0  0  0  0  0  0  0  0  0  0  0  0
    0.2551    2.4711    2.2798 C   0  0  0  0  0  0  0  0  0  0  0  0
   -1.2346    2.3703    2.5117 C   0  0  0  0  0  0  0  0  0  0  0  0
   -1.7879    0.9624    2.2140 C   0  0  1  0  0  0  0  0  0  0  0  0
   -1.9037    0.7500    0.8469 O   0  0  0  0  0  0  0  0  0  0  0  0
   -3.0909    0.4965    0.2305 C   0  0  0  0  0  0  0  0  0  0  0  0
   -4.1306    0.9497    0.6874 O   0  0  0  0  0  0  0  0  0  0  0  0
   -3.1310   -0.4184   -0.9372 C   0  0  0  0  0  0  0  0  0  0  0  0
   -4.3572   -0.7446   -1.5430 C   0  0  0  0  0  0  0  0  0  0  0  0
   -4.4036   -1.6474   -2.6154 C   0  0  0  0  0  0  0  0  0  0  0  0
   -5.5872   -1.9604   -3.1852 O   0  0  0  0  0  0  0  0  0  0  0  0
   -3.2167   -2.2333   -3.0909 C   0  0  0  0  0  0  0  0  0  0  0  0
   -3.2450   -3.1125   -4.1174 O   0  0  0  0  0  0  0  0  0  0  0  0
   -1.9863   -1.9064   -2.4888 C   0  0  0  0  0  0  0  0  0  0  0  0
   -0.8324   -2.4580   -2.9195 O   0  0  0  0  0  0  0  0  0  0  0  0
   -1.9505   -1.0034   -1.4204 C   0  0  0  0  0  0  0  0  0  0  0  0
   -0.8309   -0.1120    2.7632 C   0  0  2  0  0  0  0  0  0  0  0  0
    0.4237    0.0788    2.1965 O   0  0  0  0  0  0  0  0  0  0  0  0
    1.0166    1.2958    2.1169 C   0  0  0  0  0  0  0  0  0  0  0  0
    2.3937    1.3789    1.8905 C   0  0  0  0  0  0  0  0  0  0  0  0
   -1.3552   -1.5070    2.4460 C   0  0  0  0  0  0  0  0  0  0  0  0
   -2.5906   -1.9231    2.9692 C   0  0  0  0  0  0  0  0  0  0  0  0
   -3.1110   -3.1842    2.6600 C   0  0  0  0  0  0  0  0  0  0  0  0
   -4.3060   -3.5439    3.1757 O   0  0  0  0  0  0  0  0  0  0  0  0
   -2.3942   -4.0540    1.8173 C   0  0  0  0  0  0  0  0  0  0  0  0
   -2.9067   -5.2680    1.5174 O   0  0  0  0  0  0  0  0  0  0  0  0
   -1.1533   -3.6506    1.2929 C   0  0  0  0  0  0  0  0  0  0  0  0
   -0.4625   -4.4785    0.4803 O   0  0  0  0  0  0  0  0  0  0  0  0
   -0.6387   -2.3858    1.6090 C   0  0  0  0  0  0  0  0  0  0  0  0
    4.8335    3.5298    1.6249 H   0  0  0  0  0  0  0  0  0  0  0  0
    2.7742    4.7590    2.0241 H   0  0  0  0  0  0  0  0  0  0  0  0
    0.5904    5.7275    2.4319 H   0  0  0  0  0  0  0  0  0  0  0  0
   -1.4059    2.6343    3.5778 H   0  0  0  0  0  0  0  0  0  0  0  0
   -1.7959    3.0938    1.8809 H   0  0  0  0  0  0  0  0  0  0  0  0
   -2.7842    0.8866    2.7045 H   0  0  0  0  0  0  0  0  0  0  0  0
   -5.2784   -0.3084   -1.1774 H   0  0  0  0  0  0  0  0  0  0  0  0
   -6.4206   -1.5783   -2.8751 H   0  0  0  0  0  0  0  0  0  0  0  0
   -4.0681   -3.3728   -4.5545 H   0  0  0  0  0  0  0  0  0  0  0  0
   -0.8025   -3.0944   -3.6478 H   0  0  0  0  0  0  0  0  0  0  0  0
   -0.9971   -0.7708   -0.9612 H   0  0  0  0  0  0  0  0  0  0  0  0
   -0.7419    0.0065    3.8663 H   0  0  0  0  0  0  0  0  0  0  0  0
    2.9738    0.4735    1.7606 H   0  0  0  0  0  0  0  0  0  0  0  0
   -3.1564   -1.2624    3.6141 H   0  0  0  0  0  0  0  0  0  0  0  0
   -4.7139   -4.4009    2.9885 H   0  0  0  0  0  0  0  0  0  0  0  0
   -2.4507   -5.8950    0.9386 H   0  0  0  0  0  0  0  0  0  0  0  0
    0.3906   -4.2259    0.0989 H   0  0  0  0  0  0  0  0  0  0  0  0
    0.3130   -2.0910    1.1863 H   0  0  0  0  0  0  0  0  0  0  0  0
  1 34  1  0  0  0  0
  2  1  1  0  0  0  0
  3  2  2  0  0  0  0
  3 35  1  0  0  0  0
  4  3  1  0  0  0  0
  5  4  1  0  0  0  0
  5 36  1  0  0  0  0
  6  4  2  0  0  0  0
  7  6  1  0  0  0  0
  7 37  1  0  0  0  0
  7 38  1  0  0  0  0
  8  7  1  0  0  0  0
  8 39  1  1  0  0  0
  9  8  1  0  0  0  0
 10  9  1  0  0  0  0
 11 10  2  0  0  0  0
 12 10  1  0  0  0  0
 13 12  2  0  0  0  0
 13 40  1  0  0  0  0
 14 13  1  0  0  0  0
 15 14  1  0  0  0  0
 15 41  1  0  0  0  0
 16 14  2  0  0  0  0
 17 16  1  0  0  0  0
 17 42  1  0  0  0  0
 18 16  1  0  0  0  0
 19 18  1  0  0  0  0
 19 43  1  0  0  0  0
 20 18  2  0  0  0  0
 20 12  1  0  0  0  0
 20 44  1  0  0  0  0
 21  8  1  0  0  0  0
 21 45  1  1  0  0  0
 22 21  1  0  0  0  0
 23 22  1  0  0  0  0
 23  6  1  0  0  0  0
 24 23  2  0  0  0  0
 24  2  1  0  0  0  0
 24 46  1  0  0  0  0
 25 21  1  0  0  0  0
 26 25  2  0  0  0  0
 26 47  1  0  0  0  0
 27 26  1  0  0  0  0
 28 27  1  0  0  0  0
 28 48  1  0  0  0  0
 29 27  2  0  0  0  0
 30 29  1  0  0  0  0
 30 49  1  0  0  0  0
 31 29  1  0  0  0  0
 32 31  1  0  0  0  0
 32 50  1  0  0  0  0
 33 31  2  0  0  0  0
 33 25  1  0  0  0  0
 33 51  1  0  0  0  0
M  END
>  <MOL Chiral Flag>
0

>  <energy>
49.612601360497017

$$$$
> 428_AKC_j.bmcl.2014.06.030
>413.sdf
 OpenBabel10062213283D

 45 49  0  0  0  0  0  0  0  0999 V2000
    1.6059   -1.2743   -0.8504 C   0  0  0  0  0  0  0  0  0  0  0  0
    0.4931   -0.3313   -0.5554 N   0  3  1  0  0  0  0  0  0  0  0  0
   -0.1606    0.1135   -1.8520 C   0  0  0  0  0  0  0  0  0  0  0  0
   -1.6192   -0.3956   -2.0383 C   0  0  0  0  0  0  0  0  0  0  0  0
   -2.3378    0.0360   -0.8082 C   0  0  0  0  0  0  0  0  0  0  0  0
   -1.7560   -0.1791    0.4029 C   0  0  0  0  0  0  0  0  0  0  0  0
   -0.4528   -0.8908    0.4653 C   0  0  0  0  0  0  0  0  0  0  0  0
   -2.4881    0.3614    1.4013 N   0  0  0  0  0  0  0  0  0  0  0  0
   -3.5631    0.9108    0.7992 C   0  0  0  0  0  0  0  0  0  0  0  0
   -4.6197    1.5902    1.3998 C   0  0  0  0  0  0  0  0  0  0  0  0
   -5.6403    2.0879    0.5671 C   0  0  0  0  0  0  0  0  0  0  0  0
   -5.5764    1.9009   -0.8349 C   0  0  0  0  0  0  0  0  0  0  0  0
   -4.4896    1.2173   -1.4145 C   0  0  0  0  0  0  0  0  0  0  0  0
   -3.5008    0.7304   -0.5650 C   0  0  0  0  0  0  0  0  0  0  0  0
    2.1819   -1.9525    0.3798 C   0  0  0  0  0  0  0  0  0  0  0  0
    2.7141   -1.1998    1.4413 C   0  0  0  0  0  0  0  0  0  0  0  0
    3.2020   -1.8465    2.5900 C   0  0  0  0  0  0  0  0  0  0  0  0
    3.7091   -1.1054    3.6693 C   0  0  0  0  0  0  0  0  0  0  0  0
    4.1813   -1.7618    4.8109 C   0  0  0  0  0  0  0  0  0  0  0  0
    4.1553   -3.1575    4.8826 C   0  0  0  0  0  0  0  0  0  0  0  0
    3.6551   -3.9068    3.8150 C   0  0  0  0  0  0  0  0  0  0  0  0
    3.1737   -3.2602    2.6667 C   0  0  0  0  0  0  0  0  0  0  0  0
    2.6592   -4.0037    1.5982 C   0  0  0  0  0  0  0  0  0  0  0  0
    2.1636   -3.3552    0.4674 C   0  0  0  0  0  0  0  0  0  0  0  0
    2.4242   -0.7265   -1.3700 H   0  0  0  0  0  0  0  0  0  0  0  0
    1.2419   -2.0592   -1.5522 H   0  0  0  0  0  0  0  0  0  0  0  0
    0.9231    0.5230   -0.1261 H   0  0  0  0  0  0  0  0  0  0  0  0
    0.4439   -0.1610   -2.7461 H   0  0  0  0  0  0  0  0  0  0  0  0
   -0.2113    1.2271   -1.8622 H   0  0  0  0  0  0  0  0  0  0  0  0
   -1.6005   -1.5061   -2.0856 H   0  0  0  0  0  0  0  0  0  0  0  0
   -2.1002   -0.0017   -2.9581 H   0  0  0  0  0  0  0  0  0  0  0  0
   -0.6734   -1.9502    0.2044 H   0  0  0  0  0  0  0  0  0  0  0  0
   -0.0350   -0.8659    1.4951 H   0  0  0  0  0  0  0  0  0  0  0  0
   -2.2652    0.3560    2.4216 H   0  0  0  0  0  0  0  0  0  0  0  0
   -4.6561    1.7313    2.4723 H   0  0  0  0  0  0  0  0  0  0  0  0
   -6.4781    2.6174    1.0019 H   0  0  0  0  0  0  0  0  0  0  0  0
   -6.3671    2.2861   -1.4653 H   0  0  0  0  0  0  0  0  0  0  0  0
   -4.4319    1.0693   -2.4849 H   0  0  0  0  0  0  0  0  0  0  0  0
    2.7285   -0.1180    1.3806 H   0  0  0  0  0  0  0  0  0  0  0  0
    3.7339   -0.0231    3.6307 H   0  0  0  0  0  0  0  0  0  0  0  0
    4.5673   -1.1877    5.6432 H   0  0  0  0  0  0  0  0  0  0  0  0
    4.5213   -3.6603    5.7685 H   0  0  0  0  0  0  0  0  0  0  0  0
    3.6383   -4.9881    3.8857 H   0  0  0  0  0  0  0  0  0  0  0  0
    2.6314   -5.0860    1.6431 H   0  0  0  0  0  0  0  0  0  0  0  0
    1.7587   -3.9494   -0.3423 H   0  0  0  0  0  0  0  0  0  0  0  0
  1 25  1  0  0  0  0
  1 26  1  0  0  0  0
  2  1  1  0  0  0  0
  2 27  1  1  0  0  0
  3  2  1  0  0  0  0
  3 28  1  0  0  0  0
  3 29  1  0  0  0  0
  4  3  1  0  0  0  0
  4 30  1  0  0  0  0
  4 31  1  0  0  0  0
  5  4  1  0  0  0  0
  6  5  2  0  0  0  0
  7  6  1  0  0  0  0
  7  2  1  0  0  0  0
  7 32  1  0  0  0  0
  7 33  1  0  0  0  0
  8  6  1  0  0  0  0
  8 34  1  0  0  0  0
  9  8  1  0  0  0  0
 10  9  2  0  0  0  0
 10 35  1  0  0  0  0
 11 10  1  0  0  0  0
 11 36  1  0  0  0  0
 12 11  2  0  0  0  0
 12 37  1  0  0  0  0
 13 12  1  0  0  0  0
 13 38  1  0  0  0  0
 14 13  2  0  0  0  0
 14  5  1  0  0  0  0
 14  9  1  0  0  0  0
 15  1  1  0  0  0  0
 16 15  2  0  0  0  0
 16 39  1  0  0  0  0
 17 16  1  0  0  0  0
 18 17  2  0  0  0  0
 18 40  1  0  0  0  0
 19 18  1  0  0  0  0
 19 41  1  0  0  0  0
 20 19  2  0  0  0  0
 20 42  1  0  0  0  0
 21 20  1  0  0  0  0
 21 43  1  0  0  0  0
 22 21  2  0  0  0  0
 22 17  1  0  0  0  0
 23 22  1  0  0  0  0
 23 44  1  0  0  0  0
 24 23  2  0  0  0  0
 24 15  1  0  0  0  0
 24 45  1  0  0  0  0
M  CHG  1   2   1
M  END
>  <MOL Chiral Flag>
0

>  <energy>
62.860825008770988

$$$$
> 429_AKC_molecules191220374
>414.sdf
 OpenBabel10062213293D

 40 41  0  0  0  0  0  0  0  0999 V2000
    5.1759   -2.7201   -0.6796 C   0  0  0  0  0  0  0  0  0  0  0  0
    5.6303   -1.4207   -0.7894 O   0  0  0  0  0  0  0  0  0  0  0  0
    4.9349   -0.3037   -0.4357 C   0  0  0  0  0  0  0  0  0  0  0  0
    3.6078   -0.3761    0.0215 C   0  0  0  0  0  0  0  0  0  0  0  0
    2.9180    0.7840    0.3869 C   0  0  0  0  0  0  0  0  0  0  0  0
    1.5086    0.7293    0.8293 C   0  0  0  0  0  0  0  0  0  0  0  0
    0.8296   -0.3550    0.7044 N   0  0  0  0  0  0  0  0  0  0  0  0
   -0.5055   -0.4084    1.0313 N   0  0  0  0  0  0  0  0  0  0  0  0
   -1.2480   -1.4803    0.6638 C   0  0  0  0  0  0  0  0  0  0  0  0
   -0.7234   -2.4063    0.0590 O   0  0  0  0  0  0  0  0  0  0  0  0
   -2.6947   -1.5221    0.9824 C   0  0  0  0  0  0  0  0  0  0  0  0
   -3.4587   -2.5733    0.6283 C   0  0  0  0  0  0  0  0  0  0  0  0
   -4.9082   -2.7040    0.9431 C   0  0  0  0  0  0  0  0  0  0  0  0
   -5.6600   -1.6801    1.5616 C   0  0  0  0  0  0  0  0  0  0  0  0
   -7.0126   -1.8799    1.8548 C   0  0  0  0  0  0  0  0  0  0  0  0
   -7.6287   -3.0925    1.5403 C   0  0  0  0  0  0  0  0  0  0  0  0
   -6.8971   -4.1071    0.9221 C   0  0  0  0  0  0  0  0  0  0  0  0
   -5.5470   -3.9142    0.6214 C   0  0  0  0  0  0  0  0  0  0  0  0
    3.5550    2.0219    0.3036 C   0  0  0  0  0  0  0  0  0  0  0  0
    4.8800    2.1431   -0.1668 C   0  0  0  0  0  0  0  0  0  0  0  0
    5.5776    0.9438   -0.5438 C   0  0  0  0  0  0  0  0  0  0  0  0
    6.8497    0.9293   -1.0110 O   0  0  0  0  0  0  0  0  0  0  0  0
    5.4501    3.4648   -0.2514 N   0  0  0  0  0  0  0  0  0  0  0  0
    6.5496    3.6425   -0.6733 O   0  0  0  0  0  0  0  0  0  0  0  0
    4.8063    4.4134    0.0839 O   0  0  0  0  0  0  0  0  0  0  0  0
    4.9629   -2.9623    0.3839 H   0  0  0  0  0  0  0  0  0  0  0  0
    4.2655   -2.8689   -1.2981 H   0  0  0  0  0  0  0  0  0  0  0  0
    5.9638   -3.4102   -1.0449 H   0  0  0  0  0  0  0  0  0  0  0  0
    3.1092   -1.3334    0.0931 H   0  0  0  0  0  0  0  0  0  0  0  0
    1.0215    1.6378    1.1768 H   0  0  0  0  0  0  0  0  0  0  0  0
   -0.9527    0.3820    1.5234 H   0  0  0  0  0  0  0  0  0  0  0  0
   -3.1127   -0.6842    1.5234 H   0  0  0  0  0  0  0  0  0  0  0  0
   -2.9905   -3.3983    0.0973 H   0  0  0  0  0  0  0  0  0  0  0  0
   -5.2209   -0.7299    1.8218 H   0  0  0  0  0  0  0  0  0  0  0  0
   -7.5830   -1.0931    2.3314 H   0  0  0  0  0  0  0  0  0  0  0  0
   -8.6734   -3.2460    1.7760 H   0  0  0  0  0  0  0  0  0  0  0  0
   -7.3743   -5.0474    0.6790 H   0  0  0  0  0  0  0  0  0  0  0  0
   -4.9932   -4.7153    0.1466 H   0  0  0  0  0  0  0  0  0  0  0  0
    2.9996    2.9076    0.5880 H   0  0  0  0  0  0  0  0  0  0  0  0
    7.4259    1.6832   -1.1537 H   0  0  0  0  0  0  0  0  0  0  0  0
  1 26  1  0  0  0  0
  1 27  1  0  0  0  0
  1 28  1  0  0  0  0
  2  1  1  0  0  0  0
  3  2  1  0  0  0  0
  4  3  2  0  0  0  0
  4 29  1  0  0  0  0
  5  4  1  0  0  0  0
  6  5  1  0  0  0  0
  6 30  1  0  0  0  0
  7  6  2  0  0  0  0
  8  7  1  0  0  0  0
  8 31  1  0  0  0  0
  9  8  1  0  0  0  0
 10  9  2  0  0  0  0
 11  9  1  0  0  0  0
 11 32  1  0  0  0  0
 12 11  2  0  0  0  0
 12 33  1  0  0  0  0
 13 12  1  0  0  0  0
 14 13  2  0  0  0  0
 14 34  1  0  0  0  0
 15 14  1  0  0  0  0
 15 35  1  0  0  0  0
 16 15  2  0  0  0  0
 16 36  1  0  0  0  0
 17 16  1  0  0  0  0
 17 37  1  0  0  0  0
 18 17  2  0  0  0  0
 18 13  1  0  0  0  0
 18 38  1  0  0  0  0
 19  5  2  0  0  0  0
 19 39  1  0  0  0  0
 20 19  1  0  0  0  0
 21 20  2  0  0  0  0
 21  3  1  0  0  0  0
 22 21  1  0  0  0  0
 22 40  1  0  0  0  0
 23 20  1  0  0  0  0
 24 23  2  0  0  0  0
 25 23  2  0  0  0  0
M  END
>  <MOL Chiral Flag>
0

>  <energy>
109.10047505285168

$$$$
> 430_AKC_j.ijpddr.2014.10.005
>415.sdf
 OpenBabel10062213293D

 71 73  0  0  0  0  0  0  0  0999 V2000
   -3.7477    2.2166    1.4500 C   0  0  0  0  0  0  0  0  0  0  0  0
   -4.6429    1.6438    0.3354 C   0  0  0  0  0  0  0  0  0  0  0  0
   -5.1961    0.2669    0.7693 C   0  0  0  0  0  0  0  0  0  0  0  0
   -5.8182    2.5957    0.0818 C   0  0  0  0  0  0  0  0  0  0  0  0
   -3.9245    1.5487   -0.8503 O   0  0  0  0  0  0  0  0  0  0  0  0
   -2.9322    0.6517   -1.0572 C   0  0  0  0  0  0  0  0  0  0  0  0
   -3.2246   -0.4736   -1.4255 O   0  0  0  0  0  0  0  0  0  0  0  0
   -1.6337    0.9989   -0.8256 N   0  0  0  0  0  0  0  0  0  0  0  0
   -0.5169    0.0671   -0.9790 C   0  0  1  0  0  0  0  0  0  0  0  0
   -0.6718   -1.1056    0.0568 C   0  0  0  0  0  0  0  0  0  0  0  0
   -0.4544   -2.5494   -0.3364 C   0  0  0  0  0  0  0  0  0  0  0  0
   -1.2924   -3.1718   -1.2788 C   0  0  0  0  0  0  0  0  0  0  0  0
   -1.1441   -4.5281   -1.5738 C   0  0  0  0  0  0  0  0  0  0  0  0
   -0.1705   -5.2842   -0.9208 C   0  0  0  0  0  0  0  0  0  0  0  0
    0.6635   -4.6818    0.0242 C   0  0  0  0  0  0  0  0  0  0  0  0
    0.5268   -3.3195    0.3158 C   0  0  0  0  0  0  0  0  0  0  0  0
   -0.2191   -0.1846   -2.4988 C   0  0  2  0  0  0  0  0  0  0  0  0
   -1.2900   -0.8196   -3.1417 O   0  0  0  0  0  0  0  0  0  0  0  0
    1.0937   -0.9530   -2.8145 C   0  0  0  0  0  0  0  0  0  0  0  0
    2.2992   -0.4469   -2.1160 N   0  3  2  0  0  0  0  0  0  0  0  0
    2.6022    0.9724   -2.4032 C   0  0  0  0  0  0  0  0  0  0  0  0
    3.8069    1.4184   -1.5626 C   0  0  0  0  0  0  0  0  0  0  0  0
    5.0113    0.6069   -1.8617 N   0  3  1  0  0  0  0  0  0  0  0  0
    6.1244    1.0514   -0.9741 C   0  0  0  0  0  0  0  0  0  0  0  0
    7.5059    0.8354   -1.5687 C   0  0  0  0  0  0  0  0  0  0  0  0
    8.2673    1.9540   -1.9610 C   0  0  0  0  0  0  0  0  0  0  0  0
    9.5404    1.7891   -2.5099 C   0  0  0  0  0  0  0  0  0  0  0  0
   10.0721    0.5094   -2.6712 C   0  0  0  0  0  0  0  0  0  0  0  0
    9.3348   -0.6078   -2.2739 C   0  0  0  0  0  0  0  0  0  0  0  0
    8.0604   -0.4498   -1.7199 C   0  0  0  0  0  0  0  0  0  0  0  0
    4.7039   -0.8346   -1.6863 C   0  0  0  0  0  0  0  0  0  0  0  0
    3.4715   -1.2571   -2.5010 C   0  0  0  0  0  0  0  0  0  0  0  0
   -4.3241    2.3395    2.3923 H   0  0  0  0  0  0  0  0  0  0  0  0
   -3.3464    3.2083    1.1495 H   0  0  0  0  0  0  0  0  0  0  0  0
   -2.8902    1.5407    1.6549 H   0  0  0  0  0  0  0  0  0  0  0  0
   -5.8114    0.3622    1.6896 H   0  0  0  0  0  0  0  0  0  0  0  0
   -4.3683   -0.4408    0.9930 H   0  0  0  0  0  0  0  0  0  0  0  0
   -5.8241   -0.1730   -0.0345 H   0  0  0  0  0  0  0  0  0  0  0  0
   -6.4332    2.7213    0.9986 H   0  0  0  0  0  0  0  0  0  0  0  0
   -6.4671    2.1906   -0.7255 H   0  0  0  0  0  0  0  0  0  0  0  0
   -5.4474    3.5920   -0.2406 H   0  0  0  0  0  0  0  0  0  0  0  0
   -1.4321    1.9549   -0.4953 H   0  0  0  0  0  0  0  0  0  0  0  0
    0.3760    0.6274   -0.6317 H   0  0  0  0  0  0  0  0  0  0  0  0
   -1.6925   -1.0856    0.4896 H   0  0  0  0  0  0  0  0  0  0  0  0
   -0.0284   -0.8487    0.9292 H   0  0  0  0  0  0  0  0  0  0  0  0
   -2.0758   -2.6226   -1.7695 H   0  0  0  0  0  0  0  0  0  0  0  0
   -1.7989   -4.9961   -2.2975 H   0  0  0  0  0  0  0  0  0  0  0  0
   -0.0713   -6.3396   -1.1389 H   0  0  0  0  0  0  0  0  0  0  0  0
    1.4067   -5.2747    0.5414 H   0  0  0  0  0  0  0  0  0  0  0  0
    1.1672   -2.8739    1.0668 H   0  0  0  0  0  0  0  0  0  0  0  0
   -0.1231    0.8341   -2.9412 H   0  0  0  0  0  0  0  0  0  0  0  0
   -1.1749   -0.6795   -4.1182 H   0  0  0  0  0  0  0  0  0  0  0  0
    1.2512   -0.9257   -3.9176 H   0  0  0  0  0  0  0  0  0  0  0  0
    0.9457   -2.0178   -2.5394 H   0  0  0  0  0  0  0  0  0  0  0  0
    2.1500   -0.5759   -1.0877 H   0  0  0  0  0  0  0  0  0  0  0  0
    1.7597    1.6376   -2.1296 H   0  0  0  0  0  0  0  0  0  0  0  0
    2.8154    1.1207   -3.4870 H   0  0  0  0  0  0  0  0  0  0  0  0
    3.5404    1.3324   -0.4837 H   0  0  0  0  0  0  0  0  0  0  0  0
    4.0019    2.4924   -1.7853 H   0  0  0  0  0  0  0  0  0  0  0  0
    5.2681    0.7925   -2.8614 H   0  0  0  0  0  0  0  0  0  0  0  0
    6.0535    0.5953    0.0390 H   0  0  0  0  0  0  0  0  0  0  0  0
    6.0302    2.1481   -0.8016 H   0  0  0  0  0  0  0  0  0  0  0  0
    7.8726    2.9561   -1.8458 H   0  0  0  0  0  0  0  0  0  0  0  0
   10.1141    2.6561   -2.8105 H   0  0  0  0  0  0  0  0  0  0  0  0
   11.0585    0.3841   -3.0978 H   0  0  0  0  0  0  0  0  0  0  0  0
    9.7535   -1.5989   -2.3905 H   0  0  0  0  0  0  0  0  0  0  0  0
    7.5291   -1.3298   -1.3997 H   0  0  0  0  0  0  0  0  0  0  0  0
    4.5068   -1.0595   -0.6133 H   0  0  0  0  0  0  0  0  0  0  0  0
    5.5351   -1.4668   -2.0393 H   0  0  0  0  0  0  0  0  0  0  0  0
    3.2802   -2.3369   -2.3079 H   0  0  0  0  0  0  0  0  0  0  0  0
    3.6884   -1.1370   -3.5884 H   0  0  0  0  0  0  0  0  0  0  0  0
  1 33  1  0  0  0  0
  1 34  1  0  0  0  0
  1 35  1  0  0  0  0
  2  1  1  0  0  0  0
  3  2  1  0  0  0  0
  3 36  1  0  0  0  0
  3 37  1  0  0  0  0
  3 38  1  0  0  0  0
  4  2  1  0  0  0  0
  4 39  1  0  0  0  0
  4 40  1  0  0  0  0
  4 41  1  0  0  0  0
  5  2  1  0  0  0  0
  6  5  1  0  0  0  0
  7  6  2  0  0  0  0
  8  6  1  0  0  0  0
  8 42  1  0  0  0  0
  9  8  1  0  0  0  0
  9 43  1  1  0  0  0
 10  9  1  0  0  0  0
 10 44  1  0  0  0  0
 10 45  1  0  0  0  0
 11 10  1  0  0  0  0
 12 11  2  0  0  0  0
 12 46  1  0  0  0  0
 13 12  1  0  0  0  0
 13 47  1  0  0  0  0
 14 13  2  0  0  0  0
 14 48  1  0  0  0  0
 15 14  1  0  0  0  0
 15 49  1  0  0  0  0
 16 15  2  0  0  0  0
 16 11  1  0  0  0  0
 16 50  1  0  0  0  0
 17  9  1  0  0  0  0
 17 51  1  6  0  0  0
 18 17  1  0  0  0  0
 18 52  1  0  0  0  0
 19 17  1  0  0  0  0
 19 53  1  0  0  0  0
 19 54  1  0  0  0  0
 20 19  1  0  0  0  0
 20 55  1  1  0  0  0
 21 20  1  0  0  0  0
 21 56  1  0  0  0  0
 21 57  1  0  0  0  0
 22 21  1  0  0  0  0
 22 58  1  0  0  0  0
 22 59  1  0  0  0  0
 23 22  1  0  0  0  0
 23 60  1  6  0  0  0
 24 23  1  0  0  0  0
 24 61  1  0  0  0  0
 24 62  1  0  0  0  0
 25 24  1  0  0  0  0
 26 25  2  0  0  0  0
 26 63  1  0  0  0  0
 27 26  1  0  0  0  0
 27 64  1  0  0  0  0
 28 27  2  0  0  0  0
 28 65  1  0  0  0  0
 29 28  1  0  0  0  0
 29 66  1  0  0  0  0
 30 29  2  0  0  0  0
 30 25  1  0  0  0  0
 30 67  1  0  0  0  0
 31 23  1  0  0  0  0
 31 68  1  0  0  0  0
 31 69  1  0  0  0  0
 32 31  1  0  0  0  0
 32 20  1  0  0  0  0
 32 70  1  0  0  0  0
 32 71  1  0  0  0  0
M  CHG  2  20   1  23   1
M  END
>  <MOL Chiral Flag>
0

>  <energy>
124.33084169936372

$$$$
> 431_AKC_journal.pone.0107994
>416.sdf
 OpenBabel10062213303D

 49 51  0  0  0  0  0  0  0  0999 V2000
    7.1525    5.8704   -1.0702 N   0  3  0  0  0  0  0  0  0  0  0  0
    6.2606    5.1376   -1.9684 C   0  0  0  0  0  0  0  0  0  0  0  0
    4.8264    5.1247   -1.4239 C   0  0  0  0  0  0  0  0  0  0  0  0
    3.8746    4.3977   -2.3862 C   0  0  0  0  0  0  0  0  0  0  0  0
    2.4108    4.4049   -1.9885 C   0  0  0  0  0  0  0  0  0  0  0  0
    1.6032    3.9211   -2.7697 O   0  0  0  0  0  0  0  0  0  0  0  0
    1.9762    4.9522   -0.8134 N   0  0  0  0  0  0  0  0  0  0  0  0
    0.5671    5.0569   -0.4847 C   0  0  0  0  0  0  0  0  0  0  0  0
   -0.1071    3.7127   -0.3654 C   0  0  0  0  0  0  0  0  0  0  0  0
   -1.1655    3.3862   -1.2239 C   0  0  0  0  0  0  0  0  0  0  0  0
   -1.8319    2.1696   -1.0903 C   0  0  0  0  0  0  0  0  0  0  0  0
   -1.4772    1.2651   -0.0792 C   0  0  0  0  0  0  0  0  0  0  0  0
   -2.2379    0.0599    0.0487 N   0  0  0  0  0  0  0  0  0  0  0  0
   -2.6765   -0.5401    1.2852 C   0  0  0  0  0  0  0  0  0  0  0  0
   -2.4573    0.0344    2.4954 C   0  0  0  0  0  0  0  0  0  0  0  0
   -2.9968   -0.5505    3.7424 C   0  0  0  0  0  0  0  0  0  0  0  0
   -2.7600   -0.0067    4.8107 O   0  0  0  0  0  0  0  0  0  0  0  0
   -3.8620   -1.7490    3.6866 C   0  0  0  0  0  0  0  0  0  0  0  0
   -4.1123   -2.3571    2.4436 C   0  0  0  0  0  0  0  0  0  0  0  0
   -4.9523   -3.4841    2.3790 C   0  0  0  0  0  0  0  0  0  0  0  0
   -5.5378   -3.9927    3.5415 C   0  0  0  0  0  0  0  0  0  0  0  0
   -5.2873   -3.3883    4.7748 C   0  0  0  0  0  0  0  0  0  0  0  0
   -4.4510   -2.2723    4.8514 C   0  0  0  0  0  0  0  0  0  0  0  0
   -3.5014   -1.7867    1.2151 C   0  0  0  0  0  0  0  0  0  0  0  0
   -3.7052   -2.3185    0.1332 O   0  0  0  0  0  0  0  0  0  0  0  0
   -0.3845    1.5735    0.7579 C   0  0  0  0  0  0  0  0  0  0  0  0
    0.2943    2.7912    0.6142 C   0  0  0  0  0  0  0  0  0  0  0  0
    7.1733    5.4126   -0.1302 H   0  0  0  0  0  0  0  0  0  0  0  0
    6.8296    6.8608   -0.9728 H   0  0  0  0  0  0  0  0  0  0  0  0
    8.1183    5.8698   -1.4706 H   0  0  0  0  0  0  0  0  0  0  0  0
    6.6266    4.0934   -2.0839 H   0  0  0  0  0  0  0  0  0  0  0  0
    6.2726    5.6272   -2.9682 H   0  0  0  0  0  0  0  0  0  0  0  0
    4.4883    6.1784   -1.3094 H   0  0  0  0  0  0  0  0  0  0  0  0
    4.8167    4.6221   -0.4320 H   0  0  0  0  0  0  0  0  0  0  0  0
    4.2048    3.3435   -2.5097 H   0  0  0  0  0  0  0  0  0  0  0  0
    3.9431    4.9041   -3.3739 H   0  0  0  0  0  0  0  0  0  0  0  0
    2.6470    5.3527   -0.1441 H   0  0  0  0  0  0  0  0  0  0  0  0
    0.0710    5.6798   -1.2611 H   0  0  0  0  0  0  0  0  0  0  0  0
    0.4519    5.5880    0.4854 H   0  0  0  0  0  0  0  0  0  0  0  0
   -1.4854    4.0812   -1.9900 H   0  0  0  0  0  0  0  0  0  0  0  0
   -2.6584    1.9449   -1.7530 H   0  0  0  0  0  0  0  0  0  0  0  0
   -2.6988   -0.2815   -0.8083 H   0  0  0  0  0  0  0  0  0  0  0  0
   -1.9211    0.9626    2.5969 H   0  0  0  0  0  0  0  0  0  0  0  0
   -5.1622   -3.9622    1.4305 H   0  0  0  0  0  0  0  0  0  0  0  0
   -6.1902   -4.8544    3.4855 H   0  0  0  0  0  0  0  0  0  0  0  0
   -5.7455   -3.7823    5.6727 H   0  0  0  0  0  0  0  0  0  0  0  0
   -4.2719   -1.8115    5.8148 H   0  0  0  0  0  0  0  0  0  0  0  0
   -0.0502    0.8771    1.5152 H   0  0  0  0  0  0  0  0  0  0  0  0
    1.1203    3.0237    1.2752 H   0  0  0  0  0  0  0  0  0  0  0  0
  1 28  1  0  0  0  0
  1 29  1  0  0  0  0
  1 30  1  0  0  0  0
  2  1  1  0  0  0  0
  2 31  1  0  0  0  0
  2 32  1  0  0  0  0
  3  2  1  0  0  0  0
  3 33  1  0  0  0  0
  3 34  1  0  0  0  0
  4  3  1  0  0  0  0
  4 35  1  0  0  0  0
  4 36  1  0  0  0  0
  5  4  1  0  0  0  0
  6  5  2  0  0  0  0
  7  5  1  0  0  0  0
  7 37  1  0  0  0  0
  8  7  1  0  0  0  0
  8 38  1  0  0  0  0
  8 39  1  0  0  0  0
  9  8  1  0  0  0  0
 10  9  2  0  0  0  0
 10 40  1  0  0  0  0
 11 10  1  0  0  0  0
 11 41  1  0  0  0  0
 12 11  2  0  0  0  0
 13 12  1  0  0  0  0
 13 42  1  0  0  0  0
 14 13  1  0  0  0  0
 15 14  2  0  0  0  0
 15 43  1  0  0  0  0
 16 15  1  0  0  0  0
 17 16  2  0  0  0  0
 18 16  1  0  0  0  0
 19 18  2  0  0  0  0
 20 19  1  0  0  0  0
 20 44  1  0  0  0  0
 21 20  2  0  0  0  0
 21 45  1  0  0  0  0
 22 21  1  0  0  0  0
 22 46  1  0  0  0  0
 23 22  2  0  0  0  0
 23 18  1  0  0  0  0
 23 47  1  0  0  0  0
 24 19  1  0  0  0  0
 24 14  1  0  0  0  0
 25 24  2  0  0  0  0
 26 12  1  0  0  0  0
 26 48  1  0  0  0  0
 27 26  2  0  0  0  0
 27  9  1  0  0  0  0
 27 49  1  0  0  0  0
M  CHG  1   1   1
M  END
>  <MOL Chiral Flag>
0

>  <energy>
64.109205698881055

$$$$
> 432_AKC_j.phymed.2014.05.005
>417.sdf
 OpenBabel10062213313D

 84 88  0  0  0  0  0  0  0  0999 V2000
   -5.4986    7.3587   -3.5423 C   0  0  0  0  0  0  0  0  0  0  0  0
   -5.1165    6.6751   -4.8557 C   0  0  0  0  0  0  0  0  0  0  0  0
   -4.2048    7.5798   -5.7019 C   0  0  0  0  0  0  0  0  0  0  0  0
   -4.4526    5.3185   -4.6286 C   0  0  0  0  0  0  0  0  0  0  0  0
   -5.0510    4.2088   -5.1000 C   0  0  0  0  0  0  0  0  0  0  0  0
   -3.0806    5.2227   -3.9763 C   0  0  0  0  0  0  0  0  0  0  0  0
   -2.9340    4.2155   -2.8030 C   0  0  0  0  0  0  0  0  0  0  0  0
   -1.4253    4.0304   -2.4281 C   0  0  1  0  0  0  0  0  0  0  0  0
   -0.9134    5.2872   -1.6989 C   0  0  0  0  0  0  0  0  0  0  0  0
   -1.1285    2.7126   -1.6138 C   0  0  1  0  0  0  0  0  0  0  0  0
   -1.7301    1.4325   -2.2881 C   0  0  0  0  0  0  0  0  0  0  0  0
   -0.7156    0.2838   -2.1076 C   0  0  0  0  0  0  0  0  0  0  0  0
    0.1905    0.7454   -0.9710 C   0  0  1  0  0  0  0  0  0  0  0  0
   -0.5907    0.4991    0.3802 C   0  0  0  0  0  0  0  0  0  0  0  0
    1.5971    0.0293   -0.8939 C   0  0  2  0  0  0  0  0  0  0  0  0
    1.4476   -1.5103   -0.7073 C   0  0  0  0  0  0  0  0  0  0  0  0
    2.7449   -2.2051   -0.3145 C   0  0  0  0  0  0  0  0  0  0  0  0
    3.1674   -1.6838    1.0849 C   0  0  2  0  0  0  0  0  0  0  0  0
    3.3474   -0.1369    1.1129 C   0  0  1  0  0  0  0  0  0  0  0  0
    4.0258    0.4853   -0.0378 C   0  0  0  0  0  0  0  0  0  0  0  0
    2.4708    0.7631    0.2016 C   0  0  1  0  0  0  0  0  0  0  0  0
    2.4696    2.3334    0.1129 C   0  0  0  0  0  0  0  0  0  0  0  0
    1.0776    2.9532   -0.1215 C   0  0  0  0  0  0  0  0  0  0  0  0
    0.3602    2.2776   -1.3265 C   0  0  2  0  0  0  0  0  0  0  0  0
    1.1947    2.5443   -2.6350 C   0  0  0  0  0  0  0  0  0  0  0  0
    3.6150    0.4337    2.5176 C   0  0  0  0  0  0  0  0  0  0  0  0
    4.8262   -0.2593    3.1421 C   0  0  0  0  0  0  0  0  0  0  0  0
    4.6386   -1.7950    3.1608 C   0  0  2  0  0  0  0  0  0  0  0  0
    5.7034   -2.4209    3.8351 O   0  0  0  0  0  0  0  0  0  0  0  0
    4.4094   -2.4076    1.7304 C   0  0  0  0  0  0  0  0  0  0  0  0
    5.6792   -2.2697    0.8503 C   0  0  0  0  0  0  0  0  0  0  0  0
    4.1185   -3.9198    1.9031 C   0  0  0  0  0  0  0  0  0  0  0  0
   -6.0051    8.3249   -3.7588 H   0  0  0  0  0  0  0  0  0  0  0  0
   -6.2090    6.7175   -2.9790 H   0  0  0  0  0  0  0  0  0  0  0  0
   -4.6076    7.5592   -2.9130 H   0  0  0  0  0  0  0  0  0  0  0  0
   -6.0593    6.5382   -5.4325 H   0  0  0  0  0  0  0  0  0  0  0  0
   -3.9509    7.0784   -6.6607 H   0  0  0  0  0  0  0  0  0  0  0  0
   -3.2598    7.8222   -5.1721 H   0  0  0  0  0  0  0  0  0  0  0  0
   -4.7179    8.5362   -5.9363 H   0  0  0  0  0  0  0  0  0  0  0  0
   -6.0121    4.2632   -5.6017 H   0  0  0  0  0  0  0  0  0  0  0  0
   -4.5897    3.2331   -5.0000 H   0  0  0  0  0  0  0  0  0  0  0  0
   -2.7550    6.2272   -3.6529 H   0  0  0  0  0  0  0  0  0  0  0  0
   -2.3975    4.8910   -4.7875 H   0  0  0  0  0  0  0  0  0  0  0  0
   -3.5491    4.4989   -1.9209 H   0  0  0  0  0  0  0  0  0  0  0  0
   -3.3246    3.2533   -3.1743 H   0  0  0  0  0  0  0  0  0  0  0  0
   -0.8897    3.9260   -3.3929 H   0  0  0  0  0  0  0  0  0  0  0  0
   -1.4011    5.3840   -0.7048 H   0  0  0  0  0  0  0  0  0  0  0  0
   -1.1045    6.2121   -2.2726 H   0  0  0  0  0  0  0  0  0  0  0  0
    0.1783    5.2667   -1.5782 H   0  0  0  0  0  0  0  0  0  0  0  0
   -1.6308    2.8249   -0.6309 H   0  0  0  0  0  0  0  0  0  0  0  0
   -1.9151    1.5256   -3.3798 H   0  0  0  0  0  0  0  0  0  0  0  0
   -2.6943    1.2074   -1.7804 H   0  0  0  0  0  0  0  0  0  0  0  0
   -1.1737   -0.7239   -2.0081 H   0  0  0  0  0  0  0  0  0  0  0  0
   -0.0938    0.2297   -3.0244 H   0  0  0  0  0  0  0  0  0  0  0  0
   -1.5567    1.0266    0.4550 H   0  0  0  0  0  0  0  0  0  0  0  0
   -0.8845   -0.5587    0.5045 H   0  0  0  0  0  0  0  0  0  0  0  0
    0.0106    0.7685    1.2718 H   0  0  0  0  0  0  0  0  0  0  0  0
    2.1202    0.1449   -1.8638 H   0  0  0  0  0  0  0  0  0  0  0  0
    1.0438   -1.9509   -1.6449 H   0  0  0  0  0  0  0  0  0  0  0  0
    0.7439   -1.7703    0.1000 H   0  0  0  0  0  0  0  0  0  0  0  0
    2.5285   -3.2912   -0.2643 H   0  0  0  0  0  0  0  0  0  0  0  0
    3.5200   -2.0644   -1.0930 H   0  0  0  0  0  0  0  0  0  0  0  0
    2.3096   -1.8918    1.7652 H   0  0  0  0  0  0  0  0  0  0  0  0
    4.7723    1.2272    0.3269 H   0  0  0  0  0  0  0  0  0  0  0  0
    4.1972   -0.0159   -1.0097 H   0  0  0  0  0  0  0  0  0  0  0  0
    2.9002    2.7987    1.0203 H   0  0  0  0  0  0  0  0  0  0  0  0
    3.1166    2.6716   -0.7260 H   0  0  0  0  0  0  0  0  0  0  0  0
    1.2206    4.0373   -0.2546 H   0  0  0  0  0  0  0  0  0  0  0  0
    0.4721    2.8469    0.7991 H   0  0  0  0  0  0  0  0  0  0  0  0
    2.2221    2.1439   -2.6179 H   0  0  0  0  0  0  0  0  0  0  0  0
    0.7159    2.1424   -3.5493 H   0  0  0  0  0  0  0  0  0  0  0  0
    1.3107    3.6343   -2.7986 H   0  0  0  0  0  0  0  0  0  0  0  0
    3.8018    1.5251    2.5201 H   0  0  0  0  0  0  0  0  0  0  0  0
    2.7182    0.2412    3.1453 H   0  0  0  0  0  0  0  0  0  0  0  0
    5.7420    0.0128    2.5766 H   0  0  0  0  0  0  0  0  0  0  0  0
    4.9521    0.1123    4.1823 H   0  0  0  0  0  0  0  0  0  0  0  0
    3.7237   -1.9840    3.7675 H   0  0  0  0  0  0  0  0  0  0  0  0
    6.5556   -2.0375    3.5013 H   0  0  0  0  0  0  0  0  0  0  0  0
    5.5236   -2.7328   -0.1456 H   0  0  0  0  0  0  0  0  0  0  0  0
    6.5416   -2.7926    1.3144 H   0  0  0  0  0  0  0  0  0  0  0  0
    5.9716   -1.2149    0.6912 H   0  0  0  0  0  0  0  0  0  0  0  0
    3.9860   -4.4302    0.9280 H   0  0  0  0  0  0  0  0  0  0  0  0
    4.9624   -4.4300    2.4145 H   0  0  0  0  0  0  0  0  0  0  0  0
    3.2021   -4.0770    2.5119 H   0  0  0  0  0  0  0  0  0  0  0  0
  1 33  1  0  0  0  0
  1 34  1  0  0  0  0
  1 35  1  0  0  0  0
  2  1  1  0  0  0  0
  2 36  1  0  0  0  0
  3  2  1  0  0  0  0
  3 37  1  0  0  0  0
  3 38  1  0  0  0  0
  3 39  1  0  0  0  0
  4  2  1  0  0  0  0
  5  4  2  0  0  0  0
  5 40  1  0  0  0  0
  5 41  1  0  0  0  0
  6  4  1  0  0  0  0
  6 42  1  0  0  0  0
  6 43  1  0  0  0  0
  7  6  1  0  0  0  0
  7 44  1  0  0  0  0
  7 45  1  0  0  0  0
  8  7  1  0  0  0  0
  8 46  1  6  0  0  0
  9  8  1  0  0  0  0
  9 47  1  0  0  0  0
  9 48  1  0  0  0  0
  9 49  1  0  0  0  0
 10  8  1  0  0  0  0
 10 50  1  1  0  0  0
 11 10  1  0  0  0  0
 11 51  1  0  0  0  0
 11 52  1  0  0  0  0
 12 11  1  0  0  0  0
 12 53  1  0  0  0  0
 12 54  1  0  0  0  0
 13 12  1  0  0  0  0
 13 14  1  1  0  0  0
 14 55  1  0  0  0  0
 14 56  1  0  0  0  0
 14 57  1  0  0  0  0
 15 13  1  0  0  0  0
 15 58  1  6  0  0  0
 16 15  1  0  0  0  0
 16 59  1  0  0  0  0
 16 60  1  0  0  0  0
 17 16  1  0  0  0  0
 17 61  1  0  0  0  0
 17 62  1  0  0  0  0
 18 17  1  0  0  0  0
 18 63  1  1  0  0  0
 19 18  1  0  0  0  0
 19 20  1  6  0  0  0
 20 64  1  0  0  0  0
 20 65  1  0  0  0  0
 21 20  1  6  0  0  0
 21 15  1  0  0  0  0
 21 19  1  0  0  0  0
 22 21  1  0  0  0  0
 22 66  1  0  0  0  0
 22 67  1  0  0  0  0
 23 22  1  0  0  0  0
 23 68  1  0  0  0  0
 23 69  1  0  0  0  0
 24 23  1  0  0  0  0
 24 10  1  0  0  0  0
 24 13  1  0  0  0  0
 24 25  1  6  0  0  0
 25 70  1  0  0  0  0
 25 71  1  0  0  0  0
 25 72  1  0  0  0  0
 26 19  1  0  0  0  0
 26 73  1  0  0  0  0
 26 74  1  0  0  0  0
 27 26  1  0  0  0  0
 27 75  1  0  0  0  0
 27 76  1  0  0  0  0
 28 27  1  0  0  0  0
 28 77  1  1  0  0  0
 29 28  1  0  0  0  0
 29 78  1  0  0  0  0
 30 28  1  0  0  0  0
 30 18  1  0  0  0  0
 31 30  1  0  0  0  0
 31 79  1  0  0  0  0
 31 80  1  0  0  0  0
 31 81  1  0  0  0  0
 32 30  1  0  0  0  0
 32 82  1  0  0  0  0
 32 83  1  0  0  0  0
 32 84  1  0  0  0  0
M  END
>  <MOL Chiral Flag>
0

>  <energy>
157.64323596106843

$$$$
> 433_AKC_journal.pone.0091259
>418.sdf
 OpenBabel10062213313D

 16 16  0  0  0  0  0  0  0  0999 V2000
   -2.9559    0.8545    0.5568 O   0  0  0  0  0  0  0  0  0  0  0  0
   -2.3360   -0.0111   -0.3603 C   0  0  0  0  0  0  0  0  0  0  0  0
   -0.8392    0.0469   -0.2334 C   0  0  0  0  0  0  0  0  0  0  0  0
   -0.0928   -1.1134    0.0190 C   0  0  0  0  0  0  0  0  0  0  0  0
    1.2930   -1.0100    0.1461 C   0  0  0  0  0  0  0  0  0  0  0  0
    1.9609   -2.0049    0.3639 O   0  0  0  0  0  0  0  0  0  0  0  0
    1.8982    0.2495    0.0231 C   0  0  0  0  0  0  0  0  0  0  0  0
    3.2343    0.4075    0.1415 O   0  0  0  0  0  0  0  0  0  0  0  0
    1.0895    1.3606   -0.2276 C   0  0  0  0  0  0  0  0  0  0  0  0
   -0.2281    1.2243   -0.3484 O   0  0  0  0  0  0  0  0  0  0  0  0
   -2.4758    0.7868    1.4241 H   0  0  0  0  0  0  0  0  0  0  0  0
   -2.6016    0.3249   -1.3841 H   0  0  0  0  0  0  0  0  0  0  0  0
   -2.7262   -1.0437   -0.2236 H   0  0  0  0  0  0  0  0  0  0  0  0
   -0.5789   -2.0780    0.1150 H   0  0  0  0  0  0  0  0  0  0  0  0
    3.8272   -0.3375    0.3110 H   0  0  0  0  0  0  0  0  0  0  0  0
    1.5316    2.3433   -0.3232 H   0  0  0  0  0  0  0  0  0  0  0  0
  1 11  1  0  0  0  0
  2  1  1  0  0  0  0
  2 12  1  0  0  0  0
  2 13  1  0  0  0  0
  3  2  1  0  0  0  0
  4  3  2  0  0  0  0
  4 14  1  0  0  0  0
  5  4  1  0  0  0  0
  6  5  2  0  0  0  0
  7  5  1  0  0  0  0
  8  7  1  0  0  0  0
  8 15  1  0  0  0  0
  9  7  2  0  0  0  0
  9 16  1  0  0  0  0
 10  9  1  0  0  0  0
 10  3  1  0  0  0  0
M  END
>  <MOL Chiral Flag>
0

>  <energy>
22.00579342573883

$$$$
> 434_AKC_j.ejmech.2013.12.030
>419.sdf
 OpenBabel10062213323D

 64 69  0  0  0  0  0  0  0  0999 V2000
   -8.5373    1.6977    0.4542 O   0  0  0  0  0  0  0  0  0  0  0  0
   -7.0679    1.6637    0.0053 S   0  0  0  0  0  0  0  0  0  0  0  0
   -7.1743    0.6109   -1.1074 O   0  0  0  0  0  0  0  0  0  0  0  0
   -6.3122    0.8915    1.4312 N   0  0  0  0  0  0  0  0  0  0  0  0
   -5.4862   -0.2964    1.4313 C   0  0  0  0  0  0  0  0  0  0  0  0
   -4.8261   -0.7727    0.2808 C   0  0  0  0  0  0  0  0  0  0  0  0
   -4.0505   -1.9538    0.3307 C   0  0  0  0  0  0  0  0  0  0  0  0
   -3.9179   -2.6876    1.5186 C   0  0  0  0  0  0  0  0  0  0  0  0
   -2.9261   -4.4010    1.5169 Se  0  0  0  0  0  0  0  0  0  0  0  0
   -0.7005   -3.5970    1.9859 Se  0  0  0  0  0  0  0  0  0  0  0  0
    0.5988   -4.8853    1.2230 C   0  0  0  0  0  0  0  0  0  0  0  0
    0.4658   -6.2916    1.2653 C   0  0  0  0  0  0  0  0  0  0  0  0
    1.5253   -7.1305    0.8184 C   0  0  0  0  0  0  0  0  0  0  0  0
    2.7241   -6.5668    0.3151 C   0  0  0  0  0  0  0  0  0  0  0  0
    3.8616   -7.3347   -0.1275 N   0  0  0  0  0  0  0  0  0  0  0  0
    4.2873   -8.9828    0.3629 S   0  0  0  0  0  0  0  0  0  0  0  0
    3.0170   -9.8418    0.3034 O   0  0  0  0  0  0  0  0  0  0  0  0
    5.0667   -9.5120   -0.8521 O   0  0  0  0  0  0  0  0  0  0  0  0
    5.2642   -9.1202    1.8867 C   0  0  0  0  0  0  0  0  0  0  0  0
    6.5719   -9.6720    1.9314 C   0  0  0  0  0  0  0  0  0  0  0  0
    7.1732  -10.1637    0.8075 N   0  0  0  0  0  0  0  0  0  0  0  0
    8.4294  -10.6915    0.8369 C   0  0  0  0  0  0  0  0  0  0  0  0
    9.1481  -10.7427    2.0339 C   0  0  0  0  0  0  0  0  0  0  0  0
    8.5686  -10.2502    3.2017 C   0  0  0  0  0  0  0  0  0  0  0  0
    7.2764   -9.7117    3.1618 C   0  0  0  0  0  0  0  0  0  0  0  0
    6.6799   -9.2094    4.3253 C   0  0  0  0  0  0  0  0  0  0  0  0
    5.3950   -8.6712    4.2737 C   0  0  0  0  0  0  0  0  0  0  0  0
    4.6943   -8.6260    3.0665 C   0  0  0  0  0  0  0  0  0  0  0  0
    2.8177   -5.1690    0.2513 C   0  0  0  0  0  0  0  0  0  0  0  0
    1.7821   -4.3476    0.7052 C   0  0  0  0  0  0  0  0  0  0  0  0
   -4.5666   -2.2133    2.6745 C   0  0  0  0  0  0  0  0  0  0  0  0
   -5.3319   -1.0276    2.6321 C   0  0  0  0  0  0  0  0  0  0  0  0
   -6.6825    3.3658   -0.5399 C   0  0  0  0  0  0  0  0  0  0  0  0
   -7.4965    4.0825   -1.4696 C   0  0  0  0  0  0  0  0  0  0  0  0
   -8.6132    3.5219   -2.0173 N   0  0  0  0  0  0  0  0  0  0  0  0
   -9.3990    4.2040   -2.9054 C   0  0  0  0  0  0  0  0  0  0  0  0
   -9.0738    5.5105   -3.2820 C   0  0  0  0  0  0  0  0  0  0  0  0
   -7.9432    6.1159   -2.7442 C   0  0  0  0  0  0  0  0  0  0  0  0
   -7.1435    5.4112   -1.8321 C   0  0  0  0  0  0  0  0  0  0  0  0
   -6.0100    6.0112   -1.2799 C   0  0  0  0  0  0  0  0  0  0  0  0
   -5.2226    5.3080   -0.3693 C   0  0  0  0  0  0  0  0  0  0  0  0
   -5.5552    3.9988   -0.0026 C   0  0  0  0  0  0  0  0  0  0  0  0
   -6.6704    1.2146    2.3426 H   0  0  0  0  0  0  0  0  0  0  0  0
   -4.9009   -0.2409   -0.6540 H   0  0  0  0  0  0  0  0  0  0  0  0
   -3.5625   -2.3117   -0.5639 H   0  0  0  0  0  0  0  0  0  0  0  0
   -0.4350   -6.7397    1.6634 H   0  0  0  0  0  0  0  0  0  0  0  0
    1.3972   -8.1995    0.8738 H   0  0  0  0  0  0  0  0  0  0  0  0
    4.6335   -6.8156   -0.5727 H   0  0  0  0  0  0  0  0  0  0  0  0
    8.8772  -11.0738   -0.0717 H   0  0  0  0  0  0  0  0  0  0  0  0
   10.1477  -11.1603    2.0576 H   0  0  0  0  0  0  0  0  0  0  0  0
    9.1268  -10.2881    4.1309 H   0  0  0  0  0  0  0  0  0  0  0  0
    7.2110   -9.2327    5.2699 H   0  0  0  0  0  0  0  0  0  0  0  0
    4.9395   -8.2817    5.1743 H   0  0  0  0  0  0  0  0  0  0  0  0
    3.7011   -8.1983    3.0445 H   0  0  0  0  0  0  0  0  0  0  0  0
    3.7249   -4.7088   -0.1207 H   0  0  0  0  0  0  0  0  0  0  0  0
    1.9170   -3.2755    0.6806 H   0  0  0  0  0  0  0  0  0  0  0  0
   -4.4991   -2.7665    3.6047 H   0  0  0  0  0  0  0  0  0  0  0  0
   -5.8323   -0.6912    3.5340 H   0  0  0  0  0  0  0  0  0  0  0  0
  -10.2802    3.7357   -3.3233 H   0  0  0  0  0  0  0  0  0  0  0  0
   -9.6957    6.0531   -3.9869 H   0  0  0  0  0  0  0  0  0  0  0  0
   -7.6920    7.1314   -3.0357 H   0  0  0  0  0  0  0  0  0  0  0  0
   -5.7373    7.0257   -1.5513 H   0  0  0  0  0  0  0  0  0  0  0  0
   -4.3499    5.7830    0.0572 H   0  0  0  0  0  0  0  0  0  0  0  0
   -4.9333    3.4755    0.7094 H   0  0  0  0  0  0  0  0  0  0  0  0
  2  1  2  0  0  0  0
  3  2  2  0  0  0  0
  4  2  1  0  0  0  0
  4 43  1  0  0  0  0
  5  4  1  0  0  0  0
  6  5  2  0  0  0  0
  6 44  1  0  0  0  0
  7  6  1  0  0  0  0
  7 45  1  0  0  0  0
  8  7  2  0  0  0  0
  9  8  1  0  0  0  0
 10  9  1  0  0  0  0
 11 10  1  0  0  0  0
 12 11  2  0  0  0  0
 12 46  1  0  0  0  0
 13 12  1  0  0  0  0
 13 47  1  0  0  0  0
 14 13  2  0  0  0  0
 15 14  1  0  0  0  0
 15 48  1  0  0  0  0
 16 15  1  0  0  0  0
 17 16  2  0  0  0  0
 18 16  2  0  0  0  0
 19 16  1  0  0  0  0
 20 19  2  0  0  0  0
 21 20  1  0  0  0  0
 22 21  2  0  0  0  0
 22 49  1  0  0  0  0
 23 22  1  0  0  0  0
 23 50  1  0  0  0  0
 24 23  2  0  0  0  0
 24 51  1  0  0  0  0
 25 24  1  0  0  0  0
 25 20  1  0  0  0  0
 26 25  2  0  0  0  0
 26 52  1  0  0  0  0
 27 26  1  0  0  0  0
 27 53  1  0  0  0  0
 28 27  2  0  0  0  0
 28 19  1  0  0  0  0
 28 54  1  0  0  0  0
 29 14  1  0  0  0  0
 29 55  1  0  0  0  0
 30 29  2  0  0  0  0
 30 11  1  0  0  0  0
 30 56  1  0  0  0  0
 31  8  1  0  0  0  0
 31 57  1  0  0  0  0
 32 31  2  0  0  0  0
 32  5  1  0  0  0  0
 32 58  1  0  0  0  0
 33  2  1  0  0  0  0
 34 33  2  0  0  0  0
 35 34  1  0  0  0  0
 36 35  2  0  0  0  0
 36 59  1  0  0  0  0
 37 36  1  0  0  0  0
 37 60  1  0  0  0  0
 38 37  2  0  0  0  0
 38 61  1  0  0  0  0
 39 38  1  0  0  0  0
 39 34  1  0  0  0  0
 40 39  2  0  0  0  0
 40 62  1  0  0  0  0
 41 40  1  0  0  0  0
 41 63  1  0  0  0  0
 42 41  2  0  0  0  0
 42 33  1  0  0  0  0
 42 64  1  0  0  0  0
M  END
>  <MOL Chiral Flag>
0

>  <energy>
34.901501234545961

$$$$
> 435_AKC_s00044-013-0741-y
>420.sdf
 OpenBabel10062213323D

 45 45  0  0  0  0  0  0  0  0999 V2000
   -9.2878   -2.1029   -3.9474 C   0  0  0  0  0  0  0  0  0  0  0  0
   -7.9637   -2.0693   -3.1932 C   0  0  0  0  0  0  0  0  0  0  0  0
   -6.9399   -1.1394   -3.8686 C   0  0  0  0  0  0  0  0  0  0  0  0
   -5.6466   -1.1187   -3.0505 C   0  0  0  0  0  0  0  0  0  0  0  0
   -4.4986   -0.3181   -3.6972 C   0  0  0  0  0  0  0  0  0  0  0  0
   -3.2959   -0.3845   -2.7471 C   0  0  0  0  0  0  0  0  0  0  0  0
   -1.9576    0.1264   -3.3040 C   0  0  0  0  0  0  0  0  0  0  0  0
   -0.9044   -0.0899   -2.2101 C   0  0  0  0  0  0  0  0  0  0  0  0
    0.3911    0.0055   -2.6615 O   0  0  0  0  0  0  0  0  0  0  0  0
    1.1339    1.1337   -2.7419 C   0  0  0  0  0  0  0  0  0  0  0  0
    0.6209    2.2225   -2.9480 O   0  0  0  0  0  0  0  0  0  0  0  0
    2.5599    0.9912   -2.4150 C   0  0  0  0  0  0  0  0  0  0  0  0
    3.4595    1.9939   -2.3690 C   0  0  0  0  0  0  0  0  0  0  0  0
    4.8649    1.7632   -1.8978 C   0  0  0  0  0  0  0  0  0  0  0  0
    5.2368    0.5744   -1.2303 C   0  0  0  0  0  0  0  0  0  0  0  0
    6.5361    0.3716   -0.7702 C   0  0  0  0  0  0  0  0  0  0  0  0
    6.8032   -0.7895   -0.1320 O   0  0  0  0  0  0  0  0  0  0  0  0
    7.5105    1.3745   -0.9777 C   0  0  0  0  0  0  0  0  0  0  0  0
    8.7886    1.2299   -0.5595 O   0  0  0  0  0  0  0  0  0  0  0  0
    7.1489    2.5597   -1.6307 C   0  0  0  0  0  0  0  0  0  0  0  0
    5.8367    2.7594   -2.0819 C   0  0  0  0  0  0  0  0  0  0  0  0
   -9.1327   -2.4564   -4.9885 H   0  0  0  0  0  0  0  0  0  0  0  0
   -9.9865   -2.7999   -3.4364 H   0  0  0  0  0  0  0  0  0  0  0  0
   -9.7448   -1.0913   -3.9636 H   0  0  0  0  0  0  0  0  0  0  0  0
   -7.5529   -3.1032   -3.1543 H   0  0  0  0  0  0  0  0  0  0  0  0
   -8.1577   -1.7300   -2.1520 H   0  0  0  0  0  0  0  0  0  0  0  0
   -7.3467   -0.1070   -3.9363 H   0  0  0  0  0  0  0  0  0  0  0  0
   -6.7311   -1.5161   -4.8934 H   0  0  0  0  0  0  0  0  0  0  0  0
   -5.2992   -2.1695   -2.9278 H   0  0  0  0  0  0  0  0  0  0  0  0
   -5.8702   -0.7022   -2.0431 H   0  0  0  0  0  0  0  0  0  0  0  0
   -4.2425   -0.7872   -4.6723 H   0  0  0  0  0  0  0  0  0  0  0  0
   -4.7877    0.7418   -3.8706 H   0  0  0  0  0  0  0  0  0  0  0  0
   -3.5489    0.1654   -1.8135 H   0  0  0  0  0  0  0  0  0  0  0  0
   -3.1366   -1.4566   -2.4939 H   0  0  0  0  0  0  0  0  0  0  0  0
   -1.9981    1.1987   -3.5939 H   0  0  0  0  0  0  0  0  0  0  0  0
   -1.6899   -0.4814   -4.1957 H   0  0  0  0  0  0  0  0  0  0  0  0
   -0.9971   -1.1343   -1.8396 H   0  0  0  0  0  0  0  0  0  0  0  0
   -1.0775    0.5693   -1.3296 H   0  0  0  0  0  0  0  0  0  0  0  0
    2.8517   -0.0142   -2.1669 H   0  0  0  0  0  0  0  0  0  0  0  0
    3.1588    2.9979   -2.6591 H   0  0  0  0  0  0  0  0  0  0  0  0
    4.5294   -0.2105   -1.0276 H   0  0  0  0  0  0  0  0  0  0  0  0
    7.6608   -1.0285    0.2368 H   0  0  0  0  0  0  0  0  0  0  0  0
    9.1214    0.4446   -0.1091 H   0  0  0  0  0  0  0  0  0  0  0  0
    7.8910    3.3327   -1.7870 H   0  0  0  0  0  0  0  0  0  0  0  0
    5.5843    3.6873   -2.5804 H   0  0  0  0  0  0  0  0  0  0  0  0
  1 22  1  0  0  0  0
  1 23  1  0  0  0  0
  1 24  1  0  0  0  0
  2  1  1  0  0  0  0
  2 25  1  0  0  0  0
  2 26  1  0  0  0  0
  3  2  1  0  0  0  0
  3 27  1  0  0  0  0
  3 28  1  0  0  0  0
  4  3  1  0  0  0  0
  4 29  1  0  0  0  0
  4 30  1  0  0  0  0
  5  4  1  0  0  0  0
  5 31  1  0  0  0  0
  5 32  1  0  0  0  0
  6  5  1  0  0  0  0
  6 33  1  0  0  0  0
  6 34  1  0  0  0  0
  7  6  1  0  0  0  0
  7 35  1  0  0  0  0
  7 36  1  0  0  0  0
  8  7  1  0  0  0  0
  8 37  1  0  0  0  0
  8 38  1  0  0  0  0
  9  8  1  0  0  0  0
 10  9  1  0  0  0  0
 11 10  2  0  0  0  0
 12 10  1  0  0  0  0
 12 39  1  0  0  0  0
 13 12  2  0  0  0  0
 13 40  1  0  0  0  0
 14 13  1  0  0  0  0
 15 14  2  0  0  0  0
 15 41  1  0  0  0  0
 16 15  1  0  0  0  0
 17 16  1  0  0  0  0
 17 42  1  0  0  0  0
 18 16  2  0  0  0  0
 19 18  1  0  0  0  0
 19 43  1  0  0  0  0
 20 18  1  0  0  0  0
 20 44  1  0  0  0  0
 21 20  2  0  0  0  0
 21 14  1  0  0  0  0
 21 45  1  0  0  0  0
M  END
>  <MOL Chiral Flag>
0

>  <energy>
9.8880346560957122

$$$$
> 436_AKC_molecules19021394
>421.sdf
 OpenBabel10062213333D

 47 48  0  0  0  0  0  0  0  0999 V2000
   -2.7304    0.9954    1.3714 C   0  0  0  0  0  0  0  0  0  0  0  0
   -2.7816   -0.3710    0.6765 C   0  0  0  0  0  0  0  0  0  0  0  0
   -3.7777   -0.2331   -0.4979 C   0  0  0  0  0  0  0  0  0  0  0  0
   -1.3772   -0.9108    0.1923 C   0  0  2  0  0  0  0  0  0  0  0  0
   -1.5594   -2.3469   -0.3872 C   0  0  0  0  0  0  0  0  0  0  0  0
   -0.2517   -2.9235   -0.9361 C   0  0  0  0  0  0  0  0  0  0  0  0
    0.8416   -2.9696    0.1371 C   0  0  2  0  0  0  0  0  0  0  0  0
    0.5423   -3.9951    1.2441 C   0  0  0  0  0  0  0  0  0  0  0  0
    1.0520   -1.5496    0.6846 C   0  0  0  0  0  0  0  0  0  0  0  0
   -0.2337   -0.9186    1.2816 C   0  0  1  0  0  0  0  0  0  0  0  0
    0.1034    0.3844    1.6166 O   0  0  0  0  0  0  0  0  0  0  0  0
    0.1917    1.0115    2.8282 C   0  0  0  0  0  0  0  0  0  0  0  0
    0.0405    2.2224    2.8396 O   0  0  0  0  0  0  0  0  0  0  0  0
    0.4690    0.3635    4.1458 C   0  0  0  0  0  0  0  0  0  0  0  0
    0.9441   -0.8820    4.3451 C   0  0  0  0  0  0  0  0  0  0  0  0
    1.2752   -1.4284    5.7010 C   0  0  0  0  0  0  0  0  0  0  0  0
    1.9755   -2.6468    5.7796 C   0  0  0  0  0  0  0  0  0  0  0  0
    2.3356   -3.1837    7.0208 C   0  0  0  0  0  0  0  0  0  0  0  0
    1.9944   -2.5187    8.1991 C   0  0  0  0  0  0  0  0  0  0  0  0
    1.2911   -1.3161    8.1413 C   0  0  0  0  0  0  0  0  0  0  0  0
    0.9326   -0.7677    6.9060 C   0  0  0  0  0  0  0  0  0  0  0  0
   -3.7554    1.3473    1.6180 H   0  0  0  0  0  0  0  0  0  0  0  0
   -2.2313    0.9082    2.3473 H   0  0  0  0  0  0  0  0  0  0  0  0
   -2.2373    1.7560    0.7288 H   0  0  0  0  0  0  0  0  0  0  0  0
   -3.2142   -1.0851    1.4120 H   0  0  0  0  0  0  0  0  0  0  0  0
   -4.0150   -1.1997   -0.9780 H   0  0  0  0  0  0  0  0  0  0  0  0
   -3.3814    0.4680   -1.2642 H   0  0  0  0  0  0  0  0  0  0  0  0
   -4.7522    0.1596   -0.1358 H   0  0  0  0  0  0  0  0  0  0  0  0
   -1.0213   -0.2523   -0.6327 H   0  0  0  0  0  0  0  0  0  0  0  0
   -1.9727   -3.0181    0.3941 H   0  0  0  0  0  0  0  0  0  0  0  0
   -2.2643   -2.3515   -1.2392 H   0  0  0  0  0  0  0  0  0  0  0  0
   -0.4256   -3.9403   -1.3512 H   0  0  0  0  0  0  0  0  0  0  0  0
    0.0908   -2.2747   -1.7735 H   0  0  0  0  0  0  0  0  0  0  0  0
    1.7855   -3.3008   -0.3506 H   0  0  0  0  0  0  0  0  0  0  0  0
   -0.3819   -3.7620    1.8077 H   0  0  0  0  0  0  0  0  0  0  0  0
    0.4306   -5.0061    0.7963 H   0  0  0  0  0  0  0  0  0  0  0  0
    1.3867   -4.0283    1.9642 H   0  0  0  0  0  0  0  0  0  0  0  0
    1.3932   -0.9067   -0.1582 H   0  0  0  0  0  0  0  0  0  0  0  0
    1.8773   -1.5582    1.4251 H   0  0  0  0  0  0  0  0  0  0  0  0
   -0.5865   -1.4937    2.1614 H   0  0  0  0  0  0  0  0  0  0  0  0
    0.3275    1.0107    4.9989 H   0  0  0  0  0  0  0  0  0  0  0  0
    1.1600   -1.5126    3.5008 H   0  0  0  0  0  0  0  0  0  0  0  0
    2.2569   -3.1751    4.8770 H   0  0  0  0  0  0  0  0  0  0  0  0
    2.8841   -4.1155    7.0689 H   0  0  0  0  0  0  0  0  0  0  0  0
    2.2750   -2.9350    9.1584 H   0  0  0  0  0  0  0  0  0  0  0  0
    1.0241   -0.8034    9.0570 H   0  0  0  0  0  0  0  0  0  0  0  0
    0.3881    0.1622    6.9139 H   0  0  0  0  0  0  0  0  0  0  0  0
  1 22  1  0  0  0  0
  1 23  1  0  0  0  0
  1 24  1  0  0  0  0
  2  1  1  0  0  0  0
  2 25  1  0  0  0  0
  3  2  1  0  0  0  0
  3 26  1  0  0  0  0
  3 27  1  0  0  0  0
  3 28  1  0  0  0  0
  4  2  1  0  0  0  0
  4 29  1  6  0  0  0
  5  4  1  0  0  0  0
  5 30  1  0  0  0  0
  5 31  1  0  0  0  0
  6  5  1  0  0  0  0
  6 32  1  0  0  0  0
  6 33  1  0  0  0  0
  7  6  1  0  0  0  0
  7 34  1  6  0  0  0
  8  7  1  0  0  0  0
  8 35  1  0  0  0  0
  8 36  1  0  0  0  0
  8 37  1  0  0  0  0
  9  7  1  0  0  0  0
  9 38  1  0  0  0  0
  9 39  1  0  0  0  0
 10  9  1  0  0  0  0
 10  4  1  0  0  0  0
 10 40  1  1  0  0  0
 11 10  1  0  0  0  0
 12 11  1  0  0  0  0
 13 12  2  0  0  0  0
 14 12  1  0  0  0  0
 14 41  1  0  0  0  0
 15 14  2  0  0  0  0
 15 42  1  0  0  0  0
 16 15  1  0  0  0  0
 17 16  2  0  0  0  0
 17 43  1  0  0  0  0
 18 17  1  0  0  0  0
 18 44  1  0  0  0  0
 19 18  2  0  0  0  0
 19 45  1  0  0  0  0
 20 19  1  0  0  0  0
 20 46  1  0  0  0  0
 21 20  2  0  0  0  0
 21 16  1  0  0  0  0
 21 47  1  0  0  0  0
M  END
>  <MOL Chiral Flag>
0

>  <energy>
42.602845902660142

$$$$
> 437_AKC_j.bmc.2013.12.039
>422.sdf
 OpenBabel10062213343D

 55 59  0  0  0  0  0  0  0  0999 V2000
    3.7118   -4.6833    2.0478 C   0  0  0  0  0  0  0  0  0  0  0  0
    3.1445   -3.4359    1.4362 C   0  0  0  0  0  0  0  0  0  0  0  0
    2.0770   -3.5015    0.5296 C   0  0  0  0  0  0  0  0  0  0  0  0
    1.5381   -2.3299   -0.0117 C   0  0  0  0  0  0  0  0  0  0  0  0
    2.0590   -1.0701    0.3418 C   0  0  0  0  0  0  0  0  0  0  0  0
    3.1520   -1.0183    1.2318 C   0  0  0  0  0  0  0  0  0  0  0  0
    3.6818   -2.1898    1.7776 C   0  0  0  0  0  0  0  0  0  0  0  0
    1.4112    0.2005   -0.2218 C   0  0  2  0  0  0  0  0  0  0  0  0
    2.4047    1.0339   -1.0579 C   0  0  0  0  0  0  0  0  0  0  0  0
    1.6912    2.2517   -1.5820 C   0  0  0  0  0  0  0  0  0  0  0  0
    1.6241    2.4694   -2.7822 O   0  0  0  0  0  0  0  0  0  0  0  0
    1.0243    3.1689   -0.5940 C   0  0  0  0  0  0  0  0  0  0  0  0
    0.0241    2.3706    0.2842 C   0  0  1  0  0  0  0  0  0  0  0  0
   -1.3224    2.1882   -0.4330 C   0  0  0  0  0  0  0  0  0  0  0  0
   -2.4811    2.7120    0.1803 C   0  0  0  0  0  0  0  0  0  0  0  0
   -3.7247    2.6322   -0.4452 C   0  0  0  0  0  0  0  0  0  0  0  0
   -3.8446    2.0363   -1.7029 C   0  0  0  0  0  0  0  0  0  0  0  0
   -5.1859    1.9935   -2.3752 C   0  0  0  0  0  0  0  0  0  0  0  0
   -2.7061    1.5001   -2.3231 C   0  0  0  0  0  0  0  0  0  0  0  0
   -1.4552    1.5702   -1.6948 C   0  0  0  0  0  0  0  0  0  0  0  0
    0.7088    1.0810    0.8800 C   0  0  2  0  0  0  0  0  0  0  0  0
    1.6480    1.5081    2.0262 C   0  0  0  0  0  0  0  0  0  0  0  0
    2.6192    2.2385    1.9009 O   0  0  0  0  0  0  0  0  0  0  0  0
    1.2912    0.9978    3.2167 N   0  0  0  0  0  0  0  0  0  0  0  0
    0.1623    0.2122    3.0343 C   0  0  0  0  0  0  0  0  0  0  0  0
   -0.5054   -0.5245    4.0083 C   0  0  0  0  0  0  0  0  0  0  0  0
   -1.6185   -1.2848    3.6171 C   0  0  0  0  0  0  0  0  0  0  0  0
   -2.0360   -1.2883    2.2699 C   0  0  0  0  0  0  0  0  0  0  0  0
   -1.3429   -0.5293    1.3101 C   0  0  0  0  0  0  0  0  0  0  0  0
   -0.2359    0.2224    1.7195 C   0  0  0  0  0  0  0  0  0  0  0  0
    3.5981   -4.6379    3.1521 H   0  0  0  0  0  0  0  0  0  0  0  0
    3.1907   -5.5934    1.6818 H   0  0  0  0  0  0  0  0  0  0  0  0
    4.7901   -4.7686    1.7986 H   0  0  0  0  0  0  0  0  0  0  0  0
    1.6534   -4.4584    0.2513 H   0  0  0  0  0  0  0  0  0  0  0  0
    0.7030   -2.4058   -0.6966 H   0  0  0  0  0  0  0  0  0  0  0  0
    3.5942   -0.0782    1.5178 H   0  0  0  0  0  0  0  0  0  0  0  0
    4.5093   -2.1262    2.4738 H   0  0  0  0  0  0  0  0  0  0  0  0
    0.6106   -0.1262   -0.9151 H   0  0  0  0  0  0  0  0  0  0  0  0
    3.2564    1.3673   -0.4301 H   0  0  0  0  0  0  0  0  0  0  0  0
    2.8110    0.4247   -1.8950 H   0  0  0  0  0  0  0  0  0  0  0  0
    1.8282    3.5898    0.0407 H   0  0  0  0  0  0  0  0  0  0  0  0
    0.5202    4.0283   -1.0885 H   0  0  0  0  0  0  0  0  0  0  0  0
   -0.2109    3.0203    1.1575 H   0  0  0  0  0  0  0  0  0  0  0  0
   -2.4222    3.1946    1.1479 H   0  0  0  0  0  0  0  0  0  0  0  0
   -4.5956    3.0495    0.0461 H   0  0  0  0  0  0  0  0  0  0  0  0
   -5.9054    1.4291   -1.7458 H   0  0  0  0  0  0  0  0  0  0  0  0
   -5.1309    1.5109   -3.3736 H   0  0  0  0  0  0  0  0  0  0  0  0
   -5.5635    3.0301   -2.5107 H   0  0  0  0  0  0  0  0  0  0  0  0
   -2.7845    1.0392   -3.2999 H   0  0  0  0  0  0  0  0  0  0  0  0
   -0.6047    1.1655   -2.2147 H   0  0  0  0  0  0  0  0  0  0  0  0
    1.7824    1.1566    4.1085 H   0  0  0  0  0  0  0  0  0  0  0  0
   -0.1690   -0.5197    5.0369 H   0  0  0  0  0  0  0  0  0  0  0  0
   -2.1523   -1.8751    4.3502 H   0  0  0  0  0  0  0  0  0  0  0  0
   -2.8887   -1.8843    1.9722 H   0  0  0  0  0  0  0  0  0  0  0  0
   -1.6532   -0.5451    0.2746 H   0  0  0  0  0  0  0  0  0  0  0  0
  1 31  1  0  0  0  0
  1 32  1  0  0  0  0
  1 33  1  0  0  0  0
  2  1  1  0  0  0  0
  3  2  2  0  0  0  0
  3 34  1  0  0  0  0
  4  3  1  0  0  0  0
  4 35  1  0  0  0  0
  5  4  2  0  0  0  0
  6  5  1  0  0  0  0
  6 36  1  0  0  0  0
  7  6  2  0  0  0  0
  7  2  1  0  0  0  0
  7 37  1  0  0  0  0
  8  5  1  0  0  0  0
  8 38  1  6  0  0  0
  9  8  1  0  0  0  0
  9 39  1  0  0  0  0
  9 40  1  0  0  0  0
 10  9  1  0  0  0  0
 11 10  2  0  0  0  0
 12 10  1  0  0  0  0
 12 41  1  0  0  0  0
 12 42  1  0  0  0  0
 13 12  1  0  0  0  0
 13 43  1  1  0  0  0
 14 13  1  0  0  0  0
 15 14  2  0  0  0  0
 15 44  1  0  0  0  0
 16 15  1  0  0  0  0
 16 45  1  0  0  0  0
 17 16  2  0  0  0  0
 18 17  1  0  0  0  0
 18 46  1  0  0  0  0
 18 47  1  0  0  0  0
 18 48  1  0  0  0  0
 19 17  1  0  0  0  0
 19 49  1  0  0  0  0
 20 19  2  0  0  0  0
 20 14  1  0  0  0  0
 20 50  1  0  0  0  0
 21 13  1  0  0  0  0
 21  8  1  0  0  0  0
 21 22  1  1  0  0  0
 23 22  2  0  0  0  0
 24 22  1  0  0  0  0
 24 51  1  0  0  0  0
 25 24  1  0  0  0  0
 26 25  2  0  0  0  0
 26 52  1  0  0  0  0
 27 26  1  0  0  0  0
 27 53  1  0  0  0  0
 28 27  2  0  0  0  0
 28 54  1  0  0  0  0
 29 28  1  0  0  0  0
 29 55  1  0  0  0  0
 30 29  2  0  0  0  0
 30 21  1  0  0  0  0
 30 25  1  0  0  0  0
M  END
>  <MOL Chiral Flag>
0

>  <energy>
82.596078844854901

$$$$
> 438_AKC_j.ejmech.2013.11.011
>423.sdf
 OpenBabel10062213343D

 46 50  0  0  0  0  0  0  0  0999 V2000
    0.7328    1.7975   -3.2632 O   0  0  0  0  0  0  0  0  0  0  0  0
    0.6097    1.6543   -2.0545 C   0  0  0  0  0  0  0  0  0  0  0  0
    1.6855    1.8084   -1.1065 C   0  0  0  0  0  0  0  0  0  0  0  0
    1.1477    1.6330    0.2857 C   0  0  0  0  0  0  0  0  0  0  0  0
   -0.2976    1.0479    0.0924 C   0  0  0  0  0  0  0  0  0  0  0  0
   -0.6152    1.2437   -1.3865 C   0  0  0  0  0  0  0  0  0  0  0  0
   -1.7165    0.9458   -2.1432 C   0  0  0  0  0  0  0  0  0  0  0  0
   -3.0670    0.3493   -1.8441 C   0  0  0  0  0  0  0  0  0  0  0  0
   -3.8871    0.5346   -0.6874 C   0  0  0  0  0  0  0  0  0  0  0  0
   -3.5747    1.4396    0.3348 C   0  0  0  0  0  0  0  0  0  0  0  0
   -4.4123    1.5636    1.4479 C   0  0  0  0  0  0  0  0  0  0  0  0
   -5.5501    0.8297    1.5381 N   0  0  0  0  0  0  0  0  0  0  0  0
   -5.9227   -0.0220    0.5508 C   0  0  0  0  0  0  0  0  0  0  0  0
   -5.1164   -0.1806   -0.5839 C   0  0  0  0  0  0  0  0  0  0  0  0
   -5.5398   -1.0211   -1.6183 C   0  0  0  0  0  0  0  0  0  0  0  0
   -4.7707   -1.1554   -2.7623 C   0  0  0  0  0  0  0  0  0  0  0  0
   -3.5595   -0.4837   -2.8742 C   0  0  0  0  0  0  0  0  0  0  0  0
    2.9564    2.0509   -1.5079 C   0  0  0  0  0  0  0  0  0  0  0  0
    4.1610    2.2869   -0.6551 C   0  0  0  0  0  0  0  0  0  0  0  0
    5.4450    1.8250   -1.0741 C   0  0  0  0  0  0  0  0  0  0  0  0
    5.6232    1.0261   -2.2240 C   0  0  0  0  0  0  0  0  0  0  0  0
    6.8989    0.5847   -2.5772 C   0  0  0  0  0  0  0  0  0  0  0  0
    7.9762    0.9276   -1.8236 N   0  0  0  0  0  0  0  0  0  0  0  0
    7.8515    1.6916   -0.7101 C   0  0  0  0  0  0  0  0  0  0  0  0
    6.5895    2.1499   -0.3007 C   0  0  0  0  0  0  0  0  0  0  0  0
    6.4596    2.9205    0.8576 C   0  0  0  0  0  0  0  0  0  0  0  0
    5.2037    3.3596    1.2700 C   0  0  0  0  0  0  0  0  0  0  0  0
    4.0632    3.0432    0.5275 C   0  0  0  0  0  0  0  0  0  0  0  0
    1.7478    0.9510    0.9261 H   0  0  0  0  0  0  0  0  0  0  0  0
    1.0876    2.6434    0.7400 H   0  0  0  0  0  0  0  0  0  0  0  0
   -0.2866   -0.0528    0.2438 H   0  0  0  0  0  0  0  0  0  0  0  0
   -0.9136    1.4870    0.8897 H   0  0  0  0  0  0  0  0  0  0  0  0
   -1.5618    1.0713   -3.2122 H   0  0  0  0  0  0  0  0  0  0  0  0
   -2.7257    2.0791    0.2629 H   0  0  0  0  0  0  0  0  0  0  0  0
   -4.1647    2.2611    2.2363 H   0  0  0  0  0  0  0  0  0  0  0  0
   -6.8565   -0.5646    0.6426 H   0  0  0  0  0  0  0  0  0  0  0  0
   -6.4805   -1.5551   -1.5495 H   0  0  0  0  0  0  0  0  0  0  0  0
   -5.1095   -1.7916   -3.5704 H   0  0  0  0  0  0  0  0  0  0  0  0
   -2.9800   -0.6329   -3.7784 H   0  0  0  0  0  0  0  0  0  0  0  0
    3.1284    2.0559   -2.5781 H   0  0  0  0  0  0  0  0  0  0  0  0
    4.7941    0.7177   -2.8437 H   0  0  0  0  0  0  0  0  0  0  0  0
    7.0319   -0.0382   -3.4512 H   0  0  0  0  0  0  0  0  0  0  0  0
    8.7374    1.9369   -0.1360 H   0  0  0  0  0  0  0  0  0  0  0  0
    7.3329    3.1823    1.4447 H   0  0  0  0  0  0  0  0  0  0  0  0
    5.1144    3.9643    2.1630 H   0  0  0  0  0  0  0  0  0  0  0  0
    3.1177    3.4376    0.8586 H   0  0  0  0  0  0  0  0  0  0  0  0
  2  1  2  0  0  0  0
  3  2  1  0  0  0  0
  4  3  1  0  0  0  0
  4 29  1  0  0  0  0
  4 30  1  0  0  0  0
  5  4  1  0  0  0  0
  5 31  1  0  0  0  0
  5 32  1  0  0  0  0
  6  5  1  0  0  0  0
  6  2  1  0  0  0  0
  7  6  2  0  0  0  0
  7 33  1  0  0  0  0
  8  7  1  0  0  0  0
  9  8  2  0  0  0  0
 10  9  1  0  0  0  0
 10 34  1  0  0  0  0
 11 10  2  0  0  0  0
 11 35  1  0  0  0  0
 12 11  1  0  0  0  0
 13 12  2  0  0  0  0
 13 36  1  0  0  0  0
 14 13  1  0  0  0  0
 14  9  1  0  0  0  0
 15 14  2  0  0  0  0
 15 37  1  0  0  0  0
 16 15  1  0  0  0  0
 16 38  1  0  0  0  0
 17 16  2  0  0  0  0
 17  8  1  0  0  0  0
 17 39  1  0  0  0  0
 18  3  2  0  0  0  0
 18 40  1  0  0  0  0
 19 18  1  0  0  0  0
 20 19  2  0  0  0  0
 21 20  1  0  0  0  0
 21 41  1  0  0  0  0
 22 21  2  0  0  0  0
 22 42  1  0  0  0  0
 23 22  1  0  0  0  0
 24 23  2  0  0  0  0
 24 43  1  0  0  0  0
 25 24  1  0  0  0  0
 25 20  1  0  0  0  0
 26 25  2  0  0  0  0
 26 44  1  0  0  0  0
 27 26  1  0  0  0  0
 27 45  1  0  0  0  0
 28 27  2  0  0  0  0
 28 19  1  0  0  0  0
 28 46  1  0  0  0  0
M  END
>  <MOL Chiral Flag>
0

>  <energy>
110.15891103079156

$$$$
> 439_AKC_1573406410666140507095430
>424.sdf
 OpenBabel10062213343D

 38 40  0  0  0  0  0  0  0  0999 V2000
   -4.4207    0.1961    0.0525 C   0  0  0  0  0  0  0  0  0  0  0  0
   -3.2109   -0.6521    0.0398 N   0  3  1  0  0  0  0  0  0  0  0  0
   -2.3006   -0.3408   -1.0791 C   0  0  1  0  0  0  0  0  0  0  0  0
   -1.5809    0.9548   -0.6563 C   0  0  0  0  0  0  0  0  0  0  0  0
   -1.6035    0.8988    0.8875 C   0  0  0  0  0  0  0  0  0  0  0  0
   -2.3211   -0.4298    1.1973 C   0  0  2  0  0  0  0  0  0  0  0  0
   -1.3202   -1.6283    1.2817 C   0  0  0  0  0  0  0  0  0  0  0  0
   -0.4251   -1.7390    0.0281 C   0  0  1  0  0  0  0  0  0  0  0  0
   -1.3022   -1.5258   -1.2362 C   0  0  0  0  0  0  0  0  0  0  0  0
    0.6114   -0.8182    0.1370 O   0  0  0  0  0  0  0  0  0  0  0  0
    1.6498   -0.6888   -0.7390 C   0  0  0  0  0  0  0  0  0  0  0  0
    1.6421   -1.2885   -1.8041 O   0  0  0  0  0  0  0  0  0  0  0  0
    2.8169    0.1576   -0.3868 C   0  0  0  0  0  0  0  0  0  0  0  0
    2.9593    0.6750    0.9134 C   0  0  0  0  0  0  0  0  0  0  0  0
    4.0771    1.4494    1.2452 C   0  0  0  0  0  0  0  0  0  0  0  0
    5.0523    1.7238    0.2827 C   0  0  0  0  0  0  0  0  0  0  0  0
    4.9159    1.2212   -1.0127 C   0  0  0  0  0  0  0  0  0  0  0  0
    3.8086    0.4367   -1.3476 C   0  0  0  0  0  0  0  0  0  0  0  0
   -5.0273   -0.0004   -0.8590 H   0  0  0  0  0  0  0  0  0  0  0  0
   -4.1963    1.2807    0.0847 H   0  0  0  0  0  0  0  0  0  0  0  0
   -5.0498   -0.0547    0.9340 H   0  0  0  0  0  0  0  0  0  0  0  0
   -3.5579   -1.6412   -0.0004 H   0  0  0  0  0  0  0  0  0  0  0  0
   -2.8316   -0.2389   -2.0525 H   0  0  0  0  0  0  0  0  0  0  0  0
   -2.2119    1.8189   -0.9609 H   0  0  0  0  0  0  0  0  0  0  0  0
   -0.5887    1.1012   -1.1317 H   0  0  0  0  0  0  0  0  0  0  0  0
   -2.2617    1.7279    1.2301 H   0  0  0  0  0  0  0  0  0  0  0  0
   -0.6299    1.0334    1.4037 H   0  0  0  0  0  0  0  0  0  0  0  0
   -2.8719   -0.4002    2.1643 H   0  0  0  0  0  0  0  0  0  0  0  0
   -1.9275   -2.5547    1.3787 H   0  0  0  0  0  0  0  0  0  0  0  0
   -0.6805   -1.5594    2.1887 H   0  0  0  0  0  0  0  0  0  0  0  0
    0.0533   -2.7431    0.0029 H   0  0  0  0  0  0  0  0  0  0  0  0
   -1.9089   -2.4425   -1.4042 H   0  0  0  0  0  0  0  0  0  0  0  0
   -0.6865   -1.3964   -2.1455 H   0  0  0  0  0  0  0  0  0  0  0  0
    2.2176    0.4667    1.6743 H   0  0  0  0  0  0  0  0  0  0  0  0
    4.1893    1.8348    2.2504 H   0  0  0  0  0  0  0  0  0  0  0  0
    5.9150    2.3246    0.5410 H   0  0  0  0  0  0  0  0  0  0  0  0
    5.6706    1.4364   -1.7585 H   0  0  0  0  0  0  0  0  0  0  0  0
    3.7223    0.0533   -2.3566 H   0  0  0  0  0  0  0  0  0  0  0  0
  1 19  1  0  0  0  0
  1 20  1  0  0  0  0
  1 21  1  0  0  0  0
  2  1  1  0  0  0  0
  2 22  1  6  0  0  0
  3  2  1  0  0  0  0
  3 23  1  6  0  0  0
  4  3  1  0  0  0  0
  4 24  1  0  0  0  0
  4 25  1  0  0  0  0
  5  4  1  0  0  0  0
  5 26  1  0  0  0  0
  5 27  1  0  0  0  0
  6  5  1  0  0  0  0
  6  2  1  0  0  0  0
  6 28  1  1  0  0  0
  7  6  1  0  0  0  0
  7 29  1  0  0  0  0
  7 30  1  0  0  0  0
  8  7  1  0  0  0  0
  8 31  1  6  0  0  0
  9  8  1  0  0  0  0
  9  3  1  0  0  0  0
  9 32  1  0  0  0  0
  9 33  1  0  0  0  0
 10  8  1  0  0  0  0
 11 10  1  0  0  0  0
 12 11  2  0  0  0  0
 13 11  1  0  0  0  0
 14 13  2  0  0  0  0
 14 34  1  0  0  0  0
 15 14  1  0  0  0  0
 15 35  1  0  0  0  0
 16 15  2  0  0  0  0
 16 36  1  0  0  0  0
 17 16  1  0  0  0  0
 17 37  1  0  0  0  0
 18 17  2  0  0  0  0
 18 13  1  0  0  0  0
 18 38  1  0  0  0  0
M  CHG  1   2   1
M  END
>  <MOL Chiral Flag>
0

>  <energy>
149.26700855534978

$$$$
> 440_AKC_s-0034-1382826
>425.sdf
 OpenBabel10062213353D

 44 48  0  0  0  0  0  0  0  0999 V2000
    5.8267    1.3073    0.3905 C   0  0  0  0  0  0  0  0  0  0  0  0
    5.2356    0.1203    0.7641 O   0  0  0  0  0  0  0  0  0  0  0  0
    3.8930    0.0054    0.8469 C   0  0  0  0  0  0  0  0  0  0  0  0
    3.0971   -0.2218   -0.2970 C   0  0  0  0  0  0  0  0  0  0  0  0
    3.6518   -0.3799   -1.5327 O   0  0  0  0  0  0  0  0  0  0  0  0
    4.8325   -1.0423   -1.8133 C   0  0  0  0  0  0  0  0  0  0  0  0
    1.6853   -0.2862   -0.1622 C   0  0  0  0  0  0  0  0  0  0  0  0
    0.8974   -0.5207   -1.2816 C   0  0  0  0  0  0  0  0  0  0  0  0
   -0.4634   -0.6481   -1.2187 N   0  3  0  0  0  0  0  0  0  0  0  0
   -1.0976   -0.9293   -2.5150 C   0  0  0  0  0  0  0  0  0  0  0  0
   -1.1434   -0.5258    0.0044 C   0  0  0  0  0  0  0  0  0  0  0  0
   -2.5979   -0.6961    0.1827 C   0  0  0  0  0  0  0  0  0  0  0  0
   -3.5487   -1.0319   -0.8483 C   0  0  0  0  0  0  0  0  0  0  0  0
   -4.8799   -1.2425   -0.5120 C   0  0  0  0  0  0  0  0  0  0  0  0
   -5.3384   -1.1191    0.7246 C   0  0  0  0  0  0  0  0  0  0  0  0
   -6.6375   -1.4144    0.7509 O   0  0  0  0  0  0  0  0  0  0  0  0
   -7.0330   -1.7647   -0.5424 C   0  0  0  0  0  0  0  0  0  0  0  0
   -5.8775   -1.6162   -1.3146 O   0  0  0  0  0  0  0  0  0  0  0  0
   -4.5233   -0.7577    1.7707 C   0  0  0  0  0  0  0  0  0  0  0  0
   -3.1491   -0.5530    1.5128 C   0  0  0  0  0  0  0  0  0  0  0  0
   -2.3440   -0.2344    2.5857 C   0  0  0  0  0  0  0  0  0  0  0  0
   -0.9915   -0.0862    2.4363 C   0  0  0  0  0  0  0  0  0  0  0  0
   -0.3540   -0.2417    1.1863 C   0  0  0  0  0  0  0  0  0  0  0  0
    1.0707   -0.1412    1.0939 C   0  0  0  0  0  0  0  0  0  0  0  0
    1.9102    0.0713    2.2229 C   0  0  0  0  0  0  0  0  0  0  0  0
    3.2913    0.1387    2.0899 C   0  0  0  0  0  0  0  0  0  0  0  0
    5.4885    1.6102   -0.6229 H   0  0  0  0  0  0  0  0  0  0  0  0
    5.5629    2.1057    1.1172 H   0  0  0  0  0  0  0  0  0  0  0  0
    6.9280    1.1801    0.3819 H   0  0  0  0  0  0  0  0  0  0  0  0
    5.2163   -1.6132   -0.9418 H   0  0  0  0  0  0  0  0  0  0  0  0
    5.5951   -0.3211   -2.1709 H   0  0  0  0  0  0  0  0  0  0  0  0
    4.6400   -1.7787   -2.6205 H   0  0  0  0  0  0  0  0  0  0  0  0
    1.3982   -0.6285   -2.2377 H   0  0  0  0  0  0  0  0  0  0  0  0
   -0.3775   -0.9771   -3.3612 H   0  0  0  0  0  0  0  0  0  0  0  0
   -1.5478   -1.9435   -2.5001 H   0  0  0  0  0  0  0  0  0  0  0  0
   -1.7884   -0.1037   -2.7888 H   0  0  0  0  0  0  0  0  0  0  0  0
   -3.3503   -1.1736   -1.8746 H   0  0  0  0  0  0  0  0  0  0  0  0
   -7.3755   -2.8223   -0.5671 H   0  0  0  0  0  0  0  0  0  0  0  0
   -7.8331   -1.0853   -0.9006 H   0  0  0  0  0  0  0  0  0  0  0  0
   -4.9348   -0.6681    2.7695 H   0  0  0  0  0  0  0  0  0  0  0  0
   -2.7712   -0.1200    3.5766 H   0  0  0  0  0  0  0  0  0  0  0  0
   -0.4615    0.1424    3.3393 H   0  0  0  0  0  0  0  0  0  0  0  0
    1.5398    0.1808    3.2235 H   0  0  0  0  0  0  0  0  0  0  0  0
    3.9039    0.3050    2.9676 H   0  0  0  0  0  0  0  0  0  0  0  0
  1 27  1  0  0  0  0
  1 28  1  0  0  0  0
  1 29  1  0  0  0  0
  2  1  1  0  0  0  0
  3  2  1  0  0  0  0
  4  3  2  0  0  0  0
  5  4  1  0  0  0  0
  6  5  1  0  0  0  0
  6 30  1  0  0  0  0
  6 31  1  0  0  0  0
  6 32  1  0  0  0  0
  7  4  1  0  0  0  0
  8  7  2  0  0  0  0
  8 33  1  0  0  0  0
  9  8  1  0  0  0  0
 10  9  1  0  0  0  0
 10 34  1  0  0  0  0
 10 35  1  0  0  0  0
 10 36  1  0  0  0  0
 11  9  2  0  0  0  0
 12 11  1  0  0  0  0
 13 12  2  0  0  0  0
 13 37  1  0  0  0  0
 14 13  1  0  0  0  0
 15 14  2  0  0  0  0
 16 15  1  0  0  0  0
 17 16  1  0  0  0  0
 17 38  1  0  0  0  0
 17 39  1  0  0  0  0
 18 17  1  0  0  0  0
 18 14  1  0  0  0  0
 19 15  1  0  0  0  0
 19 40  1  0  0  0  0
 20 19  2  0  0  0  0
 20 12  1  0  0  0  0
 21 20  1  0  0  0  0
 21 41  1  0  0  0  0
 22 21  2  0  0  0  0
 22 42  1  0  0  0  0
 23 22  1  0  0  0  0
 23 11  1  0  0  0  0
 24 23  2  0  0  0  0
 24  7  1  0  0  0  0
 25 24  1  0  0  0  0
 25 43  1  0  0  0  0
 26 25  2  0  0  0  0
 26  3  1  0  0  0  0
 26 44  1  0  0  0  0
M  CHG  1   9   1
M  END
>  <MOL Chiral Flag>
0

>  <energy>
128.7899840105764

$$$$
> 441_AKC_jac/dkt210
>426.sdf
 OpenBabel10062213353D

 37 36  0  0  0  0  0  0  0  0999 V2000
    4.5191   -1.3726   -2.6050 N   0  3  0  0  0  0  0  0  0  0  0  0
    3.9704   -0.0844   -2.1658 C   0  0  1  0  0  0  0  0  0  0  0  0
    2.5523   -0.2748   -1.5827 C   0  0  0  0  0  0  0  0  0  0  0  0
    1.8883    1.0640   -1.2232 C   0  0  0  0  0  0  0  0  0  0  0  0
    0.5319    0.8497   -0.6019 C   0  0  0  0  0  0  0  0  0  0  0  0
    0.4533    0.2429    0.4580 O   0  0  0  0  0  0  0  0  0  0  0  0
   -0.5906    1.3485   -1.1961 N   0  0  0  0  0  0  0  0  0  0  0  0
   -1.9148    1.2084   -0.5905 C   0  0  1  0  0  0  0  0  0  0  0  0
   -2.9655    2.0028   -1.3920 C   0  0  0  0  0  0  0  0  0  0  0  0
   -2.5455    3.7797   -1.4177 S   0  0  0  0  0  0  0  0  0  0  0  0
   -4.0393    4.2155   -2.2199 N   0  0  0  0  0  0  0  0  0  0  0  0
   -4.9485    4.6589   -1.5878 O   0  0  0  0  0  0  0  0  0  0  0  0
   -2.3389   -0.2508   -0.4949 C   0  0  0  0  0  0  0  0  0  0  0  0
   -1.6545   -1.1207   -1.0169 O   0  0  0  0  0  0  0  0  0  0  0  0
   -3.4726   -0.5824    0.1884 N   0  0  0  0  0  0  0  0  0  0  0  0
   -3.9353   -1.9517    0.3397 C   0  0  0  0  0  0  0  0  0  0  0  0
   -5.3192   -2.0907   -0.2207 C   0  0  0  0  0  0  0  0  0  0  0  0
   -5.5598   -2.9632   -1.2178 O   0  5  0  0  0  0  0  0  0  0  0  0
   -6.2346   -1.4219    0.2324 O   0  0  0  0  0  0  0  0  0  0  0  0
    4.8943    0.5411   -1.1452 C   0  0  0  0  0  0  0  0  0  0  0  0
    5.1453   -0.0897    0.0190 O   0  5  0  0  0  0  0  0  0  0  0  0
    5.4164    1.6211   -1.3712 O   0  0  0  0  0  0  0  0  0  0  0  0
    3.9080   -1.7839   -3.3478 H   0  0  0  0  0  0  0  0  0  0  0  0
    4.5820   -2.0432   -1.8043 H   0  0  0  0  0  0  0  0  0  0  0  0
    5.4736   -1.2313   -3.0101 H   0  0  0  0  0  0  0  0  0  0  0  0
    3.8987    0.5849   -3.0541 H   0  0  0  0  0  0  0  0  0  0  0  0
    2.6109   -0.9264   -0.6828 H   0  0  0  0  0  0  0  0  0  0  0  0
    1.9135   -0.7839   -2.3382 H   0  0  0  0  0  0  0  0  0  0  0  0
    1.8050    1.6805   -2.1445 H   0  0  0  0  0  0  0  0  0  0  0  0
    2.5104    1.6205   -0.4904 H   0  0  0  0  0  0  0  0  0  0  0  0
   -0.4934    1.8708   -2.0806 H   0  0  0  0  0  0  0  0  0  0  0  0
   -1.8707    1.6289    0.4389 H   0  0  0  0  0  0  0  0  0  0  0  0
   -3.9573    1.8953   -0.9044 H   0  0  0  0  0  0  0  0  0  0  0  0
   -3.0091    1.6147   -2.4330 H   0  0  0  0  0  0  0  0  0  0  0  0
   -4.0209    0.1650    0.6404 H   0  0  0  0  0  0  0  0  0  0  0  0
   -3.9556   -2.2091    1.4201 H   0  0  0  0  0  0  0  0  0  0  0  0
   -3.2633   -2.6760   -0.1687 H   0  0  0  0  0  0  0  0  0  0  0  0
  1 23  1  0  0  0  0
  1 24  1  0  0  0  0
  1 25  1  0  0  0  0
  2  1  1  0  0  0  0
  2 26  1  6  0  0  0
  3  2  1  0  0  0  0
  3 27  1  0  0  0  0
  3 28  1  0  0  0  0
  4  3  1  0  0  0  0
  4 29  1  0  0  0  0
  4 30  1  0  0  0  0
  5  4  1  0  0  0  0
  6  5  2  0  0  0  0
  7  5  1  0  0  0  0
  7 31  1  0  0  0  0
  8  7  1  0  0  0  0
  8 32  1  1  0  0  0
  9  8  1  0  0  0  0
  9 33  1  0  0  0  0
  9 34  1  0  0  0  0
 10  9  1  0  0  0  0
 11 10  1  0  0  0  0
 12 11  2  0  0  0  0
 13  8  1  0  0  0  0
 14 13  2  0  0  0  0
 15 13  1  0  0  0  0
 15 35  1  0  0  0  0
 16 15  1  0  0  0  0
 16 36  1  0  0  0  0
 16 37  1  0  0  0  0
 17 16  1  0  0  0  0
 18 17  1  0  0  0  0
 19 17  2  0  0  0  0
 20  2  1  0  0  0  0
 21 20  1  0  0  0  0
 22 20  2  0  0  0  0
M  CHG  3   1   1  18  -1  21  -1
M  END
>  <MOL Chiral Flag>
0

>  <energy>
33.921898888840289

$$$$
> 442_AKC_j.exppara.2014.06.004
>427.sdf
 OpenBabel10062213363D

 41 44  0  0  0  0  0  0  0  0999 V2000
   -3.0399   -1.1093    0.7620 C   0  0  0  0  0  0  0  0  0  0  0  0
   -2.9989    0.0899   -0.0926 N   0  3  1  0  0  0  0  0  0  0  0  0
   -2.5807    1.2948    0.6872 C   0  0  0  0  0  0  0  0  0  0  0  0
   -1.6273    2.1971   -0.1058 C   0  0  0  0  0  0  0  0  0  0  0  0
   -0.4733    1.3903   -0.4744 N   0  0  0  0  0  0  0  0  0  0  0  0
   -0.6746    0.1021   -1.1434 C   0  0  2  0  0  0  0  0  0  0  0  0
   -2.2036   -0.1350   -1.3305 C   0  0  0  0  0  0  0  0  0  0  0  0
    0.0378   -1.1191   -0.5299 C   0  0  0  0  0  0  0  0  0  0  0  0
   -0.0740   -2.3304   -1.2528 C   0  0  0  0  0  0  0  0  0  0  0  0
    0.5535   -3.4968   -0.8234 C   0  0  0  0  0  0  0  0  0  0  0  0
    1.3201   -3.4905    0.3320 C   0  0  0  0  0  0  0  0  0  0  0  0
    1.4661   -2.3170    1.0637 C   0  0  0  0  0  0  0  0  0  0  0  0
    0.8385   -1.1197    0.6575 C   0  0  0  0  0  0  0  0  0  0  0  0
    1.0624    0.0956    1.5197 C   0  0  0  0  0  0  0  0  0  0  0  0
    1.6285    1.2495    0.7483 C   0  0  0  0  0  0  0  0  0  0  0  0
    2.9088    1.7541    1.0319 C   0  0  0  0  0  0  0  0  0  0  0  0
    3.3850    2.8796    0.3524 C   0  0  0  0  0  0  0  0  0  0  0  0
    2.5801    3.5171   -0.5956 C   0  0  0  0  0  0  0  0  0  0  0  0
    1.3019    3.0250   -0.8718 C   0  0  0  0  0  0  0  0  0  0  0  0
    0.8314    1.8791   -0.2134 C   0  0  0  0  0  0  0  0  0  0  0  0
   -2.0356   -1.3564    1.1633 H   0  0  0  0  0  0  0  0  0  0  0  0
   -3.4227   -1.9839    0.1914 H   0  0  0  0  0  0  0  0  0  0  0  0
   -3.7271   -0.9443    1.6211 H   0  0  0  0  0  0  0  0  0  0  0  0
   -3.9840    0.2478   -0.4155 H   0  0  0  0  0  0  0  0  0  0  0  0
   -2.0433    1.0030    1.6154 H   0  0  0  0  0  0  0  0  0  0  0  0
   -3.4752    1.8719    1.0114 H   0  0  0  0  0  0  0  0  0  0  0  0
   -1.3279    3.0849    0.4944 H   0  0  0  0  0  0  0  0  0  0  0  0
   -2.1427    2.5672   -1.0176 H   0  0  0  0  0  0  0  0  0  0  0  0
   -0.2318    0.1882   -2.1612 H   0  0  0  0  0  0  0  0  0  0  0  0
   -2.4523   -1.1056   -1.8089 H   0  0  0  0  0  0  0  0  0  0  0  0
   -2.5376    0.6182   -2.0804 H   0  0  0  0  0  0  0  0  0  0  0  0
   -0.6468   -2.3710   -2.1696 H   0  0  0  0  0  0  0  0  0  0  0  0
    0.4490   -4.4092   -1.3964 H   0  0  0  0  0  0  0  0  0  0  0  0
    1.8097   -4.3980    0.6611 H   0  0  0  0  0  0  0  0  0  0  0  0
    2.0755   -2.3426    1.9589 H   0  0  0  0  0  0  0  0  0  0  0  0
    1.7444   -0.1545    2.3622 H   0  0  0  0  0  0  0  0  0  0  0  0
    0.1087    0.4079    1.9873 H   0  0  0  0  0  0  0  0  0  0  0  0
    3.5319    1.2833    1.7821 H   0  0  0  0  0  0  0  0  0  0  0  0
    4.3719    3.2662    0.5711 H   0  0  0  0  0  0  0  0  0  0  0  0
    2.9449    4.3955   -1.1121 H   0  0  0  0  0  0  0  0  0  0  0  0
    0.6795    3.5257   -1.6029 H   0  0  0  0  0  0  0  0  0  0  0  0
  1 21  1  0  0  0  0
  1 22  1  0  0  0  0
  1 23  1  0  0  0  0
  2  1  1  0  0  0  0
  2 24  1  6  0  0  0
  3  2  1  0  0  0  0
  3 25  1  0  0  0  0
  3 26  1  0  0  0  0
  4  3  1  0  0  0  0
  4 27  1  0  0  0  0
  4 28  1  0  0  0  0
  5  4  1  0  0  0  0
  6  5  1  0  0  0  0
  6 29  1  6  0  0  0
  7  6  1  0  0  0  0
  7  2  1  0  0  0  0
  7 30  1  0  0  0  0
  7 31  1  0  0  0  0
  8  6  1  0  0  0  0
  9  8  2  0  0  0  0
  9 32  1  0  0  0  0
 10  9  1  0  0  0  0
 10 33  1  0  0  0  0
 11 10  2  0  0  0  0
 11 34  1  0  0  0  0
 12 11  1  0  0  0  0
 12 35  1  0  0  0  0
 13 12  2  0  0  0  0
 13  8  1  0  0  0  0
 14 13  1  0  0  0  0
 14 36  1  0  0  0  0
 14 37  1  0  0  0  0
 15 14  1  0  0  0  0
 16 15  2  0  0  0  0
 16 38  1  0  0  0  0
 17 16  1  0  0  0  0
 17 39  1  0  0  0  0
 18 17  2  0  0  0  0
 18 40  1  0  0  0  0
 19 18  1  0  0  0  0
 19 41  1  0  0  0  0
 20 19  2  0  0  0  0
 20  5  1  0  0  0  0
 20 15  1  0  0  0  0
M  CHG  1   2   1
M  END
>  <MOL Chiral Flag>
0

>  <energy>
164.10150796072054

$$$$
> 443_AKC_s00436-014-3868-y
>428.sdf
 OpenBabel10062213383D

 52 55  0  0  0  0  0  0  0  0999 V2000
    5.8481   -4.9295   -2.5100 F   0  0  0  0  0  0  0  0  0  0  0  0
    5.1192   -3.8080   -2.2882 C   0  0  0  0  0  0  0  0  0  0  0  0
    5.6785   -2.5528   -2.5303 C   0  0  0  0  0  0  0  0  0  0  0  0
    4.9303   -1.3948   -2.3011 C   0  0  0  0  0  0  0  0  0  0  0  0
    3.6019   -1.4787   -1.8350 C   0  0  0  0  0  0  0  0  0  0  0  0
    3.0520   -2.7554   -1.5881 C   0  0  0  0  0  0  0  0  0  0  0  0
    3.8105   -3.9083   -1.8134 C   0  0  0  0  0  0  0  0  0  0  0  0
    2.8250   -0.2224   -1.5964 C   0  0  0  0  0  0  0  0  0  0  0  0
    3.4162    0.8491   -1.6194 O   0  0  0  0  0  0  0  0  0  0  0  0
    1.3373   -0.2256   -1.2773 C   0  0  1  0  0  0  0  0  0  0  0  0
    1.1272   -0.1876    0.2374 C   0  0  0  0  0  0  0  0  0  0  0  0
   -0.3734   -0.1493    0.5604 C   0  0  0  0  0  0  0  0  0  0  0  0
   -1.0090    1.0532   -0.0389 N   0  3  2  0  0  0  0  0  0  0  0  0
   -2.4469    1.2440    0.3130 C   0  0  0  0  0  0  0  0  0  0  0  0
   -2.7465    0.9835    1.8108 C   0  0  0  0  0  0  0  0  0  0  0  0
   -4.0996    1.2796    2.3609 N   0  0  0  0  0  0  0  0  0  0  0  0
   -5.1012    1.9748    1.6869 C   0  0  0  0  0  0  0  0  0  0  0  0
   -4.9274    2.3909    0.5573 O   0  0  0  0  0  0  0  0  0  0  0  0
   -6.3080    2.2184    2.2982 N   0  0  0  0  0  0  0  0  0  0  0  0
   -6.5706    1.7750    3.5548 C   0  0  0  0  0  0  0  0  0  0  0  0
   -7.8164    2.0280    4.1545 C   0  0  0  0  0  0  0  0  0  0  0  0
   -8.0873    1.5536    5.4414 C   0  0  0  0  0  0  0  0  0  0  0  0
   -7.1205    0.8264    6.1380 C   0  0  0  0  0  0  0  0  0  0  0  0
   -5.8761    0.5786    5.5557 C   0  0  0  0  0  0  0  0  0  0  0  0
   -5.5925    1.0549    4.2595 C   0  0  0  0  0  0  0  0  0  0  0  0
   -4.3514    0.8262    3.6489 C   0  0  0  0  0  0  0  0  0  0  0  0
   -3.4887    0.2100    4.2595 O   0  0  0  0  0  0  0  0  0  0  0  0
   -0.8607    1.0103   -1.5158 C   0  0  0  0  0  0  0  0  0  0  0  0
    0.6219    0.9774   -1.9246 C   0  0  0  0  0  0  0  0  0  0  0  0
    6.6943   -2.4747   -2.8960 H   0  0  0  0  0  0  0  0  0  0  0  0
    5.3869   -0.4323   -2.4957 H   0  0  0  0  0  0  0  0  0  0  0  0
    2.0491   -2.8747   -1.2082 H   0  0  0  0  0  0  0  0  0  0  0  0
    3.3810   -4.8822   -1.6166 H   0  0  0  0  0  0  0  0  0  0  0  0
    0.8578   -1.1441   -1.6741 H   0  0  0  0  0  0  0  0  0  0  0  0
    1.5844   -1.0847    0.7091 H   0  0  0  0  0  0  0  0  0  0  0  0
    1.6139    0.7173    0.6663 H   0  0  0  0  0  0  0  0  0  0  0  0
   -0.4258   -0.1217    1.6683 H   0  0  0  0  0  0  0  0  0  0  0  0
   -0.8736   -1.0772    0.2005 H   0  0  0  0  0  0  0  0  0  0  0  0
   -0.4985    1.8933    0.3272 H   0  0  0  0  0  0  0  0  0  0  0  0
   -3.1001    0.5671   -0.2842 H   0  0  0  0  0  0  0  0  0  0  0  0
   -2.6877    2.2972    0.0556 H   0  0  0  0  0  0  0  0  0  0  0  0
   -2.0056    1.5429    2.4231 H   0  0  0  0  0  0  0  0  0  0  0  0
   -2.5861   -0.1076    1.9480 H   0  0  0  0  0  0  0  0  0  0  0  0
   -7.0400    2.7553    1.7768 H   0  0  0  0  0  0  0  0  0  0  0  0
   -8.5763    2.5883    3.6242 H   0  0  0  0  0  0  0  0  0  0  0  0
   -9.0490    1.7468    5.8984 H   0  0  0  0  0  0  0  0  0  0  0  0
   -7.3343    0.4544    7.1319 H   0  0  0  0  0  0  0  0  0  0  0  0
   -5.1396    0.0130    6.1138 H   0  0  0  0  0  0  0  0  0  0  0  0
   -1.3286    1.9063   -1.9817 H   0  0  0  0  0  0  0  0  0  0  0  0
   -1.3709    0.1077   -1.9263 H   0  0  0  0  0  0  0  0  0  0  0  0
    0.7083    0.9208   -3.0318 H   0  0  0  0  0  0  0  0  0  0  0  0
    1.0914    1.9268   -1.5845 H   0  0  0  0  0  0  0  0  0  0  0  0
  2  1  1  0  0  0  0
  3  2  2  0  0  0  0
  3 30  1  0  0  0  0
  4  3  1  0  0  0  0
  4 31  1  0  0  0  0
  5  4  2  0  0  0  0
  6  5  1  0  0  0  0
  6 32  1  0  0  0  0
  7  6  2  0  0  0  0
  7  2  1  0  0  0  0
  7 33  1  0  0  0  0
  8  5  1  0  0  0  0
  9  8  2  0  0  0  0
 10  8  1  0  0  0  0
 10 34  1  6  0  0  0
 11 10  1  0  0  0  0
 11 35  1  0  0  0  0
 11 36  1  0  0  0  0
 12 11  1  0  0  0  0
 12 37  1  0  0  0  0
 12 38  1  0  0  0  0
 13 12  1  0  0  0  0
 13 39  1  1  0  0  0
 14 13  1  0  0  0  0
 14 40  1  0  0  0  0
 14 41  1  0  0  0  0
 15 14  1  0  0  0  0
 15 42  1  0  0  0  0
 15 43  1  0  0  0  0
 16 15  1  0  0  0  0
 17 16  1  0  0  0  0
 18 17  2  0  0  0  0
 19 17  1  0  0  0  0
 19 44  1  0  0  0  0
 20 19  1  0  0  0  0
 21 20  2  0  0  0  0
 21 45  1  0  0  0  0
 22 21  1  0  0  0  0
 22 46  1  0  0  0  0
 23 22  2  0  0  0  0
 23 47  1  0  0  0  0
 24 23  1  0  0  0  0
 24 48  1  0  0  0  0
 25 24  2  0  0  0  0
 25 20  1  0  0  0  0
 26 25  1  0  0  0  0
 26 16  1  0  0  0  0
 27 26  2  0  0  0  0
 28 13  1  0  0  0  0
 28 49  1  0  0  0  0
 28 50  1  0  0  0  0
 29 28  1  0  0  0  0
 29 10  1  0  0  0  0
 29 51  1  0  0  0  0
 29 52  1  0  0  0  0
M  CHG  1  13   1
M  END
>  <MOL Chiral Flag>
0

>  <energy>
5.4297175291200546

$$$$
> 444_AKC_1570180811666140423203826
>429.sdf
 OpenBabel10062213393D

 47 49  0  0  0  0  0  0  0  0999 V2000
   -6.6202    0.9933    3.2384 C   0  0  0  0  0  0  0  0  0  0  0  0
   -5.4511    0.9932    2.5006 O   0  0  0  0  0  0  0  0  0  0  0  0
   -4.1965    1.0958    3.0189 C   0  0  0  0  0  0  0  0  0  0  0  0
   -4.0322    1.2793    4.2180 O   0  0  0  0  0  0  0  0  0  0  0  0
   -3.0218    0.9295    2.1262 C   0  0  0  0  0  0  0  0  0  0  0  0
   -3.2104    0.7187    0.7532 C   0  0  0  0  0  0  0  0  0  0  0  0
   -2.1175    0.5073   -0.0869 C   0  0  0  0  0  0  0  0  0  0  0  0
   -0.8027    0.5037    0.4222 C   0  0  0  0  0  0  0  0  0  0  0  0
   -0.6156    0.7249    1.8006 C   0  0  0  0  0  0  0  0  0  0  0  0
   -1.7140    0.9414    2.6416 C   0  0  0  0  0  0  0  0  0  0  0  0
    0.3563    0.1684   -0.5113 C   0  0  2  0  0  0  0  0  0  0  0  0
    1.0693   -0.9415    0.0273 O   0  0  0  0  0  0  0  0  0  0  0  0
    1.9998   -1.5165   -0.8891 C   0  0  0  0  0  0  0  0  0  0  0  0
    2.7223   -2.6738   -0.1508 C   0  0  0  0  0  0  0  0  0  0  0  0
    1.2809   -2.2191   -2.0830 C   0  0  0  0  0  0  0  0  0  0  0  0
    3.0191   -0.4157   -1.3697 C   0  0  1  0  0  0  0  0  0  0  0  0
    2.2217    0.7428   -2.0519 C   0  0  0  0  0  0  0  0  0  0  0  0
    1.2905    1.3454   -0.9645 C   0  0  2  0  0  0  0  0  0  0  0  0
    2.1602    2.0373    0.1564 C   0  0  2  0  0  0  0  0  0  0  0  0
    2.0472    3.5692    0.0787 C   0  0  0  0  0  0  0  0  0  0  0  0
    3.6108    1.5997    0.0407 C   0  0  0  0  0  0  0  0  0  0  0  0
    4.5212    2.4124   -0.0467 O   0  0  0  0  0  0  0  0  0  0  0  0
    3.8838    0.1470   -0.1795 C   0  0  0  0  0  0  0  0  0  0  0  0
   -6.4421    1.0745    4.3317 H   0  0  0  0  0  0  0  0  0  0  0  0
   -7.2565    1.8419    2.9147 H   0  0  0  0  0  0  0  0  0  0  0  0
   -7.1668    0.0466    3.0448 H   0  0  0  0  0  0  0  0  0  0  0  0
   -4.2068    0.6985    0.3298 H   0  0  0  0  0  0  0  0  0  0  0  0
   -2.3023    0.3263   -1.1386 H   0  0  0  0  0  0  0  0  0  0  0  0
    0.3650    0.6888    2.2449 H   0  0  0  0  0  0  0  0  0  0  0  0
   -1.5432    1.0890    3.7008 H   0  0  0  0  0  0  0  0  0  0  0  0
   -0.1532   -0.1425   -1.4433 H   0  0  0  0  0  0  0  0  0  0  0  0
    3.2269   -2.3708    0.7837 H   0  0  0  0  0  0  0  0  0  0  0  0
    3.4787   -3.1511   -0.8101 H   0  0  0  0  0  0  0  0  0  0  0  0
    1.9864   -3.4492    0.1557 H   0  0  0  0  0  0  0  0  0  0  0  0
    2.0240   -2.7321   -2.7303 H   0  0  0  0  0  0  0  0  0  0  0  0
    0.5649   -2.9802   -1.7033 H   0  0  0  0  0  0  0  0  0  0  0  0
    0.7051   -1.5565   -2.7512 H   0  0  0  0  0  0  0  0  0  0  0  0
    3.7079   -0.8718   -2.1149 H   0  0  0  0  0  0  0  0  0  0  0  0
    2.9074    1.5187   -2.4595 H   0  0  0  0  0  0  0  0  0  0  0  0
    1.6386    0.3824   -2.9215 H   0  0  0  0  0  0  0  0  0  0  0  0
    0.6272    2.1075   -1.4322 H   0  0  0  0  0  0  0  0  0  0  0  0
    1.7978    1.7490    1.1500 H   0  0  0  0  0  0  0  0  0  0  0  0
    2.6463    4.0430    0.8863 H   0  0  0  0  0  0  0  0  0  0  0  0
    0.9894    3.8810    0.2091 H   0  0  0  0  0  0  0  0  0  0  0  0
    2.4117    3.9386   -0.9045 H   0  0  0  0  0  0  0  0  0  0  0  0
    3.6451   -0.3299    0.7857 H   0  0  0  0  0  0  0  0  0  0  0  0
    4.9656   -0.0133   -0.3833 H   0  0  0  0  0  0  0  0  0  0  0  0
  1 24  1  0  0  0  0
  1 25  1  0  0  0  0
  1 26  1  0  0  0  0
  2  1  1  0  0  0  0
  3  2  1  0  0  0  0
  4  3  2  0  0  0  0
  5  3  1  0  0  0  0
  6  5  2  0  0  0  0
  6 27  1  0  0  0  0
  7  6  1  0  0  0  0
  7 28  1  0  0  0  0
  8  7  2  0  0  0  0
  9  8  1  0  0  0  0
  9 29  1  0  0  0  0
 10  9  2  0  0  0  0
 10  5  1  0  0  0  0
 10 30  1  0  0  0  0
 11  8  1  0  0  0  0
 11 31  1  6  0  0  0
 12 11  1  0  0  0  0
 13 12  1  0  0  0  0
 14 13  1  0  0  0  0
 14 32  1  0  0  0  0
 14 33  1  0  0  0  0
 14 34  1  0  0  0  0
 15 13  1  0  0  0  0
 15 35  1  0  0  0  0
 15 36  1  0  0  0  0
 15 37  1  0  0  0  0
 16 13  1  0  0  0  0
 16 38  1  6  0  0  0
 17 16  1  0  0  0  0
 17 39  1  0  0  0  0
 17 40  1  0  0  0  0
 18 17  1  0  0  0  0
 18 11  1  0  0  0  0
 18 41  1  6  0  0  0
 19 18  1  0  0  0  0
 19 42  1  1  0  0  0
 20 19  1  0  0  0  0
 20 43  1  0  0  0  0
 20 44  1  0  0  0  0
 20 45  1  0  0  0  0
 21 19  1  0  0  0  0
 22 21  2  0  0  0  0
 23 21  1  0  0  0  0
 23 16  1  0  0  0  0
 23 46  1  0  0  0  0
 23 47  1  0  0  0  0
M  END
>  <MOL Chiral Flag>
0

>  <energy>
84.556973901855812

$$$$
> 445_AKC_AAC.02481-13
>430.sdf
 OpenBabel10062213403D

 78 83  0  0  0  0  0  0  0  0999 V2000
    1.0868    8.8842    0.0975 C   0  0  0  0  0  0  0  0  0  0  0  0
   -0.3255    8.8807    0.4728 N   0  0  0  0  0  0  0  0  0  0  0  0
   -1.1419    9.9591   -0.0044 C   0  0  0  0  0  0  0  0  0  0  0  0
   -2.3803    9.7043   -0.6278 C   0  0  0  0  0  0  0  0  0  0  0  0
   -3.1051   10.7516   -1.2113 C   0  0  0  0  0  0  0  0  0  0  0  0
   -2.6162   12.0613   -1.1597 C   0  0  0  0  0  0  0  0  0  0  0  0
   -3.5855   13.4843   -1.9871 Br  0  0  0  0  0  0  0  0  0  0  0  0
   -1.4046   12.3275   -0.5194 C   0  0  0  0  0  0  0  0  0  0  0  0
   -0.6678   11.2857    0.0445 C   0  0  0  0  0  0  0  0  0  0  0  0
   -0.8539    7.7645    1.2283 C   0  0  0  0  0  0  0  0  0  0  0  0
   -2.0792    7.8550    1.9286 C   0  0  0  0  0  0  0  0  0  0  0  0
   -2.5419    6.7572    2.6764 C   0  0  0  0  0  0  0  0  0  0  0  0
   -1.8281    5.5946    2.7188 N   0  3  0  0  0  0  0  0  0  0  0  0
   -2.3319    4.4033    3.4280 C   0  0  0  0  0  0  0  0  0  0  0  0
   -2.6498    3.2903    2.4415 C   0  0  0  0  0  0  0  0  0  0  0  0
   -2.8484    3.5804    1.0833 C   0  0  0  0  0  0  0  0  0  0  0  0
   -3.1011    2.5742    0.1670 C   0  0  0  0  0  0  0  0  0  0  0  0
   -3.1681    1.2228    0.5638 C   0  0  0  0  0  0  0  0  0  0  0  0
   -2.9990    0.9309    1.9410 C   0  0  0  0  0  0  0  0  0  0  0  0
   -2.7450    1.9571    2.8671 C   0  0  0  0  0  0  0  0  0  0  0  0
   -3.4163    0.1437   -0.4650 C   0  0  0  0  0  0  0  0  0  0  0  0
   -3.2632    0.4168   -1.8460 C   0  0  0  0  0  0  0  0  0  0  0  0
   -3.5134   -0.5579   -2.8050 C   0  0  0  0  0  0  0  0  0  0  0  0
   -3.9162   -1.8396   -2.4323 C   0  0  0  0  0  0  0  0  0  0  0  0
   -4.2204   -2.8328   -3.5313 C   0  0  0  0  0  0  0  0  0  0  0  0
   -4.5238   -4.1812   -3.0363 N   0  3  0  0  0  0  0  0  0  0  0  0
   -3.5032   -4.9722   -2.5875 C   0  0  0  0  0  0  0  0  0  0  0  0
   -3.7508   -6.2760   -2.1630 C   0  0  0  0  0  0  0  0  0  0  0  0
   -5.0619   -6.7702   -2.1568 C   0  0  0  0  0  0  0  0  0  0  0  0
   -6.1014   -5.9343   -2.5924 C   0  0  0  0  0  0  0  0  0  0  0  0
   -5.8093   -4.6472   -3.0515 C   0  0  0  0  0  0  0  0  0  0  0  0
   -5.3374   -8.1163   -1.7518 N   0  0  0  0  0  0  0  0  0  0  0  0
   -4.4440   -9.1908   -2.1622 C   0  0  0  0  0  0  0  0  0  0  0  0
   -6.4105   -8.4077   -0.8458 C   0  0  0  0  0  0  0  0  0  0  0  0
   -6.7007   -7.5185    0.2081 C   0  0  0  0  0  0  0  0  0  0  0  0
   -7.6709   -7.8417    1.1610 C   0  0  0  0  0  0  0  0  0  0  0  0
   -8.3835   -9.0389    1.0590 C   0  0  0  0  0  0  0  0  0  0  0  0
   -9.6949   -9.4866    2.3733 Br  0  0  0  0  0  0  0  0  0  0  0  0
   -8.1253   -9.9161    0.0030 C   0  0  0  0  0  0  0  0  0  0  0  0
   -7.1361   -9.6131   -0.9369 C   0  0  0  0  0  0  0  0  0  0  0  0
   -4.0581   -2.1397   -1.0646 C   0  0  0  0  0  0  0  0  0  0  0  0
   -3.8103   -1.1616   -0.0926 C   0  0  0  0  0  0  0  0  0  0  0  0
   -0.6314    5.4955    2.0625 C   0  0  0  0  0  0  0  0  0  0  0  0
   -0.1319    6.5623    1.3290 C   0  0  0  0  0  0  0  0  0  0  0  0
    1.3655    9.7745   -0.5029 H   0  0  0  0  0  0  0  0  0  0  0  0
    1.3049    8.0182   -0.5610 H   0  0  0  0  0  0  0  0  0  0  0  0
    1.7235    8.8526    1.0048 H   0  0  0  0  0  0  0  0  0  0  0  0
   -2.7552    8.6922   -0.7102 H   0  0  0  0  0  0  0  0  0  0  0  0
   -4.0361   10.5436   -1.7231 H   0  0  0  0  0  0  0  0  0  0  0  0
   -1.0223   13.3395   -0.4760 H   0  0  0  0  0  0  0  0  0  0  0  0
    0.2784   11.5108    0.5206 H   0  0  0  0  0  0  0  0  0  0  0  0
   -2.6643    8.7632    1.9137 H   0  0  0  0  0  0  0  0  0  0  0  0
   -3.4864    6.8378    3.2043 H   0  0  0  0  0  0  0  0  0  0  0  0
   -1.5407    4.0689    4.1364 H   0  0  0  0  0  0  0  0  0  0  0  0
   -3.2448    4.6154    4.0264 H   0  0  0  0  0  0  0  0  0  0  0  0
   -2.8132    4.5966    0.7166 H   0  0  0  0  0  0  0  0  0  0  0  0
   -3.2533    2.8836   -0.8512 H   0  0  0  0  0  0  0  0  0  0  0  0
   -3.0348   -0.0817    2.3114 H   0  0  0  0  0  0  0  0  0  0  0  0
   -2.5986    1.7081    3.9114 H   0  0  0  0  0  0  0  0  0  0  0  0
   -2.9413    1.3763   -2.2103 H   0  0  0  0  0  0  0  0  0  0  0  0
   -3.3930   -0.3089   -3.8528 H   0  0  0  0  0  0  0  0  0  0  0  0
   -3.3680   -2.9006   -4.2443 H   0  0  0  0  0  0  0  0  0  0  0  0
   -5.0812   -2.4170   -4.1005 H   0  0  0  0  0  0  0  0  0  0  0  0
   -2.4857   -4.5991   -2.5783 H   0  0  0  0  0  0  0  0  0  0  0  0
   -2.9266   -6.8887   -1.8236 H   0  0  0  0  0  0  0  0  0  0  0  0
   -7.1236   -6.2911   -2.6174 H   0  0  0  0  0  0  0  0  0  0  0  0
   -6.6159   -4.0211   -3.4159 H   0  0  0  0  0  0  0  0  0  0  0  0
   -3.6483   -8.8322   -2.8476 H   0  0  0  0  0  0  0  0  0  0  0  0
   -3.9632   -9.6321   -1.2634 H   0  0  0  0  0  0  0  0  0  0  0  0
   -4.9962   -9.9774   -2.7122 H   0  0  0  0  0  0  0  0  0  0  0  0
   -6.1395   -6.5994    0.3205 H   0  0  0  0  0  0  0  0  0  0  0  0
   -7.8571   -7.1683    1.9878 H   0  0  0  0  0  0  0  0  0  0  0  0
   -8.6803  -10.8416   -0.0815 H   0  0  0  0  0  0  0  0  0  0  0  0
   -6.9498  -10.3154   -1.7360 H   0  0  0  0  0  0  0  0  0  0  0  0
   -4.3826   -3.1191   -0.7412 H   0  0  0  0  0  0  0  0  0  0  0  0
   -3.9571   -1.4334    0.9407 H   0  0  0  0  0  0  0  0  0  0  0  0
   -0.0652    4.5729    2.0969 H   0  0  0  0  0  0  0  0  0  0  0  0
    0.8143    6.4219    0.8294 H   0  0  0  0  0  0  0  0  0  0  0  0
  1 45  1  0  0  0  0
  1 46  1  0  0  0  0
  1 47  1  0  0  0  0
  2  1  1  0  0  0  0
  3  2  1  0  0  0  0
  4  3  2  0  0  0  0
  4 48  1  0  0  0  0
  5  4  1  0  0  0  0
  5 49  1  0  0  0  0
  6  5  2  0  0  0  0
  7  6  1  0  0  0  0
  8  6  1  0  0  0  0
  8 50  1  0  0  0  0
  9  8  2  0  0  0  0
  9  3  1  0  0  0  0
  9 51  1  0  0  0  0
 10  2  1  0  0  0  0
 11 10  2  0  0  0  0
 11 52  1  0  0  0  0
 12 11  1  0  0  0  0
 12 53  1  0  0  0  0
 13 12  2  0  0  0  0
 14 13  1  0  0  0  0
 14 54  1  0  0  0  0
 14 55  1  0  0  0  0
 15 14  1  0  0  0  0
 16 15  2  0  0  0  0
 16 56  1  0  0  0  0
 17 16  1  0  0  0  0
 17 57  1  0  0  0  0
 18 17  2  0  0  0  0
 19 18  1  0  0  0  0
 19 58  1  0  0  0  0
 20 19  2  0  0  0  0
 20 15  1  0  0  0  0
 20 59  1  0  0  0  0
 21 18  1  0  0  0  0
 22 21  2  0  0  0  0
 22 60  1  0  0  0  0
 23 22  1  0  0  0  0
 23 61  1  0  0  0  0
 24 23  2  0  0  0  0
 25 24  1  0  0  0  0
 25 62  1  0  0  0  0
 25 63  1  0  0  0  0
 26 25  1  0  0  0  0
 27 26  2  0  0  0  0
 27 64  1  0  0  0  0
 28 27  1  0  0  0  0
 28 65  1  0  0  0  0
 29 28  2  0  0  0  0
 30 29  1  0  0  0  0
 30 66  1  0  0  0  0
 31 30  2  0  0  0  0
 31 26  1  0  0  0  0
 31 67  1  0  0  0  0
 32 29  1  0  0  0  0
 33 32  1  0  0  0  0
 33 68  1  0  0  0  0
 33 69  1  0  0  0  0
 33 70  1  0  0  0  0
 34 32  1  0  0  0  0
 35 34  2  0  0  0  0
 35 71  1  0  0  0  0
 36 35  1  0  0  0  0
 36 72  1  0  0  0  0
 37 36  2  0  0  0  0
 38 37  1  0  0  0  0
 39 37  1  0  0  0  0
 39 73  1  0  0  0  0
 40 39  2  0  0  0  0
 40 34  1  0  0  0  0
 40 74  1  0  0  0  0
 41 24  1  0  0  0  0
 41 75  1  0  0  0  0
 42 41  2  0  0  0  0
 42 21  1  0  0  0  0
 42 76  1  0  0  0  0
 43 13  1  0  0  0  0
 43 77  1  0  0  0  0
 44 43  2  0  0  0  0
 44 10  1  0  0  0  0
 44 78  1  0  0  0  0
M  CHG  2  13   1  26   1
M  END
>  <MOL Chiral Flag>
0

>  <energy>
237.32466275685871

$$$$
> 446_AKC_j.fitote.2014.05.009
>431.sdf
 OpenBabel10062213403D

 67 69  0  0  0  0  0  0  0  0999 V2000
    6.0703    2.9077    1.8221 C   0  0  0  0  0  0  0  0  0  0  0  0
    4.8081    2.7251    1.2876 O   0  0  0  0  0  0  0  0  0  0  0  0
    4.5506    2.1646    0.0747 C   0  0  0  0  0  0  0  0  0  0  0  0
    5.4693    1.8047   -0.6498 O   0  0  0  0  0  0  0  0  0  0  0  0
    3.1454    1.9627   -0.3593 C   0  0  0  0  0  0  0  0  0  0  0  0
    2.0798    2.3760    0.4573 C   0  0  0  0  0  0  0  0  0  0  0  0
    0.7467    2.1630    0.0640 C   0  0  0  0  0  0  0  0  0  0  0  0
   -0.2537    2.5678    0.8723 O   0  0  0  0  0  0  0  0  0  0  0  0
    0.4752    1.5154   -1.1686 C   0  0  0  0  0  0  0  0  0  0  0  0
   -0.7799    1.2151   -1.6155 O   0  0  0  0  0  0  0  0  0  0  0  0
   -2.0179    1.4223   -1.0286 C   0  0  1  0  0  0  0  0  0  0  0  0
   -3.1521    1.1198   -2.0141 C   0  0  0  0  0  0  0  0  0  0  0  0
   -3.0543    0.6006   -3.2695 C   0  0  0  0  0  0  0  0  0  0  0  0
   -1.7483    0.2181   -3.9201 C   0  0  0  0  0  0  0  0  0  0  0  0
   -4.3134    0.3835   -4.0738 C   0  0  0  0  0  0  0  0  0  0  0  0
   -2.2552    0.6233    0.2745 C   0  0  0  0  0  0  0  0  0  0  0  0
   -3.3833    0.9501    1.0628 C   0  0  0  0  0  0  0  0  0  0  0  0
   -4.2061    1.9583    0.6579 O   0  0  0  0  0  0  0  0  0  0  0  0
   -5.3488    2.3803    1.3071 C   0  0  0  0  0  0  0  0  0  0  0  0
   -3.6346    0.2453    2.2492 C   0  0  0  0  0  0  0  0  0  0  0  0
   -2.7769   -0.7532    2.6985 C   0  0  0  0  0  0  0  0  0  0  0  0
   -3.0704   -1.3289    3.8883 O   0  0  0  0  0  0  0  0  0  0  0  0
   -1.6234   -1.0934    1.9420 C   0  0  0  0  0  0  0  0  0  0  0  0
   -0.6500   -2.1130    2.4649 C   0  0  0  0  0  0  0  0  0  0  0  0
   -1.0656   -3.1285    3.0023 O   0  0  0  0  0  0  0  0  0  0  0  0
    0.8118   -1.7412    2.6641 C   0  0  0  0  0  0  0  0  0  0  0  0
    1.8278   -2.8578    2.3519 C   0  0  0  0  0  0  0  0  0  0  0  0
    2.0774   -3.0912    0.8863 C   0  0  0  0  0  0  0  0  0  0  0  0
    2.6671   -2.0821    0.1016 C   0  0  0  0  0  0  0  0  0  0  0  0
    2.9196   -2.3042   -1.2549 C   0  0  0  0  0  0  0  0  0  0  0  0
    2.5913   -3.5310   -1.8365 C   0  0  0  0  0  0  0  0  0  0  0  0
    2.0122   -4.5402   -1.0621 C   0  0  0  0  0  0  0  0  0  0  0  0
    1.7576   -4.3246    0.2961 C   0  0  0  0  0  0  0  0  0  0  0  0
   -1.3883   -0.4185    0.7120 C   0  0  0  0  0  0  0  0  0  0  0  0
   -0.3706   -0.7997   -0.0806 O   0  0  0  0  0  0  0  0  0  0  0  0
    1.5465    1.1231   -1.9789 C   0  0  0  0  0  0  0  0  0  0  0  0
    2.8647    1.3438   -1.5855 C   0  0  0  0  0  0  0  0  0  0  0  0
    6.8811    2.5437    1.1552 H   0  0  0  0  0  0  0  0  0  0  0  0
    6.2307    3.9879    2.0154 H   0  0  0  0  0  0  0  0  0  0  0  0
    6.1381    2.3588    2.7841 H   0  0  0  0  0  0  0  0  0  0  0  0
    2.2806    2.8584    1.4059 H   0  0  0  0  0  0  0  0  0  0  0  0
   -0.0848    3.0021    1.7206 H   0  0  0  0  0  0  0  0  0  0  0  0
   -2.0812    2.5082   -0.8004 H   0  0  0  0  0  0  0  0  0  0  0  0
   -4.1515    1.3508   -1.6639 H   0  0  0  0  0  0  0  0  0  0  0  0
   -1.0983    1.1104   -4.0352 H   0  0  0  0  0  0  0  0  0  0  0  0
   -1.9205   -0.1945   -4.9369 H   0  0  0  0  0  0  0  0  0  0  0  0
   -1.2365   -0.5655   -3.3225 H   0  0  0  0  0  0  0  0  0  0  0  0
   -4.4074   -0.6922   -4.3316 H   0  0  0  0  0  0  0  0  0  0  0  0
   -5.2316    0.6880   -3.5270 H   0  0  0  0  0  0  0  0  0  0  0  0
   -4.2598    0.9764   -5.0110 H   0  0  0  0  0  0  0  0  0  0  0  0
   -6.0860    1.5512    1.3659 H   0  0  0  0  0  0  0  0  0  0  0  0
   -5.1008    2.7498    2.3248 H   0  0  0  0  0  0  0  0  0  0  0  0
   -5.8033    3.2130    0.7324 H   0  0  0  0  0  0  0  0  0  0  0  0
   -4.4938    0.4899    2.8593 H   0  0  0  0  0  0  0  0  0  0  0  0
   -2.5140   -1.9660    4.3486 H   0  0  0  0  0  0  0  0  0  0  0  0
    1.0810   -0.7815    2.1734 H   0  0  0  0  0  0  0  0  0  0  0  0
    0.9045   -1.5622    3.7576 H   0  0  0  0  0  0  0  0  0  0  0  0
    1.4960   -3.7891    2.8611 H   0  0  0  0  0  0  0  0  0  0  0  0
    2.8073   -2.5787    2.7984 H   0  0  0  0  0  0  0  0  0  0  0  0
    2.9305   -1.1285    0.5428 H   0  0  0  0  0  0  0  0  0  0  0  0
    3.3728   -1.5272   -1.8553 H   0  0  0  0  0  0  0  0  0  0  0  0
    2.7895   -3.7009   -2.8867 H   0  0  0  0  0  0  0  0  0  0  0  0
    1.7631   -5.4913   -1.5139 H   0  0  0  0  0  0  0  0  0  0  0  0
    1.3125   -5.1160    0.8859 H   0  0  0  0  0  0  0  0  0  0  0  0
    0.1341   -1.6009    0.0700 H   0  0  0  0  0  0  0  0  0  0  0  0
    1.3522    0.6267   -2.9217 H   0  0  0  0  0  0  0  0  0  0  0  0
    3.6668    1.0164   -2.2350 H   0  0  0  0  0  0  0  0  0  0  0  0
  1 38  1  0  0  0  0
  1 39  1  0  0  0  0
  1 40  1  0  0  0  0
  2  1  1  0  0  0  0
  3  2  1  0  0  0  0
  4  3  2  0  0  0  0
  5  3  1  0  0  0  0
  6  5  2  0  0  0  0
  6 41  1  0  0  0  0
  7  6  1  0  0  0  0
  8  7  1  0  0  0  0
  8 42  1  0  0  0  0
  9  7  2  0  0  0  0
 10  9  1  0  0  0  0
 11 10  1  0  0  0  0
 11 43  1  1  0  0  0
 12 11  1  0  0  0  0
 12 44  1  0  0  0  0
 13 12  2  0  0  0  0
 14 13  1  0  0  0  0
 14 45  1  0  0  0  0
 14 46  1  0  0  0  0
 14 47  1  0  0  0  0
 15 13  1  0  0  0  0
 15 48  1  0  0  0  0
 15 49  1  0  0  0  0
 15 50  1  0  0  0  0
 16 11  1  0  0  0  0
 17 16  2  0  0  0  0
 18 17  1  0  0  0  0
 19 18  1  0  0  0  0
 19 51  1  0  0  0  0
 19 52  1  0  0  0  0
 19 53  1  0  0  0  0
 20 17  1  0  0  0  0
 20 54  1  0  0  0  0
 21 20  2  0  0  0  0
 22 21  1  0  0  0  0
 22 55  1  0  0  0  0
 23 21  1  0  0  0  0
 24 23  1  0  0  0  0
 25 24  2  0  0  0  0
 26 24  1  0  0  0  0
 26 56  1  0  0  0  0
 26 57  1  0  0  0  0
 27 26  1  0  0  0  0
 27 58  1  0  0  0  0
 27 59  1  0  0  0  0
 28 27  1  0  0  0  0
 29 28  2  0  0  0  0
 29 60  1  0  0  0  0
 30 29  1  0  0  0  0
 30 61  1  0  0  0  0
 31 30  2  0  0  0  0
 31 62  1  0  0  0  0
 32 31  1  0  0  0  0
 32 63  1  0  0  0  0
 33 32  2  0  0  0  0
 33 28  1  0  0  0  0
 33 64  1  0  0  0  0
 34 23  2  0  0  0  0
 34 16  1  0  0  0  0
 35 34  1  0  0  0  0
 35 65  1  0  0  0  0
 36  9  1  0  0  0  0
 36 66  1  0  0  0  0
 37 36  2  0  0  0  0
 37  5  1  0  0  0  0
 37 67  1  0  0  0  0
M  END
>  <MOL Chiral Flag>
0

>  <energy>
130.43978495383391

$$$$
> 447_AKC_j.fitote.2014.05.009
>431_2.sdf
 OpenBabel10102215193D

 67 69  0  0  0  0  0  0  0  0999 V2000
    3.7914    4.8943   -2.2627 C   0  0  0  0  0  0  0  0  0  0  0  0
    3.9642    4.4028   -3.5419 O   0  0  0  0  0  0  0  0  0  0  0  0
    3.6709    3.1409   -3.9624 C   0  0  0  0  0  0  0  0  0  0  0  0
    4.4144    2.6291   -4.7859 O   0  0  0  0  0  0  0  0  0  0  0  0
    2.4644    2.3697   -3.5070 C   0  0  0  0  0  0  0  0  0  0  0  0
    1.4036    2.9724   -2.8082 C   0  0  0  0  0  0  0  0  0  0  0  0
    0.2763    2.2394   -2.4065 C   0  0  0  0  0  0  0  0  0  0  0  0
   -0.6747    2.9202   -1.7414 O   0  0  0  0  0  0  0  0  0  0  0  0
    0.1931    0.8462   -2.7198 C   0  0  0  0  0  0  0  0  0  0  0  0
   -0.8365   -0.0013   -2.4145 O   0  0  0  0  0  0  0  0  0  0  0  0
   -2.0671    0.0861   -1.7756 C   0  0  2  0  0  0  0  0  0  0  0  0
   -3.0189    0.9490   -2.6075 C   0  0  0  0  0  0  0  0  0  0  0  0
   -3.3324    0.6619   -3.8970 C   0  0  0  0  0  0  0  0  0  0  0  0
   -2.7719   -0.5432   -4.6155 C   0  0  0  0  0  0  0  0  0  0  0  0
   -4.2810    1.5564   -4.6546 C   0  0  0  0  0  0  0  0  0  0  0  0
   -1.8704    0.2533   -0.2453 C   0  0  0  0  0  0  0  0  0  0  0  0
   -2.5628    1.1966    0.5677 C   0  0  0  0  0  0  0  0  0  0  0  0
   -3.4611    2.0513    0.0148 O   0  0  0  0  0  0  0  0  0  0  0  0
   -4.1973    3.0103    0.6817 C   0  0  0  0  0  0  0  0  0  0  0  0
   -2.3273    1.2207    1.9546 C   0  0  0  0  0  0  0  0  0  0  0  0
   -1.4308    0.3483    2.5606 C   0  0  0  0  0  0  0  0  0  0  0  0
   -1.2447    0.4666    3.8962 O   0  0  0  0  0  0  0  0  0  0  0  0
   -0.7305   -0.6002    1.7810 C   0  0  0  0  0  0  0  0  0  0  0  0
    0.2426   -1.5289    2.4308 C   0  0  0  0  0  0  0  0  0  0  0  0
   -0.0973   -2.1446    3.4314 O   0  0  0  0  0  0  0  0  0  0  0  0
    1.6916   -1.5948    1.9615 C   0  0  0  0  0  0  0  0  0  0  0  0
    2.5371   -2.6384    2.7156 C   0  0  0  0  0  0  0  0  0  0  0  0
    2.0693   -4.0503    2.4371 C   0  0  0  0  0  0  0  0  0  0  0  0
    2.1072   -4.5652    1.1278 C   0  0  0  0  0  0  0  0  0  0  0  0
    1.6714   -5.8681    0.8699 C   0  0  0  0  0  0  0  0  0  0  0  0
    1.1978   -6.6676    1.9128 C   0  0  0  0  0  0  0  0  0  0  0  0
    1.1609   -6.1672    3.2172 C   0  0  0  0  0  0  0  0  0  0  0  0
    1.5961   -4.8640    3.4818 C   0  0  0  0  0  0  0  0  0  0  0  0
   -0.9745   -0.6563    0.3819 C   0  0  0  0  0  0  0  0  0  0  0  0
   -0.4081   -1.6207   -0.3823 O   0  0  0  0  0  0  0  0  0  0  0  0
    1.2551    0.2648   -3.4240 C   0  0  0  0  0  0  0  0  0  0  0  0
    2.3669    1.0062   -3.8155 C   0  0  0  0  0  0  0  0  0  0  0  0
    4.7613    5.2939   -1.9023 H   0  0  0  0  0  0  0  0  0  0  0  0
    3.0565    5.7257   -2.2782 H   0  0  0  0  0  0  0  0  0  0  0  0
    3.4768    4.1071   -1.5451 H   0  0  0  0  0  0  0  0  0  0  0  0
    1.4232    4.0259   -2.5806 H   0  0  0  0  0  0  0  0  0  0  0  0
   -1.4776    2.5428   -1.4002 H   0  0  0  0  0  0  0  0  0  0  0  0
   -2.5129   -0.9302   -1.8352 H   0  0  0  0  0  0  0  0  0  0  0  0
   -3.4793    1.8231   -2.1879 H   0  0  0  0  0  0  0  0  0  0  0  0
   -1.6680   -0.4794   -4.6914 H   0  0  0  0  0  0  0  0  0  0  0  0
   -3.1709   -0.6040   -5.6502 H   0  0  0  0  0  0  0  0  0  0  0  0
   -3.0586   -1.4752   -4.0855 H   0  0  0  0  0  0  0  0  0  0  0  0
   -5.1634    0.9668   -4.9807 H   0  0  0  0  0  0  0  0  0  0  0  0
   -4.6418    2.4112   -4.0435 H   0  0  0  0  0  0  0  0  0  0  0  0
   -3.7671    1.9638   -5.5504 H   0  0  0  0  0  0  0  0  0  0  0  0
   -4.8549    2.5343    1.4401 H   0  0  0  0  0  0  0  0  0  0  0  0
   -3.5215    3.7492    1.1628 H   0  0  0  0  0  0  0  0  0  0  0  0
   -4.8370    3.5453   -0.0497 H   0  0  0  0  0  0  0  0  0  0  0  0
   -2.8432    1.9314    2.5859 H   0  0  0  0  0  0  0  0  0  0  0  0
   -0.6019   -0.0433    4.4037 H   0  0  0  0  0  0  0  0  0  0  0  0
    1.7918   -1.7916    0.8820 H   0  0  0  0  0  0  0  0  0  0  0  0
    2.1336   -0.5893    2.1283 H   0  0  0  0  0  0  0  0  0  0  0  0
    2.5027   -2.4105    3.8037 H   0  0  0  0  0  0  0  0  0  0  0  0
    3.5970   -2.5516    2.3921 H   0  0  0  0  0  0  0  0  0  0  0  0
    2.4747   -3.9587    0.3091 H   0  0  0  0  0  0  0  0  0  0  0  0
    1.7014   -6.2584   -0.1396 H   0  0  0  0  0  0  0  0  0  0  0  0
    0.8605   -7.6761    1.7100 H   0  0  0  0  0  0  0  0  0  0  0  0
    0.7940   -6.7901    4.0238 H   0  0  0  0  0  0  0  0  0  0  0  0
    1.5605   -4.4886    4.4972 H   0  0  0  0  0  0  0  0  0  0  0  0
    0.0167   -2.4094   -0.0264 H   0  0  0  0  0  0  0  0  0  0  0  0
    1.2127   -0.7878   -3.6770 H   0  0  0  0  0  0  0  0  0  0  0  0
    3.1582    0.5067   -4.3609 H   0  0  0  0  0  0  0  0  0  0  0  0
  1 38  1  0  0  0  0
  1 39  1  0  0  0  0
  1 40  1  0  0  0  0
  2  1  1  0  0  0  0
  3  2  1  0  0  0  0
  4  3  2  0  0  0  0
  5  3  1  0  0  0  0
  6  5  2  0  0  0  0
  6 41  1  0  0  0  0
  7  6  1  0  0  0  0
  8  7  1  0  0  0  0
  8 42  1  0  0  0  0
  9  7  2  0  0  0  0
 10  9  1  0  0  0  0
 11 10  1  0  0  0  0
 11 43  1  6  0  0  0
 12 11  1  0  0  0  0
 12 44  1  0  0  0  0
 13 12  2  0  0  0  0
 14 13  1  0  0  0  0
 14 45  1  0  0  0  0
 14 46  1  0  0  0  0
 14 47  1  0  0  0  0
 15 13  1  0  0  0  0
 15 48  1  0  0  0  0
 15 49  1  0  0  0  0
 15 50  1  0  0  0  0
 16 11  1  0  0  0  0
 17 16  2  0  0  0  0
 18 17  1  0  0  0  0
 19 18  1  0  0  0  0
 19 51  1  0  0  0  0
 19 52  1  0  0  0  0
 19 53  1  0  0  0  0
 20 17  1  0  0  0  0
 20 54  1  0  0  0  0
 21 20  2  0  0  0  0
 22 21  1  0  0  0  0
 22 55  1  0  0  0  0
 23 21  1  0  0  0  0
 24 23  1  0  0  0  0
 25 24  2  0  0  0  0
 26 24  1  0  0  0  0
 26 56  1  0  0  0  0
 26 57  1  0  0  0  0
 27 26  1  0  0  0  0
 27 58  1  0  0  0  0
 27 59  1  0  0  0  0
 28 27  1  0  0  0  0
 29 28  2  0  0  0  0
 29 60  1  0  0  0  0
 30 29  1  0  0  0  0
 30 61  1  0  0  0  0
 31 30  2  0  0  0  0
 31 62  1  0  0  0  0
 32 31  1  0  0  0  0
 32 63  1  0  0  0  0
 33 32  2  0  0  0  0
 33 28  1  0  0  0  0
 33 64  1  0  0  0  0
 34 23  2  0  0  0  0
 34 16  1  0  0  0  0
 35 34  1  0  0  0  0
 35 65  1  0  0  0  0
 36  9  1  0  0  0  0
 36 66  1  0  0  0  0
 37 36  2  0  0  0  0
 37  5  1  0  0  0  0
 37 67  1  0  0  0  0
M  END
>  <MOL Chiral Flag>
0

>  <energy>
130.43978495383391

$$$$
> 448_AKC_journal.pntd.0000912
>432.sdf
 OpenBabel10062213413D

 73 72  0  0  0  0  0  0  0  0999 V2000
  -12.5679   -2.5596    9.4052 C   0  0  0  0  0  0  0  0  0  0  0  0
  -12.2569   -2.0533    7.9966 C   0  0  0  0  0  0  0  0  0  0  0  0
  -10.8805   -2.5251    7.4640 C   0  0  0  0  0  0  0  0  0  0  0  0
  -10.7403   -2.1332    5.9778 C   0  0  0  0  0  0  0  0  0  0  0  0
   -9.4971   -2.6591    5.2114 C   0  0  0  0  0  0  0  0  0  0  0  0
   -8.1841   -1.8314    5.3025 C   0  0  0  0  0  0  0  0  0  0  0  0
   -7.1550   -2.3481    4.2441 C   0  0  0  0  0  0  0  0  0  0  0  0
   -5.8750   -1.4821    4.0542 C   0  0  0  0  0  0  0  0  0  0  0  0
   -4.9693   -2.0236    2.8975 C   0  0  0  0  0  0  0  0  0  0  0  0
   -3.6649   -1.1999    2.6606 C   0  0  0  0  0  0  0  0  0  0  0  0
   -2.7301   -1.7898    1.5460 C   0  0  0  0  0  0  0  0  0  0  0  0
   -1.3209   -1.1067    1.5065 C   0  0  0  0  0  0  0  0  0  0  0  0
   -0.2064   -1.8751    0.7152 C   0  0  0  0  0  0  0  0  0  0  0  0
    0.1830   -1.5041   -0.7532 C   0  0  0  0  0  0  0  0  0  0  0  0
    0.9818   -0.1739   -0.8803 C   0  0  0  0  0  0  0  0  0  0  0  0
    1.6885    0.0558   -2.2544 C   0  0  0  0  0  0  0  0  0  0  0  0
    2.7567   -0.8566   -2.4439 O   0  0  0  0  0  0  0  0  0  0  0  0
    3.6140   -0.5073   -3.9573 P   0  0  2  0  0  0  0  0  0  0  0  0
    2.5116   -0.0478   -5.2177 O   0  5  0  0  0  0  0  0  0  0  0  0
    4.1934   -1.8762   -4.4093 O   0  0  0  0  0  0  0  0  0  0  0  0
    4.9363    0.6671   -3.8062 O   0  0  0  0  0  0  0  0  0  0  0  0
    6.1318    0.3102   -4.5035 C   0  0  0  0  0  0  0  0  0  0  0  0
    6.3610    1.2311   -5.7373 C   0  0  0  0  0  0  0  0  0  0  0  0
    7.6989    1.1110   -6.4244 N   0  3  0  0  0  0  0  0  0  0  0  0
    7.6823    1.9763   -7.6324 C   0  0  0  0  0  0  0  0  0  0  0  0
    7.9809   -0.2752   -6.8597 C   0  0  0  0  0  0  0  0  0  0  0  0
    8.7997    1.5825   -5.5498 C   0  0  0  0  0  0  0  0  0  0  0  0
  -11.8116   -2.2038   10.1337 H   0  0  0  0  0  0  0  0  0  0  0  0
  -12.6032   -3.6703    9.4174 H   0  0  0  0  0  0  0  0  0  0  0  0
  -13.5676   -2.1843    9.7199 H   0  0  0  0  0  0  0  0  0  0  0  0
  -13.0673   -2.4324    7.3344 H   0  0  0  0  0  0  0  0  0  0  0  0
  -12.2966   -0.9424    7.9921 H   0  0  0  0  0  0  0  0  0  0  0  0
  -10.0623   -2.0931    8.0778 H   0  0  0  0  0  0  0  0  0  0  0  0
  -10.8397   -3.6345    7.5382 H   0  0  0  0  0  0  0  0  0  0  0  0
  -11.6160   -2.6080    5.4802 H   0  0  0  0  0  0  0  0  0  0  0  0
  -10.8382   -1.0348    5.8390 H   0  0  0  0  0  0  0  0  0  0  0  0
   -9.3241   -3.7310    5.4514 H   0  0  0  0  0  0  0  0  0  0  0  0
   -9.7949   -2.6042    4.1421 H   0  0  0  0  0  0  0  0  0  0  0  0
   -8.4319   -0.7765    5.0551 H   0  0  0  0  0  0  0  0  0  0  0  0
   -7.7617   -1.8632    6.3304 H   0  0  0  0  0  0  0  0  0  0  0  0
   -7.6685   -2.3698    3.2589 H   0  0  0  0  0  0  0  0  0  0  0  0
   -6.8648   -3.3887    4.5074 H   0  0  0  0  0  0  0  0  0  0  0  0
   -6.1809   -0.4428    3.8060 H   0  0  0  0  0  0  0  0  0  0  0  0
   -5.3035   -1.4644    5.0073 H   0  0  0  0  0  0  0  0  0  0  0  0
   -5.5576   -2.0386    1.9549 H   0  0  0  0  0  0  0  0  0  0  0  0
   -4.6837   -3.0687    3.1477 H   0  0  0  0  0  0  0  0  0  0  0  0
   -3.1077   -1.2023    3.6223 H   0  0  0  0  0  0  0  0  0  0  0  0
   -3.9205   -0.1487    2.4076 H   0  0  0  0  0  0  0  0  0  0  0  0
   -3.2204   -1.7470    0.5501 H   0  0  0  0  0  0  0  0  0  0  0  0
   -2.5694   -2.8589    1.8064 H   0  0  0  0  0  0  0  0  0  0  0  0
   -0.9873   -1.1647    2.5656 H   0  0  0  0  0  0  0  0  0  0  0  0
   -1.3525   -0.0283    1.2441 H   0  0  0  0  0  0  0  0  0  0  0  0
    0.7410   -1.7581    1.2855 H   0  0  0  0  0  0  0  0  0  0  0  0
   -0.4464   -2.9590    0.7679 H   0  0  0  0  0  0  0  0  0  0  0  0
    0.8799   -2.3050   -1.0847 H   0  0  0  0  0  0  0  0  0  0  0  0
   -0.6968   -1.5220   -1.4311 H   0  0  0  0  0  0  0  0  0  0  0  0
    0.2816    0.6640   -0.6791 H   0  0  0  0  0  0  0  0  0  0  0  0
    1.7821   -0.1448   -0.1085 H   0  0  0  0  0  0  0  0  0  0  0  0
    0.9379   -0.0281   -3.0693 H   0  0  0  0  0  0  0  0  0  0  0  0
    2.1078    1.0872   -2.2324 H   0  0  0  0  0  0  0  0  0  0  0  0
    6.1787   -0.7511   -4.8076 H   0  0  0  0  0  0  0  0  0  0  0  0
    6.9579    0.4497   -3.7806 H   0  0  0  0  0  0  0  0  0  0  0  0
    5.5440    1.0149   -6.4613 H   0  0  0  0  0  0  0  0  0  0  0  0
    6.2282    2.2841   -5.4021 H   0  0  0  0  0  0  0  0  0  0  0  0
    7.4906    3.0399   -7.3676 H   0  0  0  0  0  0  0  0  0  0  0  0
    6.8974    1.6530   -8.3516 H   0  0  0  0  0  0  0  0  0  0  0  0
    8.6584    1.9404   -8.1724 H   0  0  0  0  0  0  0  0  0  0  0  0
    7.1727   -0.6628   -7.5175 H   0  0  0  0  0  0  0  0  0  0  0  0
    8.0993   -0.9603   -5.9939 H   0  0  0  0  0  0  0  0  0  0  0  0
    8.9377   -0.3268   -7.4323 H   0  0  0  0  0  0  0  0  0  0  0  0
    9.7753    1.5715   -6.0913 H   0  0  0  0  0  0  0  0  0  0  0  0
    8.6235    2.6264   -5.2069 H   0  0  0  0  0  0  0  0  0  0  0  0
    8.9292    0.9348   -4.6590 H   0  0  0  0  0  0  0  0  0  0  0  0
  1 28  1  0  0  0  0
  1 29  1  0  0  0  0
  1 30  1  0  0  0  0
  2  1  1  0  0  0  0
  2 31  1  0  0  0  0
  2 32  1  0  0  0  0
  3  2  1  0  0  0  0
  3 33  1  0  0  0  0
  3 34  1  0  0  0  0
  4  3  1  0  0  0  0
  4 35  1  0  0  0  0
  4 36  1  0  0  0  0
  5  4  1  0  0  0  0
  5 37  1  0  0  0  0
  5 38  1  0  0  0  0
  6  5  1  0  0  0  0
  6 39  1  0  0  0  0
  6 40  1  0  0  0  0
  7  6  1  0  0  0  0
  7 41  1  0  0  0  0
  7 42  1  0  0  0  0
  8  7  1  0  0  0  0
  8 43  1  0  0  0  0
  8 44  1  0  0  0  0
  9  8  1  0  0  0  0
  9 45  1  0  0  0  0
  9 46  1  0  0  0  0
 10  9  1  0  0  0  0
 10 47  1  0  0  0  0
 10 48  1  0  0  0  0
 11 10  1  0  0  0  0
 11 49  1  0  0  0  0
 11 50  1  0  0  0  0
 12 11  1  0  0  0  0
 12 51  1  0  0  0  0
 12 52  1  0  0  0  0
 13 12  1  0  0  0  0
 13 53  1  0  0  0  0
 13 54  1  0  0  0  0
 14 13  1  0  0  0  0
 14 55  1  0  0  0  0
 14 56  1  0  0  0  0
 15 14  1  0  0  0  0
 15 57  1  0  0  0  0
 15 58  1  0  0  0  0
 16 15  1  0  0  0  0
 16 59  1  0  0  0  0
 16 60  1  0  0  0  0
 17 16  1  0  0  0  0
 18 17  1  1  0  0  0
 19 18  1  0  0  0  0
 20 18  2  0  0  0  0
 21 18  1  0  0  0  0
 22 21  1  0  0  0  0
 22 61  1  0  0  0  0
 22 62  1  0  0  0  0
 23 22  1  0  0  0  0
 23 63  1  0  0  0  0
 23 64  1  0  0  0  0
 24 23  1  0  0  0  0
 25 24  1  0  0  0  0
 25 65  1  0  0  0  0
 25 66  1  0  0  0  0
 25 67  1  0  0  0  0
 26 24  1  0  0  0  0
 26 68  1  0  0  0  0
 26 69  1  0  0  0  0
 26 70  1  0  0  0  0
 27 24  1  0  0  0  0
 27 71  1  0  0  0  0
 27 72  1  0  0  0  0
 27 73  1  0  0  0  0
M  CHG  2  19  -1  24   1
M  END
>  <MOL Chiral Flag>
0

>  <energy>
-104.77874957166158

$$$$
> 449_AKC_0974-777X.62886
>433.sdf
 OpenBabel10102214533D

138140  0  0  1  0  0  0  0  0999 V2000
   78.6160   50.5642  -19.6135 C   0  0  2  0  0  0  0  0  0  0  0  0
   77.7095   46.5302  -18.9829 C   0  0  0  0  0  0  0  0  0  0  0  0
   77.3150   48.0207  -19.1151 C   0  0  2  0  0  0  0  0  0  0  0  0
   78.2705   44.5139  -20.4472 C   0  0  1  0  0  0  0  0  0  0  0  0
   77.1448   45.5342  -20.0445 C   0  0  1  0  0  0  0  0  0  0  0  0
   79.5867   52.7913  -19.0999 N   0  3  0  0  0  0  0  0  0  0  0  0
   63.9051   44.1287   -5.8011 C   0  0  0  0  0  0  0  0  0  0  0  0
   63.4385   44.1029   -7.2651 C   0  0  1  0  0  0  0  0  0  0  0  0
   64.7306   44.0738   -9.3703 C   0  0  0  0  0  0  0  0  0  0  0  0
   66.1312   43.8922   -9.9088 C   0  0  0  0  0  0  0  0  0  0  0  0
   66.2376   43.8542  -11.4454 C   0  0  1  0  0  0  0  0  0  0  0  0
   67.6716   43.5073  -11.8893 C   0  0  0  0  0  0  0  0  0  0  0  0
   77.7008   43.4435  -21.3918 C   0  0  2  0  0  0  0  0  0  0  0  0
   67.9140   43.7943  -13.3864 C   0  0  1  0  0  0  0  0  0  0  0  0
   78.8517   51.0614  -22.4353 C   0  0  1  0  0  0  0  0  0  0  0  0
   69.2960   43.2875  -13.8362 C   0  0  0  0  0  0  0  0  0  0  0  0
   69.6264   43.7798  -15.2507 C   0  0  0  0  0  0  0  0  0  0  0  0
   70.8907   43.1017  -15.8066 C   0  0  2  0  0  0  0  0  0  0  0  0
   79.6494   51.9388  -21.4428 C   0  0  2  0  0  0  0  0  0  0  0  0
   71.3762   43.7786  -17.1081 C   0  0  1  0  0  0  0  0  0  0  0  0
   79.6089   50.9213  -23.7575 C   0  0  0  0  0  0  0  0  0  0  0  0
   72.6071   43.0565  -17.6776 C   0  0  0  0  0  0  0  0  0  0  0  0
   73.3114   43.8474  -18.7945 C   0  0  1  0  0  0  0  0  0  0  0  0
   75.9664   48.5374  -18.6592 C   0  0  0  0  0  0  0  0  0  0  0  0
   79.4542   45.1836  -21.1064 C   0  0  0  0  0  0  0  0  0  0  0  0
   74.5081   43.0324  -19.3121 C   0  0  0  0  0  0  0  0  0  0  0  0
   75.4678   43.8075  -20.2426 C   0  0  2  0  0  0  0  0  0  0  0  0
   76.5455   42.7773  -20.6722 C   0  0  0  0  0  0  0  0  0  0  0  0
   74.9624   47.8168  -18.1460 C   0  0  0  0  0  0  0  0  0  0  0  0
   73.7817   48.5411  -17.6091 C   0  0  0  0  0  0  0  0  0  0  0  0
   72.7448   47.9048  -17.0571 C   0  0  0  0  0  0  0  0  0  0  0  0
   71.6553   48.6747  -16.4098 C   0  0  0  0  0  0  0  0  0  0  0  0
   70.6132   48.0465  -15.8547 C   0  0  0  0  0  0  0  0  0  0  0  0
   69.5896   48.7858  -15.0812 C   0  0  0  0  0  0  0  0  0  0  0  0
   68.5774   48.1189  -14.5130 C   0  0  0  0  0  0  0  0  0  0  0  0
   67.6161   48.7814  -13.6049 C   0  0  0  0  0  0  0  0  0  0  0  0
   66.6628   48.0494  -13.0147 C   0  0  0  0  0  0  0  0  0  0  0  0
   65.7697   48.6089  -11.9792 C   0  0  0  0  0  0  0  0  0  0  0  0
   64.8873   47.8024  -11.3759 C   0  0  0  0  0  0  0  0  0  0  0  0
   64.0548   48.2503  -10.2432 C   0  0  0  0  0  0  0  0  0  0  0  0
   63.2269   47.3675   -9.6481 C   0  0  0  0  0  0  0  0  0  0  0  0
   62.3454   47.6529   -8.4350 C   0  0  2  0  0  0  0  0  0  0  0  0
   62.4825   49.1116   -7.9446 C   0  0  0  0  0  0  0  0  0  0  0  0
   62.6552   46.6518   -7.2680 C   0  0  2  0  0  0  0  0  0  0  0  0
   62.2697   45.1320   -7.4770 C   0  0  1  0  0  0  0  0  0  0  0  0
   61.3041   44.8107   -8.6387 C   0  0  0  0  0  0  0  0  0  0  0  0
   77.8670   49.7641  -20.7322 C   0  0  2  0  0  0  0  0  0  0  0  0
   78.8760   51.9995  -20.1125 C   0  0  1  0  0  0  0  0  0  0  0  0
   64.5777   44.2789   -8.0384 O   0  0  0  0  0  0  0  0  0  0  0  0
   63.7629   43.9507  -10.1015 O   0  0  0  0  0  0  0  0  0  0  0  0
   65.3528   42.8951  -11.9720 O   0  0  0  0  0  0  0  0  0  0  0  0
   78.6712   42.4679  -21.6817 O   0  0  0  0  0  0  0  0  0  0  0  0
   66.9124   43.2315  -14.1982 O   0  0  0  0  0  0  0  0  0  0  0  0
   76.0032   44.8935  -19.4796 O   0  0  0  0  0  0  0  0  0  0  0  0
   70.6669   41.7241  -15.9916 O   0  0  0  0  0  0  0  0  0  0  0  0
   70.3514   43.7924  -18.0723 O   0  0  0  0  0  0  0  0  0  0  0  0
   79.0973   45.8592  -22.0306 O   0  0  0  0  0  0  0  0  0  0  0  0
   72.4195   44.1062  -19.8500 O   0  0  0  0  0  0  0  0  0  0  0  0
   80.4524   44.8364  -20.5384 O   0  0  0  0  0  0  0  0  0  0  0  0
   77.5835   48.3960  -20.4566 O   0  0  0  0  0  0  0  0  0  0  0  0
   79.8197   49.9392  -19.2213 O   0  0  0  0  0  0  0  0  0  0  0  0
   79.8058   53.2310  -21.9730 O   0  0  0  0  0  0  0  0  0  0  0  0
   61.9818   47.0971   -6.1115 O   0  0  0  0  0  0  0  0  0  0  0  0
   78.6612   49.7596  -21.9095 O   0  0  0  0  0  0  0  0  0  0  0  0
   74.7338   44.2754  -21.3513 O   0  0  0  0  0  0  0  0  0  0  0  0
   77.9675   50.6491  -18.7165 H   0  0  0  0  0  0  0  0  0  0  0  0
   77.6049   46.1322  -17.9500 H   0  0  0  0  0  0  0  0  0  0  0  0
   78.8072   46.5924  -19.1414 H   0  0  0  0  0  0  0  0  0  0  0  0
   78.0212   48.4893  -18.4041 H   0  0  0  0  0  0  0  0  0  0  0  0
   78.5864   43.9983  -19.5052 H   0  0  0  0  0  0  0  0  0  0  0  0
   76.8538   46.0967  -20.9565 H   0  0  0  0  0  0  0  0  0  0  0  0
   79.0316   52.8084  -18.2133 H   0  0  0  0  0  0  0  0  0  0  0  0
   79.6965   53.7775  -19.4281 H   0  0  0  0  0  0  0  0  0  0  0  0
   63.0611   43.9120   -5.1122 H   0  0  0  0  0  0  0  0  0  0  0  0
   64.3447   45.1116   -5.5335 H   0  0  0  0  0  0  0  0  0  0  0  0
   64.6821   43.3504   -5.6409 H   0  0  0  0  0  0  0  0  0  0  0  0
   63.0462   43.0738   -7.4284 H   0  0  0  0  0  0  0  0  0  0  0  0
   66.5313   42.9524   -9.4696 H   0  0  0  0  0  0  0  0  0  0  0  0
   66.7607   44.7361   -9.5508 H   0  0  0  0  0  0  0  0  0  0  0  0
   65.9859   44.8768  -11.8040 H   0  0  0  0  0  0  0  0  0  0  0  0
   67.8618   42.4366  -11.6534 H   0  0  0  0  0  0  0  0  0  0  0  0
   68.4061   44.1201  -11.3201 H   0  0  0  0  0  0  0  0  0  0  0  0
   77.3275   43.8984  -22.3389 H   0  0  0  0  0  0  0  0  0  0  0  0
   67.8731   44.8981  -13.5104 H   0  0  0  0  0  0  0  0  0  0  0  0
   77.8665   51.5298  -22.6656 H   0  0  0  0  0  0  0  0  0  0  0  0
   69.2881   42.1761  -13.7994 H   0  0  0  0  0  0  0  0  0  0  0  0
   70.0917   43.6512  -13.1485 H   0  0  0  0  0  0  0  0  0  0  0  0
   69.7699   44.8791  -15.1975 H   0  0  0  0  0  0  0  0  0  0  0  0
   68.7852   43.5729  -15.9471 H   0  0  0  0  0  0  0  0  0  0  0  0
   71.7099   43.2170  -15.0618 H   0  0  0  0  0  0  0  0  0  0  0  0
   80.6461   51.4612  -21.2799 H   0  0  0  0  0  0  0  0  0  0  0  0
   71.6760   44.8150  -16.8312 H   0  0  0  0  0  0  0  0  0  0  0  0
   80.5962   50.4395  -23.5869 H   0  0  0  0  0  0  0  0  0  0  0  0
   79.7673   51.9131  -24.2300 H   0  0  0  0  0  0  0  0  0  0  0  0
   79.0255   50.2876  -24.4589 H   0  0  0  0  0  0  0  0  0  0  0  0
   72.3032   42.0509  -18.0451 H   0  0  0  0  0  0  0  0  0  0  0  0
   73.3473   42.9167  -16.8579 H   0  0  0  0  0  0  0  0  0  0  0  0
   73.6747   44.7942  -18.3318 H   0  0  0  0  0  0  0  0  0  0  0  0
   74.1169   42.1236  -19.8242 H   0  0  0  0  0  0  0  0  0  0  0  0
   75.1061   42.6976  -18.4337 H   0  0  0  0  0  0  0  0  0  0  0  0
   76.0954   41.9861  -21.3122 H   0  0  0  0  0  0  0  0  0  0  0  0
   76.9659   42.2804  -19.7673 H   0  0  0  0  0  0  0  0  0  0  0  0
   73.7857   49.6295  -17.6171 H   0  0  0  0  0  0  0  0  0  0  0  0
   63.1954   46.3783  -10.0642 H   0  0  0  0  0  0  0  0  0  0  0  0
   61.2832   47.5347   -8.7339 H   0  0  0  0  0  0  0  0  0  0  0  0
   63.5183   49.3165   -7.5982 H   0  0  0  0  0  0  0  0  0  0  0  0
   61.7856   49.3177   -7.1054 H   0  0  0  0  0  0  0  0  0  0  0  0
   62.2118   49.8193   -8.7569 H   0  0  0  0  0  0  0  0  0  0  0  0
   63.7561   46.7322   -7.0954 H   0  0  0  0  0  0  0  0  0  0  0  0
   61.5906   44.8802   -6.6286 H   0  0  0  0  0  0  0  0  0  0  0  0
   61.7012   44.9742   -9.6466 H   0  0  0  0  0  0  0  0  0  0  0  0
   60.3824   45.4227   -8.5457 H   0  0  0  0  0  0  0  0  0  0  0  0
   60.9924   43.7454   -8.5818 H   0  0  0  0  0  0  0  0  0  0  0  0
   76.8905   50.2574  -20.9470 H   0  0  0  0  0  0  0  0  0  0  0  0
   77.8888   52.4814  -20.3068 H   0  0  0  0  0  0  0  0  0  0  0  0
   64.7570   43.3607  -12.6159 H   0  0  0  0  0  0  0  0  0  0  0  0
   79.1812   42.7869  -22.4716 H   0  0  0  0  0  0  0  0  0  0  0  0
   66.9366   42.2476  -14.0677 H   0  0  0  0  0  0  0  0  0  0  0  0
   69.9579   41.6220  -16.6792 H   0  0  0  0  0  0  0  0  0  0  0  0
   70.0581   44.7347  -18.1826 H   0  0  0  0  0  0  0  0  0  0  0  0
   72.4970   45.0702  -20.0745 H   0  0  0  0  0  0  0  0  0  0  0  0
   80.2333   49.4990  -20.0071 H   0  0  0  0  0  0  0  0  0  0  0  0
   80.6902   53.5655  -21.6702 H   0  0  0  0  0  0  0  0  0  0  0  0
   62.6291   47.0789   -5.3582 H   0  0  0  0  0  0  0  0  0  0  0  0
   75.3273   44.8143  -21.9293 H   0  0  0  0  0  0  0  0  0  0  0  0
   80.5317   52.3877  -18.9061 H   0  0  0  0  0  0  0  0  0  0  0  0
   64.8076   46.7698  -11.6966 H   0  0  0  0  0  0  0  0  0  0  0  0
   64.1522   49.2711   -9.8927 H   0  0  0  0  0  0  0  0  0  0  0  0
   66.5801   46.9924  -13.2554 H   0  0  0  0  0  0  0  0  0  0  0  0
   65.8731   49.6453  -11.6671 H   0  0  0  0  0  0  0  0  0  0  0  0
   68.4927   47.0468  -14.6712 H   0  0  0  0  0  0  0  0  0  0  0  0
   67.7266   49.8367  -13.3660 H   0  0  0  0  0  0  0  0  0  0  0  0
   70.5447   46.9660  -15.9248 H   0  0  0  0  0  0  0  0  0  0  0  0
   69.6962   49.8567  -14.9225 H   0  0  0  0  0  0  0  0  0  0  0  0
   72.7284   46.8219  -17.0347 H   0  0  0  0  0  0  0  0  0  0  0  0
   71.7328   49.7577  -16.3380 H   0  0  0  0  0  0  0  0  0  0  0  0
   75.8404   49.6161  -18.7017 H   0  0  0  0  0  0  0  0  0  0  0  0
   75.0340   46.7410  -18.0564 H   0  0  0  0  0  0  0  0  0  0  0  0
  1 47  1  0  0  0  0
  1 48  1  0  0  0  0
  1 61  1  0  0  0  0
  1 66  1  1  0  0  0
  2  3  1  0  0  0  0
  2  5  1  0  0  0  0
  2 67  1  0  0  0  0
  2 68  1  0  0  0  0
  3 24  1  0  0  0  0
  3 60  1  0  0  0  0
  3 69  1  1  0  0  0
  4  5  1  0  0  0  0
  4 13  1  0  0  0  0
  4 25  1  0  0  0  0
  4 70  1  1  0  0  0
  5 54  1  0  0  0  0
  5 71  1  6  0  0  0
  6 48  1  0  0  0  0
  6 72  1  0  0  0  0
  6 73  1  0  0  0  0
  7  8  1  0  0  0  0
  7 74  1  0  0  0  0
  7 75  1  0  0  0  0
  7 76  1  0  0  0  0
  8 45  1  0  0  0  0
  8 49  1  0  0  0  0
  8 77  1  6  0  0  0
  9 10  1  0  0  0  0
  9 49  1  0  0  0  0
  9 50  2  0  0  0  0
 10 11  1  0  0  0  0
 10 78  1  0  0  0  0
 10 79  1  0  0  0  0
 11 12  1  0  0  0  0
 11 51  1  0  0  0  0
 11 80  1  6  0  0  0
 12 14  1  0  0  0  0
 12 81  1  0  0  0  0
 12 82  1  0  0  0  0
 13 28  1  0  0  0  0
 13 52  1  0  0  0  0
 13 83  1  6  0  0  0
 14 16  1  0  0  0  0
 14 53  1  0  0  0  0
 14 84  1  6  0  0  0
 15 19  1  0  0  0  0
 15 21  1  0  0  0  0
 15 64  1  0  0  0  0
 15 85  1  6  0  0  0
 16 17  1  0  0  0  0
 16 86  1  0  0  0  0
 16 87  1  0  0  0  0
 17 18  1  0  0  0  0
 17 88  1  0  0  0  0
 17 89  1  0  0  0  0
 18 20  1  0  0  0  0
 18 55  1  0  0  0  0
 18 90  1  1  0  0  0
 19 48  1  0  0  0  0
 19 62  1  0  0  0  0
 19 91  1  1  0  0  0
 20 22  1  0  0  0  0
 20 56  1  0  0  0  0
 20 92  1  1  0  0  0
 21 93  1  0  0  0  0
 21 94  1  0  0  0  0
 21 95  1  0  0  0  0
 22 23  1  0  0  0  0
 22 96  1  0  0  0  0
 22 97  1  0  0  0  0
 23 26  1  0  0  0  0
 23 58  1  0  0  0  0
 23 98  1  1  0  0  0
 24 29  2  0  0  0  0
 24137  1  0  0  0  0
 25 57  2  0  0  0  0
 25 59  2  0  0  0  0
 26 27  1  0  0  0  0
 26 99  1  0  0  0  0
 26100  1  0  0  0  0
 27 28  1  0  0  0  0
 27 54  1  0  0  0  0
 27 65  1  6  0  0  0
 28101  1  0  0  0  0
 28102  1  0  0  0  0
 29 30  1  0  0  0  0
 29138  1  0  0  0  0
 30 31  2  0  0  0  0
 30103  1  0  0  0  0
 31 32  1  0  0  0  0
 31135  1  0  0  0  0
 32 33  2  0  0  0  0
 32136  1  0  0  0  0
 33 34  1  0  0  0  0
 33133  1  0  0  0  0
 34 35  2  0  0  0  0
 34134  1  0  0  0  0
 35 36  1  0  0  0  0
 35131  1  0  0  0  0
 36 37  2  0  0  0  0
 36132  1  0  0  0  0
 37 38  1  0  0  0  0
 37129  1  0  0  0  0
 38 39  2  0  0  0  0
 38130  1  0  0  0  0
 39 40  1  0  0  0  0
 39127  1  0  0  0  0
 40 41  2  0  0  0  0
 40128  1  0  0  0  0
 41 42  1  0  0  0  0
 41104  1  0  0  0  0
 42 43  1  0  0  0  0
 42 44  1  0  0  0  0
 42105  1  6  0  0  0
 43106  1  0  0  0  0
 43107  1  0  0  0  0
 43108  1  0  0  0  0
 44 45  1  0  0  0  0
 44 63  1  0  0  0  0
 44109  1  1  0  0  0
 45 46  1  0  0  0  0
 45110  1  1  0  0  0
 46111  1  0  0  0  0
 46112  1  0  0  0  0
 46113  1  0  0  0  0
 47 60  1  0  0  0  0
 47 64  1  0  0  0  0
 47114  1  6  0  0  0
 48115  1  6  0  0  0
 51116  1  0  0  0  0
 52117  1  0  0  0  0
 53118  1  0  0  0  0
 55119  1  0  0  0  0
 56120  1  0  0  0  0
 58121  1  0  0  0  0
 61122  1  0  0  0  0
 62123  1  0  0  0  0
 63124  1  0  0  0  0
 65125  1  0  0  0  0
126  6  1  0  0  0  0
M  CHG  1   6   1
M  END
$$$$
> 450_AKC_j.exppara.2014.04.014
>434.sdf
 OpenBabel10062213423D

 38 40  0  0  0  0  0  0  0  0999 V2000
    1.8235   -1.6232   -0.9307 C   0  0  0  0  0  0  0  0  0  0  0  0
    1.8201   -0.5985    0.1785 C   0  0  0  0  0  0  0  0  0  0  0  0
    1.2268   -0.7683    1.3793 C   0  0  0  0  0  0  0  0  0  0  0  0
    0.4073   -1.9261    1.8347 C   0  0  0  0  0  0  0  0  0  0  0  0
   -1.0555   -1.4649    1.7522 C   0  0  0  0  0  0  0  0  0  0  0  0
   -1.6214   -1.6525    0.3326 C   0  0  1  0  0  0  0  0  0  0  0  0
   -2.0640   -3.0831   -0.0196 C   0  0  0  0  0  0  0  0  0  0  0  0
   -2.5250   -0.6915   -0.0501 O   0  0  0  0  0  0  0  0  0  0  0  0
   -1.3356   -0.7752   -0.8651 C   0  0  1  0  0  0  0  0  0  0  0  0
   -0.9887    0.7044   -1.1904 C   0  0  1  0  0  0  0  0  0  0  0  0
   -2.1210    1.4366   -1.5140 O   0  0  0  0  0  0  0  0  0  0  0  0
   -1.9475    2.7345   -1.2811 C   0  0  0  0  0  0  0  0  0  0  0  0
   -2.7779    3.5815   -1.5686 O   0  0  0  0  0  0  0  0  0  0  0  0
   -0.7048    2.9817   -0.6099 C   0  0  0  0  0  0  0  0  0  0  0  0
   -0.2790    4.1843   -0.1984 C   0  0  0  0  0  0  0  0  0  0  0  0
   -0.0204    1.6648   -0.3614 C   0  0  2  0  0  0  0  0  0  0  0  0
    1.4639    1.6573   -0.8906 C   0  0  0  0  0  0  0  0  0  0  0  0
    2.4154    0.7582   -0.0816 C   0  0  0  0  0  0  0  0  0  0  0  0
    1.3207   -1.2061   -1.8268 H   0  0  0  0  0  0  0  0  0  0  0  0
    2.8742   -1.8589   -1.1995 H   0  0  0  0  0  0  0  0  0  0  0  0
    1.3201   -2.5718   -0.6740 H   0  0  0  0  0  0  0  0  0  0  0  0
    1.2303    0.0682    2.0756 H   0  0  0  0  0  0  0  0  0  0  0  0
    0.6956   -2.1060    2.8924 H   0  0  0  0  0  0  0  0  0  0  0  0
    0.5594   -2.8817    1.2986 H   0  0  0  0  0  0  0  0  0  0  0  0
   -1.1747   -0.4228    2.1268 H   0  0  0  0  0  0  0  0  0  0  0  0
   -1.6679   -2.1051    2.4234 H   0  0  0  0  0  0  0  0  0  0  0  0
   -2.7890   -3.4466    0.7388 H   0  0  0  0  0  0  0  0  0  0  0  0
   -2.5651   -3.1435   -1.0093 H   0  0  0  0  0  0  0  0  0  0  0  0
   -1.1877   -3.7624   -0.0312 H   0  0  0  0  0  0  0  0  0  0  0  0
   -1.6858   -1.2404   -1.8131 H   0  0  0  0  0  0  0  0  0  0  0  0
   -0.4916    0.5999   -2.1800 H   0  0  0  0  0  0  0  0  0  0  0  0
    0.6550    4.2839    0.3442 H   0  0  0  0  0  0  0  0  0  0  0  0
   -0.8661    5.0754   -0.3974 H   0  0  0  0  0  0  0  0  0  0  0  0
   -0.0898    1.5607    0.7415 H   0  0  0  0  0  0  0  0  0  0  0  0
    1.4978    1.4203   -1.9742 H   0  0  0  0  0  0  0  0  0  0  0  0
    1.9133    2.6691   -0.7984 H   0  0  0  0  0  0  0  0  0  0  0  0
    2.5625    1.2894    0.8866 H   0  0  0  0  0  0  0  0  0  0  0  0
    3.4279    0.6884   -0.5330 H   0  0  0  0  0  0  0  0  0  0  0  0
  1 19  1  0  0  0  0
  1 20  1  0  0  0  0
  1 21  1  0  0  0  0
  2  1  1  0  0  0  0
  3  2  2  0  0  0  0
  3 22  1  0  0  0  0
  4  3  1  0  0  0  0
  4 23  1  0  0  0  0
  4 24  1  0  0  0  0
  5  4  1  0  0  0  0
  5 25  1  0  0  0  0
  5 26  1  0  0  0  0
  6  5  1  0  0  0  0
  6  7  1  6  0  0  0
  7 27  1  0  0  0  0
  7 28  1  0  0  0  0
  7 29  1  0  0  0  0
  8  6  1  0  0  0  0
  9  8  1  0  0  0  0
  9  6  1  0  0  0  0
  9 30  1  6  0  0  0
 10  9  1  0  0  0  0
 10 31  1  6  0  0  0
 11 10  1  0  0  0  0
 12 11  1  0  0  0  0
 13 12  2  0  0  0  0
 14 12  1  0  0  0  0
 15 14  2  0  0  0  0
 15 32  1  0  0  0  0
 15 33  1  0  0  0  0
 16 14  1  0  0  0  0
 16 10  1  0  0  0  0
 16 34  1  1  0  0  0
 17 16  1  0  0  0  0
 17 35  1  0  0  0  0
 17 36  1  0  0  0  0
 18 17  1  0  0  0  0
 18  2  1  0  0  0  0
 18 37  1  0  0  0  0
 18 38  1  0  0  0  0
M  END
>  <MOL Chiral Flag>
0

>  <energy>
81.287465834767985

$$$$
> 451_AKC_AAC.01240-13
>435.sdf
 OpenBabel10062213443D

 84 86  0  0  0  0  0  0  0  0999 V2000
   -7.1980   -0.3607   -1.3615 C   0  0  0  0  0  0  0  0  0  0  0  0
   -7.0180   -1.7641   -0.7813 C   0  0  0  0  0  0  0  0  0  0  0  0
   -6.0525   -1.8128    0.4163 C   0  0  0  0  0  0  0  0  0  0  0  0
   -6.5703   -1.0280    1.6422 C   0  0  0  0  0  0  0  0  0  0  0  0
   -5.7196   -1.1891    2.8547 N   0  3  0  0  0  0  0  0  0  0  0  0
   -6.2946   -0.4693    4.0265 C   0  0  0  0  0  0  0  0  0  0  0  0
   -7.6122   -1.0844    4.5499 C   0  0  0  0  0  0  0  0  0  0  0  0
   -8.1202   -0.4077    5.8364 C   0  0  0  0  0  0  0  0  0  0  0  0
   -8.4987    1.0626    5.6459 C   0  0  0  0  0  0  0  0  0  0  0  0
   -4.2981   -0.7825    2.6493 C   0  0  0  0  0  0  0  0  0  0  0  0
   -4.1059    0.6912    2.2233 C   0  0  0  0  0  0  0  0  0  0  0  0
   -2.6293    1.0760    2.1301 C   0  0  0  0  0  0  0  0  0  0  0  0
   -1.9818    0.3364    1.1564 O   0  0  0  0  0  0  0  0  0  0  0  0
   -0.6751    0.4981    0.8095 C   0  0  0  0  0  0  0  0  0  0  0  0
    0.1659    1.4163    1.4680 C   0  0  0  0  0  0  0  0  0  0  0  0
    1.4915    1.5744    1.0649 C   0  0  0  0  0  0  0  0  0  0  0  0
    2.0189    0.8167    0.0029 C   0  0  0  0  0  0  0  0  0  0  0  0
    1.1734   -0.0976   -0.6561 C   0  0  0  0  0  0  0  0  0  0  0  0
   -0.1575   -0.2567   -0.2494 C   0  0  0  0  0  0  0  0  0  0  0  0
    3.4283    1.0646   -0.4360 C   0  0  0  0  0  0  0  0  0  0  0  0
    3.9717    2.0914   -0.0574 O   0  0  0  0  0  0  0  0  0  0  0  0
    4.1992    0.1653   -1.3445 C   0  0  0  0  0  0  0  0  0  0  0  0
    5.1490    0.5688   -2.2962 C   0  0  0  0  0  0  0  0  0  0  0  0
    5.5529    1.9708   -2.6647 C   0  0  0  0  0  0  0  0  0  0  0  0
    7.0386    2.1950   -2.3738 C   0  0  0  0  0  0  0  0  0  0  0  0
    7.4692    3.6130   -2.7664 C   0  0  0  0  0  0  0  0  0  0  0  0
    8.9507    3.8348   -2.4769 C   0  0  0  0  0  0  0  0  0  0  0  0
    5.6533   -0.4922   -2.8966 O   0  0  0  0  0  0  0  0  0  0  0  0
    5.1034   -1.5645   -2.3832 C   0  0  0  0  0  0  0  0  0  0  0  0
    5.3726   -2.8846   -2.7165 C   0  0  0  0  0  0  0  0  0  0  0  0
    4.6933   -3.8952   -2.0176 C   0  0  0  0  0  0  0  0  0  0  0  0
    3.7691   -3.5703   -0.9917 C   0  0  0  0  0  0  0  0  0  0  0  0
    3.1153   -4.6258   -0.2904 N   0  0  0  0  0  0  0  0  0  0  0  0
    1.9923   -4.3434    1.0338 S   0  0  0  0  0  0  0  0  0  0  0  0
    2.6436   -3.5411    2.5272 C   0  0  0  0  0  0  0  0  0  0  0  0
    1.4072   -5.7330    1.3281 O   0  0  0  0  0  0  0  0  0  0  0  0
    0.7910   -3.6267    0.3984 O   0  0  0  0  0  0  0  0  0  0  0  0
    3.5248   -2.2076   -0.6810 C   0  0  0  0  0  0  0  0  0  0  0  0
    4.1992   -1.2230   -1.4111 C   0  0  0  0  0  0  0  0  0  0  0  0
   -7.8713   -0.4112   -2.2431 H   0  0  0  0  0  0  0  0  0  0  0  0
   -6.2186    0.0501   -1.6866 H   0  0  0  0  0  0  0  0  0  0  0  0
   -7.6591    0.3257   -0.6232 H   0  0  0  0  0  0  0  0  0  0  0  0
   -6.6064   -2.4140   -1.5839 H   0  0  0  0  0  0  0  0  0  0  0  0
   -8.0089   -2.1715   -0.4842 H   0  0  0  0  0  0  0  0  0  0  0  0
   -5.0667   -1.4289    0.0823 H   0  0  0  0  0  0  0  0  0  0  0  0
   -5.9361   -2.8789    0.7095 H   0  0  0  0  0  0  0  0  0  0  0  0
   -7.5826   -1.4308    1.8470 H   0  0  0  0  0  0  0  0  0  0  0  0
   -6.6859    0.0471    1.3949 H   0  0  0  0  0  0  0  0  0  0  0  0
   -5.6937   -2.2085    3.0977 H   0  0  0  0  0  0  0  0  0  0  0  0
   -6.4666    0.5961    3.7728 H   0  0  0  0  0  0  0  0  0  0  0  0
   -5.5739   -0.5139    4.8748 H   0  0  0  0  0  0  0  0  0  0  0  0
   -7.4316   -2.1561    4.7832 H   0  0  0  0  0  0  0  0  0  0  0  0
   -8.4174   -1.0217    3.7912 H   0  0  0  0  0  0  0  0  0  0  0  0
   -7.3525   -0.4893    6.6362 H   0  0  0  0  0  0  0  0  0  0  0  0
   -9.0286   -0.9519    6.1748 H   0  0  0  0  0  0  0  0  0  0  0  0
   -8.9056    1.4643    6.5978 H   0  0  0  0  0  0  0  0  0  0  0  0
   -7.6158    1.6754    5.3732 H   0  0  0  0  0  0  0  0  0  0  0  0
   -9.2755    1.1630    4.8584 H   0  0  0  0  0  0  0  0  0  0  0  0
   -3.8135   -1.4462    1.9025 H   0  0  0  0  0  0  0  0  0  0  0  0
   -3.7329   -0.9530    3.5937 H   0  0  0  0  0  0  0  0  0  0  0  0
   -4.5607    1.3664    2.9756 H   0  0  0  0  0  0  0  0  0  0  0  0
   -4.5834    0.8811    1.2395 H   0  0  0  0  0  0  0  0  0  0  0  0
   -2.1426    0.9191    3.1182 H   0  0  0  0  0  0  0  0  0  0  0  0
   -2.5755    2.1558    1.8664 H   0  0  0  0  0  0  0  0  0  0  0  0
   -0.1980    2.0214    2.2868 H   0  0  0  0  0  0  0  0  0  0  0  0
    2.1083    2.2973    1.5842 H   0  0  0  0  0  0  0  0  0  0  0  0
    1.5257   -0.6705   -1.5012 H   0  0  0  0  0  0  0  0  0  0  0  0
   -0.7957   -0.9577   -0.7729 H   0  0  0  0  0  0  0  0  0  0  0  0
    4.9583    2.7248   -2.1151 H   0  0  0  0  0  0  0  0  0  0  0  0
    5.3518    2.1170   -3.7477 H   0  0  0  0  0  0  0  0  0  0  0  0
    7.6421    1.4569   -2.9469 H   0  0  0  0  0  0  0  0  0  0  0  0
    7.2227    2.0432   -1.2869 H   0  0  0  0  0  0  0  0  0  0  0  0
    6.8756    4.3584   -2.1929 H   0  0  0  0  0  0  0  0  0  0  0  0
    7.2876    3.7721   -3.8518 H   0  0  0  0  0  0  0  0  0  0  0  0
    9.1554    3.7046   -1.3928 H   0  0  0  0  0  0  0  0  0  0  0  0
    9.2388    4.8655   -2.7723 H   0  0  0  0  0  0  0  0  0  0  0  0
    9.5677    3.1134   -3.0540 H   0  0  0  0  0  0  0  0  0  0  0  0
    6.0920   -3.1285   -3.4876 H   0  0  0  0  0  0  0  0  0  0  0  0
    4.8929   -4.9311   -2.2611 H   0  0  0  0  0  0  0  0  0  0  0  0
    3.3211   -5.6027   -0.5468 H   0  0  0  0  0  0  0  0  0  0  0  0
    2.7235   -4.2845    3.3469 H   0  0  0  0  0  0  0  0  0  0  0  0
    1.9651   -2.7186    2.8332 H   0  0  0  0  0  0  0  0  0  0  0  0
    3.6483   -3.1219    2.3135 H   0  0  0  0  0  0  0  0  0  0  0  0
    2.8460   -1.9281    0.1063 H   0  0  0  0  0  0  0  0  0  0  0  0
  1 40  1  0  0  0  0
  1 41  1  0  0  0  0
  1 42  1  0  0  0  0
  2  1  1  0  0  0  0
  2 43  1  0  0  0  0
  2 44  1  0  0  0  0
  3  2  1  0  0  0  0
  3 45  1  0  0  0  0
  3 46  1  0  0  0  0
  4  3  1  0  0  0  0
  4 47  1  0  0  0  0
  4 48  1  0  0  0  0
  5  4  1  0  0  0  0
  5 49  1  0  0  0  0
  6  5  1  0  0  0  0
  6 50  1  0  0  0  0
  6 51  1  0  0  0  0
  7  6  1  0  0  0  0
  7 52  1  0  0  0  0
  7 53  1  0  0  0  0
  8  7  1  0  0  0  0
  8 54  1  0  0  0  0
  8 55  1  0  0  0  0
  9  8  1  0  0  0  0
  9 56  1  0  0  0  0
  9 57  1  0  0  0  0
  9 58  1  0  0  0  0
 10  5  1  0  0  0  0
 10 59  1  0  0  0  0
 10 60  1  0  0  0  0
 11 10  1  0  0  0  0
 11 61  1  0  0  0  0
 11 62  1  0  0  0  0
 12 11  1  0  0  0  0
 12 63  1  0  0  0  0
 12 64  1  0  0  0  0
 13 12  1  0  0  0  0
 14 13  1  0  0  0  0
 15 14  2  0  0  0  0
 15 65  1  0  0  0  0
 16 15  1  0  0  0  0
 16 66  1  0  0  0  0
 17 16  2  0  0  0  0
 18 17  1  0  0  0  0
 18 67  1  0  0  0  0
 19 18  2  0  0  0  0
 19 14  1  0  0  0  0
 19 68  1  0  0  0  0
 20 17  1  0  0  0  0
 21 20  2  0  0  0  0
 22 20  1  0  0  0  0
 23 22  2  0  0  0  0
 24 23  1  0  0  0  0
 24 69  1  0  0  0  0
 24 70  1  0  0  0  0
 25 24  1  0  0  0  0
 25 71  1  0  0  0  0
 25 72  1  0  0  0  0
 26 25  1  0  0  0  0
 26 73  1  0  0  0  0
 26 74  1  0  0  0  0
 27 26  1  0  0  0  0
 27 75  1  0  0  0  0
 27 76  1  0  0  0  0
 27 77  1  0  0  0  0
 28 23  1  0  0  0  0
 29 28  1  0  0  0  0
 30 29  2  0  0  0  0
 30 78  1  0  0  0  0
 31 30  1  0  0  0  0
 31 79  1  0  0  0  0
 32 31  2  0  0  0  0
 33 32  1  0  0  0  0
 33 80  1  0  0  0  0
 34 33  1  0  0  0  0
 35 34  1  0  0  0  0
 35 81  1  0  0  0  0
 35 82  1  0  0  0  0
 35 83  1  0  0  0  0
 36 34  2  0  0  0  0
 37 34  2  0  0  0  0
 38 32  1  0  0  0  0
 38 84  1  0  0  0  0
 39 38  2  0  0  0  0
 39 22  1  0  0  0  0
 39 29  1  0  0  0  0
M  CHG  1   5   1
M  END
>  <MOL Chiral Flag>
0

>  <energy>
24.527352501912659

$$$$
> 452_AKC_AAC.01350-13
>436.sdf
 OpenBabel10062213453D

 48 48  0  0  0  0  0  0  0  0999 V2000
   -8.8310    2.4086   -0.9511 C   0  0  0  0  0  0  0  0  0  0  0  0
   -7.3923    2.8700   -0.7394 C   0  0  0  0  0  0  0  0  0  0  0  0
   -6.8192    2.2888    0.5602 C   0  0  0  0  0  0  0  0  0  0  0  0
   -5.3848    2.7527    0.8521 C   0  0  0  0  0  0  0  0  0  0  0  0
   -4.3639    2.2410   -0.1757 C   0  0  0  0  0  0  0  0  0  0  0  0
   -2.9446    2.6430    0.2319 C   0  0  0  0  0  0  0  0  0  0  0  0
   -1.9014    2.0561   -0.7266 C   0  0  0  0  0  0  0  0  0  0  0  0
   -0.4945    2.4231   -0.2648 C   0  0  0  0  0  0  0  0  0  0  0  0
    0.4716    1.8335   -1.1210 O   0  0  0  0  0  0  0  0  0  0  0  0
    1.1933    0.8094   -0.4482 C   0  0  2  0  0  0  0  0  0  0  0  0
    1.8284    1.3225    0.7031 O   0  0  0  0  0  0  0  0  0  0  0  0
    2.9672    2.0155    0.2262 C   0  0  1  0  0  0  0  0  0  0  0  0
    4.0911    2.0187    1.2845 C   0  0  2  0  0  0  0  0  0  0  0  0
    5.1576    2.8117    0.8278 O   0  0  0  0  0  0  0  0  0  0  0  0
    4.6076    0.6379    1.7100 C   0  0  0  0  0  0  0  0  0  0  0  0
    5.2865    0.0121    0.6568 O   0  0  0  0  0  0  0  0  0  0  0  0
    3.3188    1.4573   -1.1753 C   0  0  2  0  0  0  0  0  0  0  0  0
    3.0166    2.4363   -2.1386 O   0  0  0  0  0  0  0  0  0  0  0  0
    2.3423    0.3020   -1.3026 C   0  0  1  0  0  0  0  0  0  0  0  0
    2.8939   -0.8351   -0.6887 O   0  0  0  0  0  0  0  0  0  0  0  0
   -9.4716    2.7380   -0.1053 H   0  0  0  0  0  0  0  0  0  0  0  0
   -8.8716    1.3010   -1.0293 H   0  0  0  0  0  0  0  0  0  0  0  0
   -9.2285    2.8466   -1.8905 H   0  0  0  0  0  0  0  0  0  0  0  0
   -6.7922    2.5399   -1.6123 H   0  0  0  0  0  0  0  0  0  0  0  0
   -7.3735    3.9804   -0.6883 H   0  0  0  0  0  0  0  0  0  0  0  0
   -7.4602    2.6220    1.4058 H   0  0  0  0  0  0  0  0  0  0  0  0
   -6.8450    1.1772    0.5240 H   0  0  0  0  0  0  0  0  0  0  0  0
   -5.1056    2.3474    1.8499 H   0  0  0  0  0  0  0  0  0  0  0  0
   -5.3507    3.8629    0.9084 H   0  0  0  0  0  0  0  0  0  0  0  0
   -4.4264    1.1315   -0.2186 H   0  0  0  0  0  0  0  0  0  0  0  0
   -4.5781    2.6549   -1.1834 H   0  0  0  0  0  0  0  0  0  0  0  0
   -2.7440    2.2528    1.2547 H   0  0  0  0  0  0  0  0  0  0  0  0
   -2.8600    3.7523    0.2513 H   0  0  0  0  0  0  0  0  0  0  0  0
   -2.0654    2.4355   -1.7589 H   0  0  0  0  0  0  0  0  0  0  0  0
   -1.9958    0.9482   -0.7310 H   0  0  0  0  0  0  0  0  0  0  0  0
   -0.3603    3.5258   -0.2903 H   0  0  0  0  0  0  0  0  0  0  0  0
   -0.3937    2.1241    0.8057 H   0  0  0  0  0  0  0  0  0  0  0  0
    0.5066   -0.0348   -0.2107 H   0  0  0  0  0  0  0  0  0  0  0  0
    2.6753    3.0855    0.1111 H   0  0  0  0  0  0  0  0  0  0  0  0
    3.6328    2.4881    2.1899 H   0  0  0  0  0  0  0  0  0  0  0  0
    5.5162    3.3028    1.6130 H   0  0  0  0  0  0  0  0  0  0  0  0
    5.3170    0.7708    2.5563 H   0  0  0  0  0  0  0  0  0  0  0  0
    3.7483    0.0224    2.0628 H   0  0  0  0  0  0  0  0  0  0  0  0
    5.1990   -0.9652    0.8004 H   0  0  0  0  0  0  0  0  0  0  0  0
    4.3814    1.1538   -1.3068 H   0  0  0  0  0  0  0  0  0  0  0  0
    3.3723    2.1026   -3.0042 H   0  0  0  0  0  0  0  0  0  0  0  0
    2.0910    0.0525   -2.3600 H   0  0  0  0  0  0  0  0  0  0  0  0
    2.2900   -1.5947   -0.9029 H   0  0  0  0  0  0  0  0  0  0  0  0
  1 21  1  0  0  0  0
  1 22  1  0  0  0  0
  1 23  1  0  0  0  0
  2  1  1  0  0  0  0
  2 24  1  0  0  0  0
  2 25  1  0  0  0  0
  3  2  1  0  0  0  0
  3 26  1  0  0  0  0
  3 27  1  0  0  0  0
  4  3  1  0  0  0  0
  4 28  1  0  0  0  0
  4 29  1  0  0  0  0
  5  4  1  0  0  0  0
  5 30  1  0  0  0  0
  5 31  1  0  0  0  0
  6  5  1  0  0  0  0
  6 32  1  0  0  0  0
  6 33  1  0  0  0  0
  7  6  1  0  0  0  0
  7 34  1  0  0  0  0
  7 35  1  0  0  0  0
  8  7  1  0  0  0  0
  8 36  1  0  0  0  0
  8 37  1  0  0  0  0
  9  8  1  0  0  0  0
 10  9  1  0  0  0  0
 10 38  1  1  0  0  0
 11 10  1  0  0  0  0
 12 11  1  0  0  0  0
 12 39  1  6  0  0  0
 13 12  1  0  0  0  0
 13 40  1  1  0  0  0
 14 13  1  0  0  0  0
 14 41  1  0  0  0  0
 15 13  1  0  0  0  0
 15 42  1  0  0  0  0
 15 43  1  0  0  0  0
 16 15  1  0  0  0  0
 16 44  1  0  0  0  0
 17 12  1  0  0  0  0
 17 45  1  6  0  0  0
 18 17  1  0  0  0  0
 18 46  1  0  0  0  0
 19 17  1  0  0  0  0
 19 10  1  0  0  0  0
 19 47  1  6  0  0  0
 20 19  1  0  0  0  0
 20 48  1  0  0  0  0
M  END
>  <MOL Chiral Flag>
0

>  <energy>
110.14134621103565

$$$$
> 453_AKC_C3MD00282A
>437.sdf
 OpenBabel10062213473D

 80 84  0  0  0  0  0  0  0  0999 V2000
    0.6031    5.3056    0.3482 C   0  0  0  0  0  0  0  0  0  0  0  0
   -0.1480    4.6227    1.4641 C   0  0  0  0  0  0  0  0  0  0  0  0
    0.3549    4.6440    2.7133 C   0  0  0  0  0  0  0  0  0  0  0  0
   -1.4933    3.9650    1.1694 C   0  0  2  0  0  0  0  0  0  0  0  0
   -2.6568    4.6596    1.9381 C   0  0  0  0  0  0  0  0  0  0  0  0
   -3.3133    3.5589    2.7835 C   0  0  0  0  0  0  0  0  0  0  0  0
   -3.1174    2.3145    1.9122 C   0  0  2  0  0  0  0  0  0  0  0  0
   -3.3435    0.9780    2.6522 C   0  0  0  0  0  0  0  0  0  0  0  0
   -2.8518   -0.2010    1.7743 C   0  0  0  0  0  0  0  0  0  0  0  0
   -1.3257   -0.1068    1.3692 C   0  0  2  0  0  0  0  0  0  0  0  0
   -0.5066   -0.2078    2.7182 C   0  0  0  0  0  0  0  0  0  0  0  0
   -1.0920    1.3024    0.6732 C   0  0  2  0  0  0  0  0  0  0  0  0
    0.3739    1.4643    0.2587 C   0  0  0  0  0  0  0  0  0  0  0  0
    0.8171    0.3514   -0.7063 C   0  0  0  0  0  0  0  0  0  0  0  0
    0.6455   -1.0762   -0.0950 C   0  0  2  0  0  0  0  0  0  0  0  0
    1.3786   -2.2742   -0.9022 C   0  0  1  0  0  0  0  0  0  0  0  0
    0.8439   -2.3989   -2.3665 C   0  0  0  0  0  0  0  0  0  0  0  0
    2.8925   -1.8763   -1.0248 C   0  0  0  0  0  0  0  0  0  0  0  0
    3.8684   -2.8817   -1.6443 C   0  0  0  0  0  0  0  0  0  0  0  0
    4.2617   -3.9604   -0.6848 C   0  0  0  0  0  0  0  0  0  0  0  0
    5.4362   -4.0173   -0.3455 O   0  0  0  0  0  0  0  0  0  0  0  0
    3.3902   -4.8560   -0.1503 N   0  0  0  0  0  0  0  0  0  0  0  0
    1.9485   -4.9702   -0.4178 C   0  0  0  0  0  0  0  0  0  0  0  0
    1.7003   -5.4950   -1.8497 C   0  0  0  0  0  0  0  0  0  0  0  0
    1.4620   -6.1326    0.5083 C   0  0  0  0  0  0  0  0  0  0  0  0
    1.1803   -3.6103   -0.0365 C   0  0  2  0  0  0  0  0  0  0  0  0
   -0.3560   -3.8297    0.1973 C   0  0  0  0  0  0  0  0  0  0  0  0
   -0.9716   -2.6823    1.0100 C   0  0  0  0  0  0  0  0  0  0  0  0
   -0.8769   -1.2891    0.3360 C   0  0  1  0  0  0  0  0  0  0  0  0
   -1.8556   -1.3047   -0.8908 C   0  0  0  0  0  0  0  0  0  0  0  0
   -1.6135    2.4679    1.5780 C   0  0  1  0  0  0  0  0  0  0  0  0
   -4.0893    2.3964    0.7219 C   0  0  0  0  0  0  0  0  0  0  0  0
   -5.4170    2.3504    0.9486 O   0  0  0  0  0  0  0  0  0  0  0  0
   -3.6900    2.5275   -0.4237 O   0  0  0  0  0  0  0  0  0  0  0  0
    1.5534    5.7605    0.7023 H   0  0  0  0  0  0  0  0  0  0  0  0
   -0.0296    6.1154   -0.0712 H   0  0  0  0  0  0  0  0  0  0  0  0
    0.8467    4.5945   -0.4626 H   0  0  0  0  0  0  0  0  0  0  0  0
   -0.1763    4.1881    3.5420 H   0  0  0  0  0  0  0  0  0  0  0  0
    1.3030    5.1284    2.9250 H   0  0  0  0  0  0  0  0  0  0  0  0
   -1.7217    4.0634    0.0849 H   0  0  0  0  0  0  0  0  0  0  0  0
   -3.4019    4.9854    1.1779 H   0  0  0  0  0  0  0  0  0  0  0  0
   -2.3870    5.5597    2.5318 H   0  0  0  0  0  0  0  0  0  0  0  0
   -2.7121    3.4417    3.7147 H   0  0  0  0  0  0  0  0  0  0  0  0
   -4.3583    3.7803    3.0903 H   0  0  0  0  0  0  0  0  0  0  0  0
   -2.8116    0.9772    3.6229 H   0  0  0  0  0  0  0  0  0  0  0  0
   -4.4199    0.8501    2.8996 H   0  0  0  0  0  0  0  0  0  0  0  0
   -3.0523   -1.1513    2.3115 H   0  0  0  0  0  0  0  0  0  0  0  0
   -3.5024   -0.1779    0.8833 H   0  0  0  0  0  0  0  0  0  0  0  0
    0.5873   -0.1595    2.5986 H   0  0  0  0  0  0  0  0  0  0  0  0
   -0.7509   -1.1284    3.2798 H   0  0  0  0  0  0  0  0  0  0  0  0
   -0.7224    0.5796    3.4540 H   0  0  0  0  0  0  0  0  0  0  0  0
   -1.6698    1.3522   -0.2618 H   0  0  0  0  0  0  0  0  0  0  0  0
    0.5008    2.4260   -0.2690 H   0  0  0  0  0  0  0  0  0  0  0  0
    1.0340    1.4826    1.1500 H   0  0  0  0  0  0  0  0  0  0  0  0
    0.2517    0.4385   -1.6556 H   0  0  0  0  0  0  0  0  0  0  0  0
    1.8724    0.5875   -0.9269 H   0  0  0  0  0  0  0  0  0  0  0  0
    1.2305   -1.0571    0.8409 H   0  0  0  0  0  0  0  0  0  0  0  0
    1.4822   -2.9855   -3.0306 H   0  0  0  0  0  0  0  0  0  0  0  0
   -0.1150   -2.9075   -2.4762 H   0  0  0  0  0  0  0  0  0  0  0  0
    0.8022   -1.4086   -2.8611 H   0  0  0  0  0  0  0  0  0  0  0  0
    3.3044   -1.5720   -0.0369 H   0  0  0  0  0  0  0  0  0  0  0  0
    2.9607   -1.0017   -1.7014 H   0  0  0  0  0  0  0  0  0  0  0  0
    4.7984   -2.3125   -1.8741 H   0  0  0  0  0  0  0  0  0  0  0  0
    3.5463   -3.2773   -2.6189 H   0  0  0  0  0  0  0  0  0  0  0  0
    3.8027   -5.5176    0.5291 H   0  0  0  0  0  0  0  0  0  0  0  0
    0.6122   -5.6026   -2.0453 H   0  0  0  0  0  0  0  0  0  0  0  0
    2.1728   -6.4936   -1.9765 H   0  0  0  0  0  0  0  0  0  0  0  0
    2.1490   -4.8930   -2.6407 H   0  0  0  0  0  0  0  0  0  0  0  0
    0.4209   -6.4534    0.3015 H   0  0  0  0  0  0  0  0  0  0  0  0
    2.0721   -7.0485    0.3446 H   0  0  0  0  0  0  0  0  0  0  0  0
    1.5652   -5.8514    1.5794 H   0  0  0  0  0  0  0  0  0  0  0  0
    1.5897   -3.3880    0.9757 H   0  0  0  0  0  0  0  0  0  0  0  0
   -0.8973   -4.0295   -0.7457 H   0  0  0  0  0  0  0  0  0  0  0  0
   -0.5504   -4.6944    0.8535 H   0  0  0  0  0  0  0  0  0  0  0  0
   -2.0290   -2.9249    1.2505 H   0  0  0  0  0  0  0  0  0  0  0  0
   -0.4036   -2.6987    1.9574 H   0  0  0  0  0  0  0  0  0  0  0  0
   -2.8970   -1.5046   -0.5850 H   0  0  0  0  0  0  0  0  0  0  0  0
   -1.8427   -0.3790   -1.4913 H   0  0  0  0  0  0  0  0  0  0  0  0
   -1.7077   -2.1218   -1.5873 H   0  0  0  0  0  0  0  0  0  0  0  0
   -1.0656    2.4028    2.5332 H   0  0  0  0  0  0  0  0  0  0  0  0
  1 35  1  0  0  0  0
  1 36  1  0  0  0  0
  1 37  1  0  0  0  0
  2  1  1  0  0  0  0
  3  2  2  0  0  0  0
  3 38  1  0  0  0  0
  3 39  1  0  0  0  0
  4  2  1  0  0  0  0
  4 40  1  6  0  0  0
  5  4  1  0  0  0  0
  5 41  1  0  0  0  0
  5 42  1  0  0  0  0
  6  5  1  0  0  0  0
  6 43  1  0  0  0  0
  6 44  1  0  0  0  0
  7  6  1  0  0  0  0
  7 32  1  6  0  0  0
  8  7  1  0  0  0  0
  8 45  1  0  0  0  0
  8 46  1  0  0  0  0
  9  8  1  0  0  0  0
  9 47  1  0  0  0  0
  9 48  1  0  0  0  0
 10  9  1  0  0  0  0
 10 11  1  1  0  0  0
 11 49  1  0  0  0  0
 11 50  1  0  0  0  0
 11 51  1  0  0  0  0
 12 10  1  0  0  0  0
 12 52  1  6  0  0  0
 13 12  1  0  0  0  0
 13 53  1  0  0  0  0
 13 54  1  0  0  0  0
 14 13  1  0  0  0  0
 14 55  1  0  0  0  0
 14 56  1  0  0  0  0
 15 14  1  0  0  0  0
 15 57  1  1  0  0  0
 16 15  1  0  0  0  0
 16 17  1  6  0  0  0
 17 58  1  0  0  0  0
 17 59  1  0  0  0  0
 17 60  1  0  0  0  0
 18 16  1  0  0  0  0
 18 61  1  0  0  0  0
 18 62  1  0  0  0  0
 19 18  1  0  0  0  0
 19 63  1  0  0  0  0
 19 64  1  0  0  0  0
 20 19  1  0  0  0  0
 21 20  2  0  0  0  0
 22 20  1  0  0  0  0
 22 65  1  0  0  0  0
 23 22  1  0  0  0  0
 24 23  1  0  0  0  0
 24 66  1  0  0  0  0
 24 67  1  0  0  0  0
 24 68  1  0  0  0  0
 25 23  1  0  0  0  0
 25 69  1  0  0  0  0
 25 70  1  0  0  0  0
 25 71  1  0  0  0  0
 26 23  1  0  0  0  0
 26 16  1  0  0  0  0
 26 72  1  1  0  0  0
 27 26  1  0  0  0  0
 27 73  1  0  0  0  0
 27 74  1  0  0  0  0
 28 27  1  0  0  0  0
 28 75  1  0  0  0  0
 28 76  1  0  0  0  0
 29 28  1  0  0  0  0
 29 10  1  0  0  0  0
 29 15  1  0  0  0  0
 29 30  1  6  0  0  0
 30 77  1  0  0  0  0
 30 78  1  0  0  0  0
 30 79  1  0  0  0  0
 31 12  1  0  0  0  0
 31  4  1  0  0  0  0
 31  7  1  0  0  0  0
 31 80  1  1  0  0  0
 33 32  1  0  0  0  0
 34 32  2  0  0  0  0
M  END
>  <MOL Chiral Flag>
0

>  <energy>
163.96542221632816

$$$$
> 454_AKC_cbdd.12235
>438.sdf
 OpenBabel10062213473D

 26 28  0  0  0  0  0  0  0  0999 V2000
    0.9590    0.7760    1.2836 N   0  0  0  0  0  0  0  0  0  0  0  0
    0.8855    0.0099    0.0909 C   0  0  0  0  0  0  0  0  0  0  0  0
    1.9579   -0.4966   -0.6318 C   0  0  0  0  0  0  0  0  0  0  0  0
    1.3948   -0.9770   -1.7998 C   0  0  0  0  0  0  0  0  0  0  0  0
    0.0594   -0.7957   -1.7580 N   0  0  0  0  0  0  0  0  0  0  0  0
   -0.2559   -0.2257   -0.6030 N   0  0  0  0  0  0  0  0  0  0  0  0
   -1.6249    0.0799   -0.2508 C   0  0  0  0  0  0  0  0  0  0  0  0
   -2.1428   -0.1119    1.0620 C   0  0  0  0  0  0  0  0  0  0  0  0
   -1.2126   -0.8428    2.3705 Cl  0  0  0  0  0  0  0  0  0  0  0  0
   -3.4821    0.1955    1.3319 C   0  0  0  0  0  0  0  0  0  0  0  0
   -4.3179    0.6741    0.3241 C   0  0  0  0  0  0  0  0  0  0  0  0
   -3.8292    0.8319   -0.9713 C   0  0  0  0  0  0  0  0  0  0  0  0
   -2.4968    0.5292   -1.2602 C   0  0  0  0  0  0  0  0  0  0  0  0
    3.4048   -0.5456   -0.3222 C   0  0  0  0  0  0  0  0  0  0  0  0
    4.3518   -0.8456   -1.2301 N   0  0  0  0  0  0  0  0  0  0  0  0
    5.5014   -0.8290   -0.5699 N   0  0  0  0  0  0  0  0  0  0  0  0
    5.2752   -0.5458    0.7037 N   0  0  0  0  0  0  0  0  0  0  0  0
    3.9786   -0.3678    0.8814 N   0  0  0  0  0  0  0  0  0  0  0  0
    1.8601    1.0400    1.6907 H   0  0  0  0  0  0  0  0  0  0  0  0
    0.1275    1.2674    1.6356 H   0  0  0  0  0  0  0  0  0  0  0  0
    1.9186   -1.4385   -2.6268 H   0  0  0  0  0  0  0  0  0  0  0  0
   -3.8819    0.0439    2.3267 H   0  0  0  0  0  0  0  0  0  0  0  0
   -5.3523    0.9039    0.5445 H   0  0  0  0  0  0  0  0  0  0  0  0
   -4.4853    1.1876   -1.7551 H   0  0  0  0  0  0  0  0  0  0  0  0
   -2.1354    0.6597   -2.2725 H   0  0  0  0  0  0  0  0  0  0  0  0
    3.5426   -0.1770    1.8057 H   0  0  0  0  0  0  0  0  0  0  0  0
  1 19  1  0  0  0  0
  1 20  1  0  0  0  0
  2  1  1  0  0  0  0
  3  2  2  0  0  0  0
  4  3  1  0  0  0  0
  4 21  1  0  0  0  0
  5  4  2  0  0  0  0
  6  5  1  0  0  0  0
  6  2  1  0  0  0  0
  7  6  1  0  0  0  0
  8  7  2  0  0  0  0
  9  8  1  0  0  0  0
 10  8  1  0  0  0  0
 10 22  1  0  0  0  0
 11 10  2  0  0  0  0
 11 23  1  0  0  0  0
 12 11  1  0  0  0  0
 12 24  1  0  0  0  0
 13 12  2  0  0  0  0
 13  7  1  0  0  0  0
 13 25  1  0  0  0  0
 14  3  1  0  0  0  0
 15 14  2  0  0  0  0
 16 15  1  0  0  0  0
 17 16  2  0  0  0  0
 18 17  1  0  0  0  0
 18 14  1  0  0  0  0
 18 26  1  0  0  0  0
M  END
>  <MOL Chiral Flag>
0

>  <energy>
83.995565315320277

$$$$
> 455_AKC_cbdd.12235
>439.sdf
 OpenBabel10062213473D

 26 28  0  0  0  0  0  0  0  0999 V2000
    0.9917    0.7063    1.3940 N   0  0  0  0  0  0  0  0  0  0  0  0
    0.9244    0.0266    0.1477 C   0  0  0  0  0  0  0  0  0  0  0  0
    2.0090   -0.3677   -0.6266 C   0  0  0  0  0  0  0  0  0  0  0  0
    1.4586   -1.1390   -1.6323 C   0  0  0  0  0  0  0  0  0  0  0  0
    0.1187   -1.1665   -1.4902 N   0  0  0  0  0  0  0  0  0  0  0  0
   -0.2142   -0.4436   -0.4288 N   0  0  0  0  0  0  0  0  0  0  0  0
   -1.6005   -0.2195   -0.0699 C   0  0  0  0  0  0  0  0  0  0  0  0
   -2.5880   -1.1294   -0.4982 C   0  0  0  0  0  0  0  0  0  0  0  0
   -3.9375   -0.9109   -0.1955 C   0  0  0  0  0  0  0  0  0  0  0  0
   -5.2630   -2.1573   -0.7758 Br  0  0  0  0  0  0  0  0  0  0  0  0
   -4.3189    0.2236    0.5240 C   0  0  0  0  0  0  0  0  0  0  0  0
   -3.3563    1.1447    0.9332 C   0  0  0  0  0  0  0  0  0  0  0  0
   -2.0086    0.9327    0.6366 C   0  0  0  0  0  0  0  0  0  0  0  0
    3.4565   -0.0802   -0.4972 C   0  0  0  0  0  0  0  0  0  0  0  0
    4.4101   -0.7301   -1.1896 N   0  0  0  0  0  0  0  0  0  0  0  0
    5.5567   -0.1614   -0.8441 N   0  0  0  0  0  0  0  0  0  0  0  0
    5.3228    0.8167    0.0171 N   0  0  0  0  0  0  0  0  0  0  0  0
    4.0240    0.8875    0.2459 N   0  0  0  0  0  0  0  0  0  0  0  0
    1.8936    0.9214    1.8255 H   0  0  0  0  0  0  0  0  0  0  0  0
    0.1772    0.7502    2.0152 H   0  0  0  0  0  0  0  0  0  0  0  0
    1.9936   -1.6327   -2.4332 H   0  0  0  0  0  0  0  0  0  0  0  0
   -2.3093   -2.0108   -1.0616 H   0  0  0  0  0  0  0  0  0  0  0  0
   -5.3618    0.3994    0.7535 H   0  0  0  0  0  0  0  0  0  0  0  0
   -3.6550    2.0356    1.4708 H   0  0  0  0  0  0  0  0  0  0  0  0
   -1.3080    1.6961    0.9271 H   0  0  0  0  0  0  0  0  0  0  0  0
    3.5844    1.6080    0.8526 H   0  0  0  0  0  0  0  0  0  0  0  0
  1 19  1  0  0  0  0
  1 20  1  0  0  0  0
  2  1  1  0  0  0  0
  3  2  2  0  0  0  0
  4  3  1  0  0  0  0
  4 21  1  0  0  0  0
  5  4  2  0  0  0  0
  6  5  1  0  0  0  0
  6  2  1  0  0  0  0
  7  6  1  0  0  0  0
  8  7  2  0  0  0  0
  8 22  1  0  0  0  0
  9  8  1  0  0  0  0
 10  9  1  0  0  0  0
 11  9  2  0  0  0  0
 11 23  1  0  0  0  0
 12 11  1  0  0  0  0
 12 24  1  0  0  0  0
 13 12  2  0  0  0  0
 13  7  1  0  0  0  0
 13 25  1  0  0  0  0
 14  3  1  0  0  0  0
 15 14  2  0  0  0  0
 16 15  1  0  0  0  0
 17 16  2  0  0  0  0
 18 17  1  0  0  0  0
 18 14  1  0  0  0  0
 18 26  1  0  0  0  0
M  END
>  <MOL Chiral Flag>
0

>  <energy>
80.537050878684198

$$$$
> 456_AKC_cbdd.12239
>440.sdf
 OpenBabel10062213483D

 73 78  0  0  0  0  0  0  0  0999 V2000
    1.9039    1.1804    2.0279 O   0  0  0  0  0  0  0  0  0  0  0  0
    1.6519    1.9393    1.0996 C   0  0  0  0  0  0  0  0  0  0  0  0
    2.5980    1.9733   -0.0464 C   0  0  0  0  0  0  0  0  0  0  0  0
    3.1257    0.8138   -0.6945 C   0  0  0  0  0  0  0  0  0  0  0  0
    4.2525    1.3600   -1.8039 S   0  0  0  0  0  0  0  0  0  0  0  0
    4.1382    2.9856   -1.5289 C   0  0  0  0  0  0  0  0  0  0  0  0
    3.1911    3.1892   -0.5286 C   0  0  0  0  0  0  0  0  0  0  0  0
    2.9580    4.4900   -0.0564 C   0  0  0  0  0  0  0  0  0  0  0  0
    3.6692    5.5617   -0.6223 C   0  0  0  0  0  0  0  0  0  0  0  0
    4.6109    5.3338   -1.6447 C   0  0  0  0  0  0  0  0  0  0  0  0
    4.8545    4.0307   -2.1049 C   0  0  0  0  0  0  0  0  0  0  0  0
    2.8136   -0.6292   -0.4347 C   0  0  0  0  0  0  0  0  0  0  0  0
    1.6278   -1.0161    0.2192 C   0  0  0  0  0  0  0  0  0  0  0  0
    1.4142   -2.3400    0.5807 C   0  0  0  0  0  0  0  0  0  0  0  0
    2.3534   -3.3171    0.2729 C   0  0  0  0  0  0  0  0  0  0  0  0
    2.1646   -4.5594    0.7605 O   0  0  0  0  0  0  0  0  0  0  0  0
    2.0039   -5.7280    0.0555 C   0  0  0  0  0  0  0  0  0  0  0  0
    3.1791   -6.6949    0.2662 C   0  0  0  0  0  0  0  0  0  0  0  0
    3.6565   -6.9875    1.6844 C   0  0  0  0  0  0  0  0  0  0  0  0
    3.1537   -6.3429    2.8395 C   0  0  0  0  0  0  0  0  0  0  0  0
    3.6937   -6.6272    4.0987 C   0  0  0  0  0  0  0  0  0  0  0  0
    4.7176   -7.5655    4.2303 C   0  0  0  0  0  0  0  0  0  0  0  0
    5.2058   -8.2257    3.1031 C   0  0  0  0  0  0  0  0  0  0  0  0
    4.6844   -7.9356    1.8393 C   0  0  0  0  0  0  0  0  0  0  0  0
    3.5023   -2.9754   -0.4536 C   0  0  0  0  0  0  0  0  0  0  0  0
    3.7327   -1.6353   -0.8067 C   0  0  0  0  0  0  0  0  0  0  0  0
    0.3840    2.7277    1.1429 C   0  0  0  0  0  0  0  0  0  0  0  0
   -0.0665    3.4704    0.0321 C   0  0  0  0  0  0  0  0  0  0  0  0
   -1.2805    4.1616    0.0874 C   0  0  0  0  0  0  0  0  0  0  0  0
   -2.0730    4.1149    1.2445 C   0  0  0  0  0  0  0  0  0  0  0  0
   -3.4011    4.8395    1.2998 C   0  0  0  0  0  0  0  0  0  0  0  0
   -4.3609    4.3426    0.2832 N   0  3  0  0  0  0  0  0  0  0  0  0
   -4.6721    2.9046    0.4928 C   0  0  0  0  0  0  0  0  0  0  0  0
   -5.6559    2.3936   -0.5706 C   0  0  0  0  0  0  0  0  0  0  0  0
   -6.9438    3.2159   -0.5229 C   0  0  0  0  0  0  0  0  0  0  0  0
   -6.6116    4.6955   -0.7221 C   0  0  0  0  0  0  0  0  0  0  0  0
   -5.6031    5.1510    0.3439 C   0  0  0  0  0  0  0  0  0  0  0  0
   -1.6296    3.3765    2.3506 C   0  0  0  0  0  0  0  0  0  0  0  0
   -0.4171    2.6887    2.2990 C   0  0  0  0  0  0  0  0  0  0  0  0
    2.2552    4.6822    0.7415 H   0  0  0  0  0  0  0  0  0  0  0  0
    3.4985    6.5677   -0.2614 H   0  0  0  0  0  0  0  0  0  0  0  0
    5.1593    6.1667   -2.0654 H   0  0  0  0  0  0  0  0  0  0  0  0
    5.5923    3.8440   -2.8739 H   0  0  0  0  0  0  0  0  0  0  0  0
    0.8617   -0.3077    0.4743 H   0  0  0  0  0  0  0  0  0  0  0  0
    0.5178   -2.6061    1.1266 H   0  0  0  0  0  0  0  0  0  0  0  0
    1.8757   -5.5337   -1.0325 H   0  0  0  0  0  0  0  0  0  0  0  0
    1.0723   -6.2058    0.4278 H   0  0  0  0  0  0  0  0  0  0  0  0
    2.8870   -7.6545   -0.2147 H   0  0  0  0  0  0  0  0  0  0  0  0
    4.0539   -6.2908   -0.2858 H   0  0  0  0  0  0  0  0  0  0  0  0
    2.3653   -5.6124    2.7916 H   0  0  0  0  0  0  0  0  0  0  0  0
    3.3192   -6.1136    4.9753 H   0  0  0  0  0  0  0  0  0  0  0  0
    5.1326   -7.7810    5.2065 H   0  0  0  0  0  0  0  0  0  0  0  0
    5.9961   -8.9579    3.2064 H   0  0  0  0  0  0  0  0  0  0  0  0
    5.0832   -8.4499    0.9734 H   0  0  0  0  0  0  0  0  0  0  0  0
    4.2414   -3.7291   -0.6937 H   0  0  0  0  0  0  0  0  0  0  0  0
    4.6517   -1.3813   -1.3191 H   0  0  0  0  0  0  0  0  0  0  0  0
    0.5073    3.5068   -0.8827 H   0  0  0  0  0  0  0  0  0  0  0  0
   -1.6074    4.7252   -0.7773 H   0  0  0  0  0  0  0  0  0  0  0  0
   -3.1986    5.9218    1.1370 H   0  0  0  0  0  0  0  0  0  0  0  0
   -3.8502    4.7385    2.3148 H   0  0  0  0  0  0  0  0  0  0  0  0
   -3.9384    4.4665   -0.6675 H   0  0  0  0  0  0  0  0  0  0  0  0
   -5.1088    2.7465    1.5056 H   0  0  0  0  0  0  0  0  0  0  0  0
   -3.7503    2.2876    0.4171 H   0  0  0  0  0  0  0  0  0  0  0  0
   -5.8858    1.3213   -0.3918 H   0  0  0  0  0  0  0  0  0  0  0  0
   -5.1910    2.4880   -1.5769 H   0  0  0  0  0  0  0  0  0  0  0  0
   -7.4363    3.0752    0.4648 H   0  0  0  0  0  0  0  0  0  0  0  0
   -7.6441    2.8727   -1.3143 H   0  0  0  0  0  0  0  0  0  0  0  0
   -7.5395    5.3026   -0.6513 H   0  0  0  0  0  0  0  0  0  0  0  0
   -6.1716    4.8454   -1.7326 H   0  0  0  0  0  0  0  0  0  0  0  0
   -6.0738    5.0634    1.3506 H   0  0  0  0  0  0  0  0  0  0  0  0
   -5.3727    6.2254    0.1661 H   0  0  0  0  0  0  0  0  0  0  0  0
   -2.2294    3.3230    3.2504 H   0  0  0  0  0  0  0  0  0  0  0  0
   -0.1078    2.1151    3.1644 H   0  0  0  0  0  0  0  0  0  0  0  0
  2  1  2  0  0  0  0
  3  2  1  0  0  0  0
  4  3  2  0  0  0  0
  5  4  1  0  0  0  0
  6  5  1  0  0  0  0
  7  6  2  0  0  0  0
  7  3  1  0  0  0  0
  8  7  1  0  0  0  0
  8 40  1  0  0  0  0
  9  8  2  0  0  0  0
  9 41  1  0  0  0  0
 10  9  1  0  0  0  0
 10 42  1  0  0  0  0
 11 10  2  0  0  0  0
 11  6  1  0  0  0  0
 11 43  1  0  0  0  0
 12  4  1  0  0  0  0
 13 12  2  0  0  0  0
 13 44  1  0  0  0  0
 14 13  1  0  0  0  0
 14 45  1  0  0  0  0
 15 14  2  0  0  0  0
 16 15  1  0  0  0  0
 17 16  1  0  0  0  0
 17 46  1  0  0  0  0
 17 47  1  0  0  0  0
 18 17  1  0  0  0  0
 18 48  1  0  0  0  0
 18 49  1  0  0  0  0
 19 18  1  0  0  0  0
 20 19  2  0  0  0  0
 20 50  1  0  0  0  0
 21 20  1  0  0  0  0
 21 51  1  0  0  0  0
 22 21  2  0  0  0  0
 22 52  1  0  0  0  0
 23 22  1  0  0  0  0
 23 53  1  0  0  0  0
 24 23  2  0  0  0  0
 24 19  1  0  0  0  0
 24 54  1  0  0  0  0
 25 15  1  0  0  0  0
 25 55  1  0  0  0  0
 26 25  2  0  0  0  0
 26 12  1  0  0  0  0
 26 56  1  0  0  0  0
 27  2  1  0  0  0  0
 28 27  2  0  0  0  0
 28 57  1  0  0  0  0
 29 28  1  0  0  0  0
 29 58  1  0  0  0  0
 30 29  2  0  0  0  0
 31 30  1  0  0  0  0
 31 59  1  0  0  0  0
 31 60  1  0  0  0  0
 32 31  1  0  0  0  0
 32 61  1  0  0  0  0
 33 32  1  0  0  0  0
 33 62  1  0  0  0  0
 33 63  1  0  0  0  0
 34 33  1  0  0  0  0
 34 64  1  0  0  0  0
 34 65  1  0  0  0  0
 35 34  1  0  0  0  0
 35 66  1  0  0  0  0
 35 67  1  0  0  0  0
 36 35  1  0  0  0  0
 36 68  1  0  0  0  0
 36 69  1  0  0  0  0
 37 36  1  0  0  0  0
 37 32  1  0  0  0  0
 37 70  1  0  0  0  0
 37 71  1  0  0  0  0
 38 30  1  0  0  0  0
 38 72  1  0  0  0  0
 39 38  2  0  0  0  0
 39 27  1  0  0  0  0
 39 73  1  0  0  0  0
M  CHG  1  32   1
M  END
>  <MOL Chiral Flag>
0

>  <energy>
135.45603926398272

$$$$
> 457_AKC_s11010-013-1954-6
>441.sdf
 OpenBabel10062213493D

 39 41  0  0  0  0  0  0  0  0999 V2000
    5.8268    2.4457   -2.0369 Cl  0  0  0  0  0  0  0  0  0  0  0  0
    4.5903    1.4643   -1.2731 C   0  0  0  0  0  0  0  0  0  0  0  0
    4.0019    1.8879   -0.0771 C   0  0  0  0  0  0  0  0  0  0  0  0
    3.0173    1.1075    0.5335 C   0  0  0  0  0  0  0  0  0  0  0  0
    2.6097   -0.1016   -0.0518 C   0  0  0  0  0  0  0  0  0  0  0  0
    1.5433   -0.9238    0.6090 C   0  0  0  0  0  0  0  0  0  0  0  0
    0.3871   -0.1251    0.7424 O   0  0  0  0  0  0  0  0  0  0  0  0
   -0.7336   -0.9030    1.1263 C   0  0  1  0  0  0  0  0  0  0  0  0
   -1.5625   -0.0734    2.1259 C   0  0  0  0  0  0  0  0  0  0  0  0
   -1.7905    1.2949    1.6491 N   0  0  0  0  0  0  0  0  0  0  0  0
   -1.2631    2.4094    2.1864 C   0  0  0  0  0  0  0  0  0  0  0  0
   -1.7004    3.4876    1.4546 C   0  0  0  0  0  0  0  0  0  0  0  0
   -2.5057    3.0481    0.4646 N   0  0  0  0  0  0  0  0  0  0  0  0
   -2.5423    1.7059    0.6088 C   0  0  0  0  0  0  0  0  0  0  0  0
   -1.5199   -1.3737   -0.0920 C   0  0  0  0  0  0  0  0  0  0  0  0
   -1.3460   -0.7476   -1.3442 C   0  0  0  0  0  0  0  0  0  0  0  0
   -2.0293   -1.2105   -2.4711 C   0  0  0  0  0  0  0  0  0  0  0  0
   -2.8804   -2.3121   -2.3731 C   0  0  0  0  0  0  0  0  0  0  0  0
   -3.7143   -2.9068   -3.7974 Cl  0  0  0  0  0  0  0  0  0  0  0  0
   -3.0610   -2.9469   -1.1429 C   0  0  0  0  0  0  0  0  0  0  0  0
   -2.3952   -2.4845   -0.0014 C   0  0  0  0  0  0  0  0  0  0  0  0
   -2.6450   -3.3504    1.5131 Cl  0  0  0  0  0  0  0  0  0  0  0  0
    3.2024   -0.5229   -1.2541 C   0  0  0  0  0  0  0  0  0  0  0  0
    4.1912    0.2584   -1.8598 C   0  0  0  0  0  0  0  0  0  0  0  0
    4.3058    2.8211    0.3791 H   0  0  0  0  0  0  0  0  0  0  0  0
    2.5655    1.4450    1.4586 H   0  0  0  0  0  0  0  0  0  0  0  0
    1.3371   -1.8329   -0.0040 H   0  0  0  0  0  0  0  0  0  0  0  0
    1.9084   -1.2282    1.6147 H   0  0  0  0  0  0  0  0  0  0  0  0
   -0.4150   -1.8168    1.6843 H   0  0  0  0  0  0  0  0  0  0  0  0
   -0.9575   -0.0122    3.0580 H   0  0  0  0  0  0  0  0  0  0  0  0
   -2.5234   -0.5650    2.3876 H   0  0  0  0  0  0  0  0  0  0  0  0
   -0.6002    2.4348    3.0427 H   0  0  0  0  0  0  0  0  0  0  0  0
   -1.4480    4.5259    1.6275 H   0  0  0  0  0  0  0  0  0  0  0  0
   -3.1122    1.0490   -0.0334 H   0  0  0  0  0  0  0  0  0  0  0  0
   -0.6856    0.1031   -1.4508 H   0  0  0  0  0  0  0  0  0  0  0  0
   -1.8890   -0.7170   -3.4243 H   0  0  0  0  0  0  0  0  0  0  0  0
   -3.7136   -3.8086   -1.0742 H   0  0  0  0  0  0  0  0  0  0  0  0
    2.9012   -1.4532   -1.7199 H   0  0  0  0  0  0  0  0  0  0  0  0
    4.6455   -0.0725   -2.7850 H   0  0  0  0  0  0  0  0  0  0  0  0
  2  1  1  0  0  0  0
  3  2  2  0  0  0  0
  3 25  1  0  0  0  0
  4  3  1  0  0  0  0
  4 26  1  0  0  0  0
  5  4  2  0  0  0  0
  6  5  1  0  0  0  0
  6 27  1  0  0  0  0
  6 28  1  0  0  0  0
  7  6  1  0  0  0  0
  8  7  1  0  0  0  0
  8 29  1  1  0  0  0
  9  8  1  0  0  0  0
  9 30  1  0  0  0  0
  9 31  1  0  0  0  0
 10  9  1  0  0  0  0
 11 10  1  0  0  0  0
 11 32  1  0  0  0  0
 12 11  2  0  0  0  0
 12 33  1  0  0  0  0
 13 12  1  0  0  0  0
 14 13  2  0  0  0  0
 14 10  1  0  0  0  0
 14 34  1  0  0  0  0
 15  8  1  0  0  0  0
 16 15  2  0  0  0  0
 16 35  1  0  0  0  0
 17 16  1  0  0  0  0
 17 36  1  0  0  0  0
 18 17  2  0  0  0  0
 19 18  1  0  0  0  0
 20 18  1  0  0  0  0
 20 37  1  0  0  0  0
 21 20  2  0  0  0  0
 21 15  1  0  0  0  0
 22 21  1  0  0  0  0
 23  5  1  0  0  0  0
 23 38  1  0  0  0  0
 24 23  2  0  0  0  0
 24  2  1  0  0  0  0
 24 39  1  0  0  0  0
M  END
>  <MOL Chiral Flag>
0

>  <energy>
48.925320324932628

$$$$
> 458_AKC_PMC4289877
>442.sdf
 OpenBabel10062213493D

 43 47  0  0  0  0  0  0  0  0999 V2000
    5.9902   -0.5928    0.0951 C   0  0  0  0  0  0  0  0  0  0  0  0
    4.8005   -1.2259    0.3977 O   0  0  0  0  0  0  0  0  0  0  0  0
    3.5753   -0.6350    0.4401 C   0  0  0  0  0  0  0  0  0  0  0  0
    3.4401    0.7517    0.2223 C   0  0  0  0  0  0  0  0  0  0  0  0
    2.1905    1.3566    0.2385 C   0  0  0  0  0  0  0  0  0  0  0  0
    1.0413    0.5992    0.4710 C   0  0  0  0  0  0  0  0  0  0  0  0
   -0.2098    1.2130    0.4518 C   0  0  0  0  0  0  0  0  0  0  0  0
   -1.3728    0.4552    0.6718 C   0  0  0  0  0  0  0  0  0  0  0  0
   -2.7332    1.0654    0.5246 C   0  0  0  0  0  0  0  0  0  0  0  0
   -2.9378    2.4687    0.4268 C   0  0  0  0  0  0  0  0  0  0  0  0
   -4.2262    2.9294    0.1911 C   0  0  0  0  0  0  0  0  0  0  0  0
   -5.2705    2.1072    0.0617 C   0  0  0  0  0  0  0  0  0  0  0  0
   -6.3658    2.8252   -0.1877 O   0  0  0  0  0  0  0  0  0  0  0  0
   -6.0063    4.1771   -0.2315 C   0  0  0  0  0  0  0  0  0  0  0  0
   -4.6329    4.1880    0.0290 O   0  0  0  0  0  0  0  0  0  0  0  0
   -5.1442    0.7260    0.1576 C   0  0  0  0  0  0  0  0  0  0  0  0
   -3.8570    0.1918    0.3921 C   0  0  0  0  0  0  0  0  0  0  0  0
   -3.6520   -1.3020    0.4036 C   0  0  0  0  0  0  0  0  0  0  0  0
   -2.4690   -1.6578    1.3000 C   0  0  0  0  0  0  0  0  0  0  0  0
   -1.2627   -0.8892    0.9439 N   0  3  0  0  0  0  0  0  0  0  0  0
   -0.0416   -1.5107    0.9491 C   0  0  0  0  0  0  0  0  0  0  0  0
    1.1409   -0.7847    0.7050 C   0  0  0  0  0  0  0  0  0  0  0  0
    2.4093   -1.4179    0.6957 C   0  0  0  0  0  0  0  0  0  0  0  0
    2.4558   -2.7645    0.9254 O   0  0  0  0  0  0  0  0  0  0  0  0
    3.5731   -3.5715    0.9873 C   0  0  0  0  0  0  0  0  0  0  0  0
    6.8113   -1.3379    0.1107 H   0  0  0  0  0  0  0  0  0  0  0  0
    5.9410   -0.1493   -0.9231 H   0  0  0  0  0  0  0  0  0  0  0  0
    6.2125    0.1943    0.8464 H   0  0  0  0  0  0  0  0  0  0  0  0
    4.3033    1.3741    0.0318 H   0  0  0  0  0  0  0  0  0  0  0  0
    2.1192    2.4238    0.0616 H   0  0  0  0  0  0  0  0  0  0  0  0
   -0.2606    2.2672    0.2306 H   0  0  0  0  0  0  0  0  0  0  0  0
   -2.1381    3.1865    0.5077 H   0  0  0  0  0  0  0  0  0  0  0  0
   -6.5516    4.7507    0.5462 H   0  0  0  0  0  0  0  0  0  0  0  0
   -6.2081    4.5981   -1.2404 H   0  0  0  0  0  0  0  0  0  0  0  0
   -6.0065    0.0846    0.0275 H   0  0  0  0  0  0  0  0  0  0  0  0
   -4.5581   -1.8184    0.7920 H   0  0  0  0  0  0  0  0  0  0  0  0
   -3.4667   -1.6454   -0.6355 H   0  0  0  0  0  0  0  0  0  0  0  0
   -2.7557   -1.3690    2.3352 H   0  0  0  0  0  0  0  0  0  0  0  0
   -2.2846   -2.7554    1.3034 H   0  0  0  0  0  0  0  0  0  0  0  0
    0.0155   -2.5728    1.1591 H   0  0  0  0  0  0  0  0  0  0  0  0
    4.1093   -3.5721    0.0146 H   0  0  0  0  0  0  0  0  0  0  0  0
    3.2525   -4.6117    1.1995 H   0  0  0  0  0  0  0  0  0  0  0  0
    4.2408   -3.2424    1.8119 H   0  0  0  0  0  0  0  0  0  0  0  0
  1 26  1  0  0  0  0
  1 27  1  0  0  0  0
  1 28  1  0  0  0  0
  2  1  1  0  0  0  0
  3  2  1  0  0  0  0
  4  3  2  0  0  0  0
  4 29  1  0  0  0  0
  5  4  1  0  0  0  0
  5 30  1  0  0  0  0
  6  5  2  0  0  0  0
  7  6  1  0  0  0  0
  7 31  1  0  0  0  0
  8  7  2  0  0  0  0
  9  8  1  0  0  0  0
 10  9  2  0  0  0  0
 10 32  1  0  0  0  0
 11 10  1  0  0  0  0
 12 11  2  0  0  0  0
 13 12  1  0  0  0  0
 14 13  1  0  0  0  0
 14 33  1  0  0  0  0
 14 34  1  0  0  0  0
 15 14  1  0  0  0  0
 15 11  1  0  0  0  0
 16 12  1  0  0  0  0
 16 35  1  0  0  0  0
 17 16  2  0  0  0  0
 17  9  1  0  0  0  0
 18 17  1  0  0  0  0
 18 36  1  0  0  0  0
 18 37  1  0  0  0  0
 19 18  1  0  0  0  0
 19 38  1  0  0  0  0
 19 39  1  0  0  0  0
 20 19  1  0  0  0  0
 20  8  1  0  0  0  0
 21 20  2  0  0  0  0
 21 40  1  0  0  0  0
 22 21  1  0  0  0  0
 22  6  1  0  0  0  0
 23 22  2  0  0  0  0
 23  3  1  0  0  0  0
 24 23  1  0  0  0  0
 25 24  1  0  0  0  0
 25 41  1  0  0  0  0
 25 42  1  0  0  0  0
 25 43  1  0  0  0  0
M  CHG  1  20   1
M  END
>  <MOL Chiral Flag>
0

>  <energy>
101.29599094012809

$$$$
> 459_AKC_C3MD00299C
>443.sdf
 OpenBabel10062213493D

 49 51  0  0  0  0  0  0  0  0999 V2000
    5.6032    0.8859    5.0796 C   0  0  0  0  0  0  0  0  0  0  0  0
    5.1266    1.6371    4.0246 O   0  0  0  0  0  0  0  0  0  0  0  0
    4.1985    1.2206    3.1224 C   0  0  0  0  0  0  0  0  0  0  0  0
    3.6528   -0.0763    3.1464 C   0  0  0  0  0  0  0  0  0  0  0  0
    2.6953   -0.4552    2.2024 C   0  0  0  0  0  0  0  0  0  0  0  0
    2.2461    0.4471    1.2214 C   0  0  0  0  0  0  0  0  0  0  0  0
    1.2443   -0.0059    0.2924 N   0  0  0  0  0  0  0  0  0  0  0  0
    0.4627    0.7850   -0.5077 C   0  0  0  0  0  0  0  0  0  0  0  0
    0.5350    2.0001   -0.4402 O   0  0  0  0  0  0  0  0  0  0  0  0
   -0.5597    0.1747   -1.4162 C   0  0  0  0  0  0  0  0  0  0  0  0
   -0.3568   -1.0304   -2.1339 C   0  0  0  0  0  0  0  0  0  0  0  0
    0.8671   -1.9019   -2.2383 C   0  0  0  0  0  0  0  0  0  0  0  0
    0.5749   -3.2823   -1.7295 C   0  0  0  0  0  0  0  0  0  0  0  0
    0.6650   -4.2393   -2.4867 O   0  0  0  0  0  0  0  0  0  0  0  0
    0.2129   -3.4553   -0.4312 O   0  0  0  0  0  0  0  0  0  0  0  0
   -0.0849   -4.6821    0.1273 C   0  0  0  0  0  0  0  0  0  0  0  0
   -0.4116   -4.5040    1.4576 F   0  0  0  0  0  0  0  0  0  0  0  0
    1.0109   -5.5232    0.0429 F   0  0  0  0  0  0  0  0  0  0  0  0
   -1.1621   -5.2543   -0.5268 F   0  0  0  0  0  0  0  0  0  0  0  0
   -1.7387   -1.3266   -2.9915 S   0  0  0  0  0  0  0  0  0  0  0  0
   -2.6448   -0.0136   -2.5647 C   0  0  0  0  0  0  0  0  0  0  0  0
   -1.8641    0.7605   -1.6696 C   0  0  0  0  0  0  0  0  0  0  0  0
   -2.3942    1.9948   -0.9468 C   0  0  0  0  0  0  0  0  0  0  0  0
   -3.7564    1.6814   -0.3186 C   0  0  0  0  0  0  0  0  0  0  0  0
   -4.9354    1.8543   -1.2910 C   0  0  0  0  0  0  0  0  0  0  0  0
   -4.6592    1.5452   -2.7691 C   0  0  0  0  0  0  0  0  0  0  0  0
   -4.0512    0.1820   -3.0694 C   0  0  0  0  0  0  0  0  0  0  0  0
    2.8114    1.7449    1.1956 C   0  0  0  0  0  0  0  0  0  0  0  0
    3.7752    2.1169    2.1379 C   0  0  0  0  0  0  0  0  0  0  0  0
    6.1051   -0.0318    4.7062 H   0  0  0  0  0  0  0  0  0  0  0  0
    4.7709    0.6170    5.7650 H   0  0  0  0  0  0  0  0  0  0  0  0
    6.3439    1.4871    5.6457 H   0  0  0  0  0  0  0  0  0  0  0  0
    3.9605   -0.7971    3.8916 H   0  0  0  0  0  0  0  0  0  0  0  0
    2.2869   -1.4575    2.2443 H   0  0  0  0  0  0  0  0  0  0  0  0
    1.0374   -1.0141    0.3013 H   0  0  0  0  0  0  0  0  0  0  0  0
    1.7336   -1.4866   -1.6936 H   0  0  0  0  0  0  0  0  0  0  0  0
    1.1657   -1.9461   -3.3082 H   0  0  0  0  0  0  0  0  0  0  0  0
   -1.7264    2.2415   -0.1048 H   0  0  0  0  0  0  0  0  0  0  0  0
   -2.4511    2.8950   -1.5939 H   0  0  0  0  0  0  0  0  0  0  0  0
   -3.7196    0.6463    0.0898 H   0  0  0  0  0  0  0  0  0  0  0  0
   -3.9621    2.3538    0.5435 H   0  0  0  0  0  0  0  0  0  0  0  0
   -5.2366    2.9254   -1.2832 H   0  0  0  0  0  0  0  0  0  0  0  0
   -5.7960    1.2684   -0.9018 H   0  0  0  0  0  0  0  0  0  0  0  0
   -5.6248    1.6378   -3.3125 H   0  0  0  0  0  0  0  0  0  0  0  0
   -3.9809    2.3161   -3.1949 H   0  0  0  0  0  0  0  0  0  0  0  0
   -4.7056   -0.6351   -2.6978 H   0  0  0  0  0  0  0  0  0  0  0  0
   -4.0029    0.1068   -4.1775 H   0  0  0  0  0  0  0  0  0  0  0  0
    2.5430    2.4792    0.4577 H   0  0  0  0  0  0  0  0  0  0  0  0
    4.1963    3.1141    2.1032 H   0  0  0  0  0  0  0  0  0  0  0  0
  1 30  1  0  0  0  0
  1 31  1  0  0  0  0
  1 32  1  0  0  0  0
  2  1  1  0  0  0  0
  3  2  1  0  0  0  0
  4  3  2  0  0  0  0
  4 33  1  0  0  0  0
  5  4  1  0  0  0  0
  5 34  1  0  0  0  0
  6  5  2  0  0  0  0
  7  6  1  0  0  0  0
  7 35  1  0  0  0  0
  8  7  1  0  0  0  0
  9  8  2  0  0  0  0
 10  8  1  0  0  0  0
 11 10  2  0  0  0  0
 12 11  1  0  0  0  0
 12 36  1  0  0  0  0
 12 37  1  0  0  0  0
 13 12  1  0  0  0  0
 14 13  2  0  0  0  0
 15 13  1  0  0  0  0
 16 15  1  0  0  0  0
 17 16  1  0  0  0  0
 18 16  1  0  0  0  0
 19 16  1  0  0  0  0
 20 11  1  0  0  0  0
 21 20  1  0  0  0  0
 22 21  2  0  0  0  0
 22 10  1  0  0  0  0
 23 22  1  0  0  0  0
 23 38  1  0  0  0  0
 23 39  1  0  0  0  0
 24 23  1  0  0  0  0
 24 40  1  0  0  0  0
 24 41  1  0  0  0  0
 25 24  1  0  0  0  0
 25 42  1  0  0  0  0
 25 43  1  0  0  0  0
 26 25  1  0  0  0  0
 26 44  1  0  0  0  0
 26 45  1  0  0  0  0
 27 26  1  0  0  0  0
 27 21  1  0  0  0  0
 27 46  1  0  0  0  0
 27 47  1  0  0  0  0
 28  6  1  0  0  0  0
 28 48  1  0  0  0  0
 29 28  2  0  0  0  0
 29  3  1  0  0  0  0
 29 49  1  0  0  0  0
M  END
>  <MOL Chiral Flag>
0

>  <energy>
-7.5327483527466654

$$$$
> 460_AKC_AAC.01459-13
>444.sdf
 OpenBabel10062213503D

 29 30  0  0  0  0  0  0  0  0999 V2000
   -0.9655    1.9504   -0.5986 C   0  0  0  0  0  0  0  0  0  0  0  0
   -0.2235    0.6848   -0.1919 C   0  0  0  0  0  0  0  0  0  0  0  0
   -0.8821   -0.5874   -0.1474 C   0  0  0  0  0  0  0  0  0  0  0  0
   -2.3134   -0.6770   -0.3304 N   0  0  0  0  0  0  0  0  0  0  0  0
   -3.1990   -1.4312    0.4686 C   0  0  0  0  0  0  0  0  0  0  0  0
   -3.2727    0.1664    0.2700 C   0  0  0  0  0  0  0  0  0  0  0  0
   -0.0968   -1.7619    0.0893 C   0  0  0  0  0  0  0  0  0  0  0  0
    1.2750   -1.6253    0.3561 C   0  0  0  0  0  0  0  0  0  0  0  0
    1.9306   -0.3859    0.3619 C   0  0  0  0  0  0  0  0  0  0  0  0
    1.1742    0.7874    0.0712 C   0  0  0  0  0  0  0  0  0  0  0  0
    1.8168    2.1362   -0.0030 C   0  0  0  0  0  0  0  0  0  0  0  0
    2.8248    2.3754   -0.8740 N   0  0  0  0  0  0  0  0  0  0  0  0
    1.3813    3.0544    0.6761 O   0  0  0  0  0  0  0  0  0  0  0  0
    3.3391   -0.3587    0.6803 N   0  0  0  0  0  0  0  0  0  0  0  0
    3.9210    0.6726    0.8222 O   0  0  0  0  0  0  0  0  0  0  0  0
    3.9220   -1.3783    0.8982 O   0  0  0  0  0  0  0  0  0  0  0  0
   -0.6437   -3.0937    0.0376 N   0  0  0  0  0  0  0  0  0  0  0  0
   -1.6435   -3.3142   -0.5735 O   0  0  0  0  0  0  0  0  0  0  0  0
    0.0039   -4.0197    0.4249 O   0  0  0  0  0  0  0  0  0  0  0  0
   -1.0112    2.6665    0.2470 H   0  0  0  0  0  0  0  0  0  0  0  0
   -1.9818    1.7999   -0.9872 H   0  0  0  0  0  0  0  0  0  0  0  0
   -0.4320    2.4218   -1.4517 H   0  0  0  0  0  0  0  0  0  0  0  0
   -2.6644   -1.8375    1.3533 H   0  0  0  0  0  0  0  0  0  0  0  0
   -3.8019   -2.0812   -0.1992 H   0  0  0  0  0  0  0  0  0  0  0  0
   -2.7955    0.8153    1.0346 H   0  0  0  0  0  0  0  0  0  0  0  0
   -3.9103    0.5865   -0.5359 H   0  0  0  0  0  0  0  0  0  0  0  0
    1.8543   -2.5177    0.5540 H   0  0  0  0  0  0  0  0  0  0  0  0
    3.1591    1.6339   -1.5065 H   0  0  0  0  0  0  0  0  0  0  0  0
    3.2351    3.3184   -0.9458 H   0  0  0  0  0  0  0  0  0  0  0  0
  1 20  1  0  0  0  0
  1 21  1  0  0  0  0
  1 22  1  0  0  0  0
  2  1  1  0  0  0  0
  3  2  2  0  0  0  0
  4  3  1  0  0  0  0
  5  4  1  0  0  0  0
  5 23  1  0  0  0  0
  5 24  1  0  0  0  0
  6  5  1  0  0  0  0
  6  4  1  0  0  0  0
  6 25  1  0  0  0  0
  6 26  1  0  0  0  0
  7  3  1  0  0  0  0
  8  7  2  0  0  0  0
  8 27  1  0  0  0  0
  9  8  1  0  0  0  0
 10  9  2  0  0  0  0
 10  2  1  0  0  0  0
 11 10  1  0  0  0  0
 12 11  1  0  0  0  0
 12 28  1  0  0  0  0
 12 29  1  0  0  0  0
 13 11  2  0  0  0  0
 14  9  1  0  0  0  0
 15 14  2  0  0  0  0
 16 14  2  0  0  0  0
 17  7  1  0  0  0  0
 18 17  2  0  0  0  0
 19 17  2  0  0  0  0
M  END
>  <MOL Chiral Flag>
0

>  <energy>
57.707318041516459

$$$$
> 461_AKC_AAC.01459-13
>445.sdf
 OpenBabel10062213503D

 35 36  0  0  0  0  0  0  0  0999 V2000
    4.2265   -0.6930    0.2837 C   0  0  0  0  0  0  0  0  0  0  0  0
    2.7755   -0.5770    0.3624 N   0  0  0  0  0  0  0  0  0  0  0  0
    2.0386   -1.7916    0.6903 C   0  0  0  0  0  0  0  0  0  0  0  0
    2.1565    0.6454    0.1889 C   0  0  0  0  0  0  0  0  0  0  0  0
    2.8344    1.6452   -0.0105 O   0  0  0  0  0  0  0  0  0  0  0  0
    0.6704    0.8243    0.2803 C   0  0  0  0  0  0  0  0  0  0  0  0
    0.1229    1.6880    1.2739 C   0  0  0  0  0  0  0  0  0  0  0  0
   -1.2615    1.8893    1.3034 C   0  0  0  0  0  0  0  0  0  0  0  0
   -2.1437    1.2601    0.4142 C   0  0  0  0  0  0  0  0  0  0  0  0
   -1.6219    0.3373   -0.5494 C   0  0  0  0  0  0  0  0  0  0  0  0
   -2.5005   -0.3832   -1.4419 N   0  0  0  0  0  0  0  0  0  0  0  0
   -2.4237   -1.7588   -1.7317 C   0  0  0  0  0  0  0  0  0  0  0  0
   -3.7075   -1.0268   -1.0889 C   0  0  0  0  0  0  0  0  0  0  0  0
   -0.2010    0.1647   -0.6446 C   0  0  0  0  0  0  0  0  0  0  0  0
    0.3856   -0.6592   -1.7864 C   0  0  0  0  0  0  0  0  0  0  0  0
   -3.5387    1.6118    0.4924 N   0  0  0  0  0  0  0  0  0  0  0  0
   -3.9432    2.2381    1.4259 O   0  0  0  0  0  0  0  0  0  0  0  0
   -4.2488    1.4840   -0.4564 O   0  0  0  0  0  0  0  0  0  0  0  0
    0.9321    2.3637    2.2628 N   0  0  0  0  0  0  0  0  0  0  0  0
    2.0828    2.0886    2.4143 O   0  0  0  0  0  0  0  0  0  0  0  0
    0.4280    3.1433    3.0146 O   0  0  0  0  0  0  0  0  0  0  0  0
    4.5037   -1.4179   -0.5097 H   0  0  0  0  0  0  0  0  0  0  0  0
    4.7347    0.2677    0.0589 H   0  0  0  0  0  0  0  0  0  0  0  0
    4.6216   -1.0568    1.2568 H   0  0  0  0  0  0  0  0  0  0  0  0
    2.3996   -2.1928    1.6606 H   0  0  0  0  0  0  0  0  0  0  0  0
    2.2119   -2.5562   -0.0966 H   0  0  0  0  0  0  0  0  0  0  0  0
    0.9492   -1.6437    0.7989 H   0  0  0  0  0  0  0  0  0  0  0  0
   -1.6674    2.5704    2.0391 H   0  0  0  0  0  0  0  0  0  0  0  0
   -2.3468   -1.8800   -2.8319 H   0  0  0  0  0  0  0  0  0  0  0  0
   -1.7775   -2.3010   -1.0123 H   0  0  0  0  0  0  0  0  0  0  0  0
   -4.5077   -0.6500   -1.7591 H   0  0  0  0  0  0  0  0  0  0  0  0
   -3.8257   -1.0273    0.0163 H   0  0  0  0  0  0  0  0  0  0  0  0
   -0.0035   -0.2718   -2.7518 H   0  0  0  0  0  0  0  0  0  0  0  0
    0.1591   -1.7346   -1.6987 H   0  0  0  0  0  0  0  0  0  0  0  0
    1.4862   -0.6003   -1.8676 H   0  0  0  0  0  0  0  0  0  0  0  0
  1 22  1  0  0  0  0
  1 23  1  0  0  0  0
  1 24  1  0  0  0  0
  2  1  1  0  0  0  0
  3  2  1  0  0  0  0
  3 25  1  0  0  0  0
  3 26  1  0  0  0  0
  3 27  1  0  0  0  0
  4  2  1  0  0  0  0
  5  4  2  0  0  0  0
  6  4  1  0  0  0  0
  7  6  2  0  0  0  0
  8  7  1  0  0  0  0
  8 28  1  0  0  0  0
  9  8  2  0  0  0  0
 10  9  1  0  0  0  0
 11 10  1  0  0  0  0
 12 11  1  0  0  0  0
 12 29  1  0  0  0  0
 12 30  1  0  0  0  0
 13 12  1  0  0  0  0
 13 11  1  0  0  0  0
 13 31  1  0  0  0  0
 13 32  1  0  0  0  0
 14 10  2  0  0  0  0
 14  6  1  0  0  0  0
 15 14  1  0  0  0  0
 15 33  1  0  0  0  0
 15 34  1  0  0  0  0
 15 35  1  0  0  0  0
 16  9  1  0  0  0  0
 17 16  2  0  0  0  0
 18 16  2  0  0  0  0
 19  7  1  0  0  0  0
 20 19  2  0  0  0  0
 21 19  2  0  0  0  0
M  END
>  <MOL Chiral Flag>
0

>  <energy>
74.672960763325975

$$$$
> 462_AKC_j.bmcl.2013.11.018
>446.sdf
 OpenBabel10062213593D

 46 50  0  0  0  0  0  0  0  0999 V2000
   -5.9255   -2.8734   -0.7774 C   0  0  0  0  0  0  0  0  0  0  0  0
   -5.2999   -3.3718   -2.0036 N   0  0  0  0  0  0  0  0  0  0  0  0
   -5.9128   -3.7739   -3.1524 C   0  0  0  0  0  0  0  0  0  0  0  0
   -7.2817   -3.8078   -3.4520 C   0  0  0  0  0  0  0  0  0  0  0  0
   -7.6714   -4.2686   -4.7244 C   0  0  0  0  0  0  0  0  0  0  0  0
   -6.7017   -4.6850   -5.6652 C   0  0  0  0  0  0  0  0  0  0  0  0
   -5.3316   -4.6444   -5.3438 C   0  0  0  0  0  0  0  0  0  0  0  0
   -4.9700   -4.1830   -4.0810 C   0  0  0  0  0  0  0  0  0  0  0  0
   -3.7446   -4.0223   -3.4756 C   0  0  0  0  0  0  0  0  0  0  0  0
   -2.4879   -4.2648   -3.9132 N   0  0  0  0  0  0  0  0  0  0  0  0
   -1.4587   -4.0111   -3.0892 N   0  0  0  0  0  0  0  0  0  0  0  0
   -1.6616   -3.5018   -1.8266 C   0  0  0  0  0  0  0  0  0  0  0  0
   -0.2732   -3.2164   -0.6960 S   0  0  0  0  0  0  0  0  0  0  0  0
    1.1804   -3.0411   -1.8260 C   0  0  0  0  0  0  0  0  0  0  0  0
    2.4393   -2.9412   -0.9327 C   0  0  0  0  0  0  0  0  0  0  0  0
    3.7171   -2.8771   -1.6454 N   0  0  0  0  0  0  0  0  0  0  0  0
    4.9739   -2.8859   -0.9223 C   0  0  0  0  0  0  0  0  0  0  0  0
    4.9671   -2.7508    0.4860 C   0  0  0  0  0  0  0  0  0  0  0  0
    6.1503   -2.7976    1.2153 C   0  0  0  0  0  0  0  0  0  0  0  0
    7.3325   -2.9913    0.5908 N   0  0  0  0  0  0  0  0  0  0  0  0
    7.4179   -3.1279   -0.7549 C   0  0  0  0  0  0  0  0  0  0  0  0
    8.6748   -3.3468   -1.3282 C   0  0  0  0  0  0  0  0  0  0  0  0
    8.8034   -3.4938   -2.7059 C   0  0  0  0  0  0  0  0  0  0  0  0
   10.3869   -3.7840   -3.4078 Cl  0  0  0  0  0  0  0  0  0  0  0  0
    7.6739   -3.4140   -3.5228 C   0  0  0  0  0  0  0  0  0  0  0  0
    6.4019   -3.2040   -2.9659 C   0  0  0  0  0  0  0  0  0  0  0  0
    6.2456   -3.0644   -1.5663 C   0  0  0  0  0  0  0  0  0  0  0  0
   -2.9424   -3.2637   -1.3849 N   0  0  0  0  0  0  0  0  0  0  0  0
   -3.9696   -3.5308   -2.2290 C   0  0  0  0  0  0  0  0  0  0  0  0
   -5.5691   -1.8448   -0.5640 H   0  0  0  0  0  0  0  0  0  0  0  0
   -7.0306   -2.8429   -0.8647 H   0  0  0  0  0  0  0  0  0  0  0  0
   -5.6685   -3.5388    0.0727 H   0  0  0  0  0  0  0  0  0  0  0  0
   -8.0331   -3.4924   -2.7418 H   0  0  0  0  0  0  0  0  0  0  0  0
   -8.7222   -4.3043   -4.9851 H   0  0  0  0  0  0  0  0  0  0  0  0
   -7.0162   -5.0370   -6.6394 H   0  0  0  0  0  0  0  0  0  0  0  0
   -4.5842   -4.9614   -6.0585 H   0  0  0  0  0  0  0  0  0  0  0  0
    1.2681   -3.9413   -2.4702 H   0  0  0  0  0  0  0  0  0  0  0  0
    1.0838   -2.1182   -2.4359 H   0  0  0  0  0  0  0  0  0  0  0  0
    2.3308   -2.0401   -0.2916 H   0  0  0  0  0  0  0  0  0  0  0  0
    2.4582   -3.8497   -0.2912 H   0  0  0  0  0  0  0  0  0  0  0  0
    3.7026   -2.9026   -2.6725 H   0  0  0  0  0  0  0  0  0  0  0  0
    4.0503   -2.6081    1.0356 H   0  0  0  0  0  0  0  0  0  0  0  0
    6.1261   -2.6907    2.2914 H   0  0  0  0  0  0  0  0  0  0  0  0
    9.5545   -3.4098   -0.6963 H   0  0  0  0  0  0  0  0  0  0  0  0
    7.7824   -3.5232   -4.5944 H   0  0  0  0  0  0  0  0  0  0  0  0
    5.5646   -3.1577   -3.6409 H   0  0  0  0  0  0  0  0  0  0  0  0
  1 30  1  0  0  0  0
  1 31  1  0  0  0  0
  1 32  1  0  0  0  0
  2  1  1  0  0  0  0
  3  2  1  0  0  0  0
  4  3  2  0  0  0  0
  4 33  1  0  0  0  0
  5  4  1  0  0  0  0
  5 34  1  0  0  0  0
  6  5  2  0  0  0  0
  6 35  1  0  0  0  0
  7  6  1  0  0  0  0
  7 36  1  0  0  0  0
  8  7  2  0  0  0  0
  8  3  1  0  0  0  0
  9  8  1  0  0  0  0
 10  9  2  0  0  0  0
 11 10  1  0  0  0  0
 12 11  2  0  0  0  0
 13 12  1  0  0  0  0
 14 13  1  0  0  0  0
 14 37  1  0  0  0  0
 14 38  1  0  0  0  0
 15 14  1  0  0  0  0
 15 39  1  0  0  0  0
 15 40  1  0  0  0  0
 16 15  1  0  0  0  0
 16 41  1  0  0  0  0
 17 16  1  0  0  0  0
 18 17  2  0  0  0  0
 18 42  1  0  0  0  0
 19 18  1  0  0  0  0
 19 43  1  0  0  0  0
 20 19  2  0  0  0  0
 21 20  1  0  0  0  0
 22 21  2  0  0  0  0
 22 44  1  0  0  0  0
 23 22  1  0  0  0  0
 24 23  1  0  0  0  0
 25 23  2  0  0  0  0
 25 45  1  0  0  0  0
 26 25  1  0  0  0  0
 26 46  1  0  0  0  0
 27 26  2  0  0  0  0
 27 17  1  0  0  0  0
 27 21  1  0  0  0  0
 28 12  1  0  0  0  0
 29 28  2  0  0  0  0
 29  2  1  0  0  0  0
 29  9  1  0  0  0  0
M  END
>  <MOL Chiral Flag>
0

>  <energy>
92.131091984457328

$$$$
> 463_AKC_j.sajb.2013.10.014
>447.sdf
 OpenBabel10062214003D

 54 56  0  0  0  0  0  0  0  0999 V2000
    0.4976    0.4530    1.9633 H   0  0  0  0  0  0  0  0  0  0  0  0
    1.3187    0.5987    1.2208 C   0  0  2  0  0  0  0  0  0  0  0  0
    1.9196   -0.7925    0.9563 C   0  0  0  0  0  0  0  0  0  0  0  0
    0.8233   -1.7968    0.6371 C   0  0  0  0  0  0  0  0  0  0  0  0
   -0.3129   -1.2791   -0.2106 C   0  0  0  0  0  0  0  0  0  0  0  0
   -0.4738    0.0984   -0.5509 C   0  0  0  0  0  0  0  0  0  0  0  0
   -1.6218    0.4570   -1.3274 C   0  0  0  0  0  0  0  0  0  0  0  0
   -1.8277    1.7363   -1.7011 O   0  0  0  0  0  0  0  0  0  0  0  0
   -2.5652   -0.5197   -1.7143 C   0  0  0  0  0  0  0  0  0  0  0  0
   -3.6658   -0.1446   -2.4060 O   0  0  0  0  0  0  0  0  0  0  0  0
   -4.8352    0.1886   -1.7510 C   0  0  0  0  0  0  0  0  0  0  0  0
   -2.3681   -1.8724   -1.3905 C   0  0  0  0  0  0  0  0  0  0  0  0
   -1.2484   -2.2299   -0.6364 C   0  0  0  0  0  0  0  0  0  0  0  0
   -3.3442   -2.9459   -1.8661 C   0  0  0  0  0  0  0  0  0  0  0  0
   -3.9502   -3.7226   -0.6903 C   0  0  0  0  0  0  0  0  0  0  0  0
   -2.6507   -3.8958   -2.8513 C   0  0  0  0  0  0  0  0  0  0  0  0
    0.6006    1.1423   -0.0986 C   0  0  1  0  0  0  0  0  0  0  0  0
   -0.0130    2.5300    0.2920 C   0  0  0  0  0  0  0  0  0  0  0  0
    1.0164    3.5089    0.8685 C   0  0  0  0  0  0  0  0  0  0  0  0
    1.5888    2.9521    2.1679 C   0  0  0  0  0  0  0  0  0  0  0  0
    2.3106    1.5976    1.9601 C   0  0  0  0  0  0  0  0  0  0  0  0
    3.6598    1.8277    1.2370 C   0  0  0  0  0  0  0  0  0  0  0  0
    2.6513    1.0596    3.3766 C   0  0  0  0  0  0  0  0  0  0  0  0
    1.4806    1.3516   -1.3398 C   0  0  0  0  0  0  0  0  0  0  0  0
    0.9343    1.8630   -2.4610 O   0  0  0  0  0  0  0  0  0  0  0  0
    2.6503    1.0151   -1.3665 O   0  0  0  0  0  0  0  0  0  0  0  0
    2.6402   -0.7497    0.1226 H   0  0  0  0  0  0  0  0  0  0  0  0
    2.4755   -1.2089    1.8180 H   0  0  0  0  0  0  0  0  0  0  0  0
    1.3061   -2.6838    0.1704 H   0  0  0  0  0  0  0  0  0  0  0  0
    0.3531   -2.1287    1.5893 H   0  0  0  0  0  0  0  0  0  0  0  0
   -2.5886    2.0230   -2.2246 H   0  0  0  0  0  0  0  0  0  0  0  0
   -4.6661    1.0521   -1.0719 H   0  0  0  0  0  0  0  0  0  0  0  0
   -5.2058   -0.6717   -1.1526 H   0  0  0  0  0  0  0  0  0  0  0  0
   -5.6092    0.4640   -2.4953 H   0  0  0  0  0  0  0  0  0  0  0  0
   -1.0938   -3.2691   -0.3732 H   0  0  0  0  0  0  0  0  0  0  0  0
   -4.1875   -2.4867   -2.4224 H   0  0  0  0  0  0  0  0  0  0  0  0
   -4.4782   -3.0267   -0.0050 H   0  0  0  0  0  0  0  0  0  0  0  0
   -4.6841   -4.4673   -1.0663 H   0  0  0  0  0  0  0  0  0  0  0  0
   -3.1706   -4.2679   -0.1183 H   0  0  0  0  0  0  0  0  0  0  0  0
   -3.3740   -4.6468   -3.2343 H   0  0  0  0  0  0  0  0  0  0  0  0
   -1.8041   -4.4318   -2.3735 H   0  0  0  0  0  0  0  0  0  0  0  0
   -2.2630   -3.3186   -3.7189 H   0  0  0  0  0  0  0  0  0  0  0  0
   -0.8224    2.3836    1.0410 H   0  0  0  0  0  0  0  0  0  0  0  0
   -0.4376    3.0646   -0.5752 H   0  0  0  0  0  0  0  0  0  0  0  0
    0.5098    4.4730    1.0912 H   0  0  0  0  0  0  0  0  0  0  0  0
    1.8142    3.7220    0.1271 H   0  0  0  0  0  0  0  0  0  0  0  0
    2.2783    3.6962    2.6250 H   0  0  0  0  0  0  0  0  0  0  0  0
    0.7343    2.8196    2.8698 H   0  0  0  0  0  0  0  0  0  0  0  0
    4.3161    2.4813    1.8518 H   0  0  0  0  0  0  0  0  0  0  0  0
    4.1966    0.8675    1.0859 H   0  0  0  0  0  0  0  0  0  0  0  0
    3.5606    2.3487    0.2734 H   0  0  0  0  0  0  0  0  0  0  0  0
    1.7253    0.8838    3.9668 H   0  0  0  0  0  0  0  0  0  0  0  0
    3.2686    1.7948    3.9381 H   0  0  0  0  0  0  0  0  0  0  0  0
    3.2298    0.1164    3.3480 H   0  0  0  0  0  0  0  0  0  0  0  0
  2  1  1  1  0  0  0
  3  2  1  0  0  0  0
  3 27  1  0  0  0  0
  3 28  1  0  0  0  0
  4  3  1  0  0  0  0
  4 29  1  0  0  0  0
  4 30  1  0  0  0  0
  5  4  1  0  0  0  0
  6  5  2  0  0  0  0
  7  6  1  0  0  0  0
  8  7  1  0  0  0  0
  8 31  1  0  0  0  0
  9  7  2  0  0  0  0
 10  9  1  0  0  0  0
 11 10  1  0  0  0  0
 11 32  1  0  0  0  0
 11 33  1  0  0  0  0
 11 34  1  0  0  0  0
 12  9  1  0  0  0  0
 13 12  2  0  0  0  0
 13  5  1  0  0  0  0
 13 35  1  0  0  0  0
 14 12  1  0  0  0  0
 14 36  1  0  0  0  0
 15 14  1  0  0  0  0
 15 37  1  0  0  0  0
 15 38  1  0  0  0  0
 15 39  1  0  0  0  0
 16 14  1  0  0  0  0
 16 40  1  0  0  0  0
 16 41  1  0  0  0  0
 16 42  1  0  0  0  0
 17  6  1  0  0  0  0
 17  2  1  0  0  0  0
 17 24  1  6  0  0  0
 18 17  1  0  0  0  0
 18 43  1  0  0  0  0
 18 44  1  0  0  0  0
 19 18  1  0  0  0  0
 19 45  1  0  0  0  0
 19 46  1  0  0  0  0
 20 19  1  0  0  0  0
 20 47  1  0  0  0  0
 20 48  1  0  0  0  0
 21 20  1  0  0  0  0
 21  2  1  0  0  0  0
 22 21  1  0  0  0  0
 22 49  1  0  0  0  0
 22 50  1  0  0  0  0
 22 51  1  0  0  0  0
 23 21  1  0  0  0  0
 23 52  1  0  0  0  0
 23 53  1  0  0  0  0
 23 54  1  0  0  0  0
 25 24  1  0  0  0  0
 26 24  2  0  0  0  0
M  END
>  <MOL Chiral Flag>
0

>  <energy>
86.586730584477891

$$$$
> 464_AKC_j.actatropica.2013.09.018
>448.sdf
 OpenBabel10062214003D

 30 31  0  0  0  0  0  0  0  0999 V2000
    0.8937   -3.0055   -0.8497 C   0  0  0  0  0  0  0  0  0  0  0  0
   -0.0480   -2.0559   -0.1780 C   0  0  0  0  0  0  0  0  0  0  0  0
    0.2842   -1.4957    0.8567 O   0  0  0  0  0  0  0  0  0  0  0  0
   -1.2793   -1.8656   -0.7143 O   0  0  0  0  0  0  0  0  0  0  0  0
   -2.2427   -0.9929   -0.3155 C   0  0  0  0  0  0  0  0  0  0  0  0
   -3.5207   -1.5371   -0.1018 C   0  0  0  0  0  0  0  0  0  0  0  0
   -4.5891   -0.7409    0.2968 C   0  0  0  0  0  0  0  0  0  0  0  0
   -4.4110    0.6211    0.4661 C   0  0  0  0  0  0  0  0  0  0  0  0
   -3.1630    1.1966    0.2599 C   0  0  0  0  0  0  0  0  0  0  0  0
   -2.0352    0.4179   -0.1202 C   0  0  0  0  0  0  0  0  0  0  0  0
   -0.6961    1.1085   -0.3087 C   0  0  0  0  0  0  0  0  0  0  0  0
    0.1999    0.5540   -0.9263 O   0  0  0  0  0  0  0  0  0  0  0  0
   -0.4772    2.3448    0.2403 N   0  0  0  0  0  0  0  0  0  0  0  0
    0.7542    3.0506    0.2334 C   0  0  0  0  0  0  0  0  0  0  0  0
    1.9499    2.5932   -0.2306 N   0  0  0  0  0  0  0  0  0  0  0  0
    2.9713    3.4962    0.0187 C   0  0  0  0  0  0  0  0  0  0  0  0
    2.5647    4.6661    0.6874 C   0  0  0  0  0  0  0  0  0  0  0  0
    0.9469    4.5291    0.9402 S   0  0  0  0  0  0  0  0  0  0  0  0
    3.3766    5.7532    1.0948 N   0  3  0  0  0  0  0  0  0  0  0  0
    4.6720    5.7333    0.8787 O   0  5  0  0  0  0  0  0  0  0  0  0
    2.8857    6.6868    1.6585 O   0  0  0  0  0  0  0  0  0  0  0  0
    1.1700   -3.8241   -0.1530 H   0  0  0  0  0  0  0  0  0  0  0  0
    0.4098   -3.4522   -1.7456 H   0  0  0  0  0  0  0  0  0  0  0  0
    1.8085   -2.4670   -1.1724 H   0  0  0  0  0  0  0  0  0  0  0  0
   -3.6819   -2.5995   -0.2349 H   0  0  0  0  0  0  0  0  0  0  0  0
   -5.5633   -1.1802    0.4672 H   0  0  0  0  0  0  0  0  0  0  0  0
   -5.2468    1.2448    0.7574 H   0  0  0  0  0  0  0  0  0  0  0  0
   -3.1149    2.2631    0.3843 H   0  0  0  0  0  0  0  0  0  0  0  0
   -1.2202    2.8055    0.7694 H   0  0  0  0  0  0  0  0  0  0  0  0
    3.9963    3.3032   -0.2682 H   0  0  0  0  0  0  0  0  0  0  0  0
  1 22  1  0  0  0  0
  1 23  1  0  0  0  0
  1 24  1  0  0  0  0
  2  1  1  0  0  0  0
  3  2  2  0  0  0  0
  4  2  1  0  0  0  0
  5  4  1  0  0  0  0
  6  5  2  0  0  0  0
  6 25  1  0  0  0  0
  7  6  1  0  0  0  0
  7 26  1  0  0  0  0
  8  7  2  0  0  0  0
  8 27  1  0  0  0  0
  9  8  1  0  0  0  0
  9 28  1  0  0  0  0
 10  9  2  0  0  0  0
 10  5  1  0  0  0  0
 11 10  1  0  0  0  0
 12 11  2  0  0  0  0
 13 11  1  0  0  0  0
 13 29  1  0  0  0  0
 14 13  1  0  0  0  0
 15 14  2  0  0  0  0
 16 15  1  0  0  0  0
 16 30  1  0  0  0  0
 17 16  2  0  0  0  0
 18 17  1  0  0  0  0
 18 14  1  0  0  0  0
 19 17  1  0  0  0  0
 20 19  1  0  0  0  0
 21 19  2  0  0  0  0
M  CHG  2  19   1  20  -1
M  END
>  <MOL Chiral Flag>
0

>  <energy>
17.653367708155393

$$$$
> 465_AKC_jm4006127
>449.sdf
 OpenBabel10062214013D

 30 32  0  0  0  0  0  0  0  0999 V2000
    1.6798   -2.7813   -1.7372 O   0  0  0  0  0  0  0  0  0  0  0  0
    1.3985   -1.5754   -0.8270 S   0  0  0  0  0  0  0  0  0  0  0  0
    0.9667   -2.2228    0.4980 O   0  0  0  0  0  0  0  0  0  0  0  0
   -0.0470   -0.8189   -1.4913 N   0  0  0  0  0  0  0  0  0  0  0  0
   -1.1861   -1.5517   -1.9412 C   0  0  0  0  0  0  0  0  0  0  0  0
   -2.1548   -0.8879   -2.7312 C   0  0  0  0  0  0  0  0  0  0  0  0
   -3.2418   -1.6206   -3.1933 C   0  0  0  0  0  0  0  0  0  0  0  0
   -3.4035   -2.9370   -2.8950 C   0  0  0  0  0  0  0  0  0  0  0  0
   -4.5280   -3.3870   -3.4726 N   0  0  0  0  0  0  0  0  0  0  0  0
   -5.0908   -2.3847   -4.1393 N   0  0  0  0  0  0  0  0  0  0  0  0
   -4.3176   -1.2819   -3.9834 C   0  0  0  0  0  0  0  0  0  0  0  0
   -2.4940   -3.6333   -2.1094 C   0  0  0  0  0  0  0  0  0  0  0  0
   -1.3691   -2.9339   -1.6294 C   0  0  0  0  0  0  0  0  0  0  0  0
    2.8397   -0.5181   -0.6817 C   0  0  0  0  0  0  0  0  0  0  0  0
    3.6945   -0.6328    0.4227 C   0  0  0  0  0  0  0  0  0  0  0  0
    4.8244    0.1862    0.5215 C   0  0  0  0  0  0  0  0  0  0  0  0
    5.1026    1.1201   -0.4816 C   0  0  0  0  0  0  0  0  0  0  0  0
    4.2508    1.2366   -1.5842 C   0  0  0  0  0  0  0  0  0  0  0  0
    3.1209    0.4187   -1.6852 C   0  0  0  0  0  0  0  0  0  0  0  0
    0.0023    0.1913   -1.6890 H   0  0  0  0  0  0  0  0  0  0  0  0
   -2.0478    0.1584   -2.9885 H   0  0  0  0  0  0  0  0  0  0  0  0
   -4.9131   -4.3565   -3.4250 H   0  0  0  0  0  0  0  0  0  0  0  0
   -4.5274   -0.3146   -4.4198 H   0  0  0  0  0  0  0  0  0  0  0  0
   -2.6408   -4.6807   -1.8787 H   0  0  0  0  0  0  0  0  0  0  0  0
   -0.6579   -3.4697   -1.0206 H   0  0  0  0  0  0  0  0  0  0  0  0
    3.4875   -1.3557    1.2010 H   0  0  0  0  0  0  0  0  0  0  0  0
    5.4852    0.0956    1.3738 H   0  0  0  0  0  0  0  0  0  0  0  0
    5.9782    1.7519   -0.4054 H   0  0  0  0  0  0  0  0  0  0  0  0
    4.4672    1.9586   -2.3611 H   0  0  0  0  0  0  0  0  0  0  0  0
    2.4676    0.5114   -2.5435 H   0  0  0  0  0  0  0  0  0  0  0  0
  2  1  2  0  0  0  0
  3  2  2  0  0  0  0
  4  2  1  0  0  0  0
  4 20  1  0  0  0  0
  5  4  1  0  0  0  0
  6  5  2  0  0  0  0
  6 21  1  0  0  0  0
  7  6  1  0  0  0  0
  8  7  2  0  0  0  0
  9  8  1  0  0  0  0
  9 22  1  0  0  0  0
 10  9  1  0  0  0  0
 11 10  2  0  0  0  0
 11  7  1  0  0  0  0
 11 23  1  0  0  0  0
 12  8  1  0  0  0  0
 12 24  1  0  0  0  0
 13 12  2  0  0  0  0
 13  5  1  0  0  0  0
 13 25  1  0  0  0  0
 14  2  1  0  0  0  0
 15 14  2  0  0  0  0
 15 26  1  0  0  0  0
 16 15  1  0  0  0  0
 16 27  1  0  0  0  0
 17 16  2  0  0  0  0
 17 28  1  0  0  0  0
 18 17  1  0  0  0  0
 18 29  1  0  0  0  0
 19 18  2  0  0  0  0
 19 14  1  0  0  0  0
 19 30  1  0  0  0  0
M  END
>  <MOL Chiral Flag>
0

>  <energy>
3.6756158379920763

$$$$
> 466_AKC_j.bmc.2013.09.002
>450.sdf
 OpenBabel10062214013D

 33 35  0  0  0  0  0  0  0  0999 V2000
    3.3102   -1.9119    1.8209 O   0  5  0  0  0  0  0  0  0  0  0  0
    2.1706   -1.2588    1.8292 N   0  3  0  0  0  0  0  0  0  0  0  0
    1.3731   -1.5039    2.6815 O   0  0  0  0  0  0  0  0  0  0  0  0
    1.9177   -0.2114    0.8880 C   0  0  0  0  0  0  0  0  0  0  0  0
    0.7587    0.5625    0.7960 C   0  0  0  0  0  0  0  0  0  0  0  0
   -0.5065    0.4477    1.5949 C   0  0  0  0  0  0  0  0  0  0  0  0
   -1.4257   -1.0770    1.1660 S   0  0  0  0  0  0  0  0  0  0  0  0
   -1.3544   -2.0264    2.3711 O   0  0  0  0  0  0  0  0  0  0  0  0
   -0.5923   -1.9072    0.1750 O   0  0  0  0  0  0  0  0  0  0  0  0
   -3.1304   -1.1199    0.6004 C   0  0  0  0  0  0  0  0  0  0  0  0
   -3.4378   -1.4542   -0.7276 C   0  0  0  0  0  0  0  0  0  0  0  0
   -4.7713   -1.4928   -1.1496 C   0  0  0  0  0  0  0  0  0  0  0  0
   -5.7995   -1.1959   -0.2500 C   0  0  0  0  0  0  0  0  0  0  0  0
   -5.4957   -0.8580    1.0721 C   0  0  0  0  0  0  0  0  0  0  0  0
   -4.1639   -0.8197    1.4970 C   0  0  0  0  0  0  0  0  0  0  0  0
    0.9124    1.4690   -0.1951 N   0  0  0  0  0  0  0  0  0  0  0  0
    2.1377    1.2221   -0.7022 C   0  0  0  0  0  0  0  0  0  0  0  0
    2.7709    0.2111   -0.0726 N   0  0  0  0  0  0  0  0  0  0  0  0
    4.0174   -0.2043   -0.4402 C   0  0  0  0  0  0  0  0  0  0  0  0
    4.6545    0.4385   -1.5133 C   0  0  0  0  0  0  0  0  0  0  0  0
    6.3900   -0.1251   -2.0760 Br  0  0  0  0  0  0  0  0  0  0  0  0
    4.0048    1.4952   -2.1769 C   0  0  0  0  0  0  0  0  0  0  0  0
    2.7269    1.9001   -1.7679 C   0  0  0  0  0  0  0  0  0  0  0  0
    1.8242    3.3302   -2.6594 Br  0  0  0  0  0  0  0  0  0  0  0  0
   -1.1735    1.2933    1.3249 H   0  0  0  0  0  0  0  0  0  0  0  0
   -0.3034    0.5160    2.6841 H   0  0  0  0  0  0  0  0  0  0  0  0
   -2.6500   -1.6867   -1.4322 H   0  0  0  0  0  0  0  0  0  0  0  0
   -5.0079   -1.7542   -2.1731 H   0  0  0  0  0  0  0  0  0  0  0  0
   -6.8309   -1.2274   -0.5770 H   0  0  0  0  0  0  0  0  0  0  0  0
   -6.2918   -0.6273    1.7680 H   0  0  0  0  0  0  0  0  0  0  0  0
   -3.9353   -0.5588    2.5223 H   0  0  0  0  0  0  0  0  0  0  0  0
    4.5205   -1.0150    0.0596 H   0  0  0  0  0  0  0  0  0  0  0  0
    4.4900    1.9932   -3.0062 H   0  0  0  0  0  0  0  0  0  0  0  0
  2  1  1  0  0  0  0
  3  2  2  0  0  0  0
  4  2  1  0  0  0  0
  5  4  2  0  0  0  0
  6  5  1  0  0  0  0
  6 25  1  0  0  0  0
  6 26  1  0  0  0  0
  7  6  1  0  0  0  0
  8  7  2  0  0  0  0
  9  7  2  0  0  0  0
 10  7  1  0  0  0  0
 11 10  2  0  0  0  0
 11 27  1  0  0  0  0
 12 11  1  0  0  0  0
 12 28  1  0  0  0  0
 13 12  2  0  0  0  0
 13 29  1  0  0  0  0
 14 13  1  0  0  0  0
 14 30  1  0  0  0  0
 15 14  2  0  0  0  0
 15 10  1  0  0  0  0
 15 31  1  0  0  0  0
 16  5  1  0  0  0  0
 17 16  2  0  0  0  0
 18 17  1  0  0  0  0
 18  4  1  0  0  0  0
 19 18  1  0  0  0  0
 19 32  1  0  0  0  0
 20 19  2  0  0  0  0
 21 20  1  0  0  0  0
 22 20  1  0  0  0  0
 22 33  1  0  0  0  0
 23 22  2  0  0  0  0
 23 17  1  0  0  0  0
 24 23  1  0  0  0  0
M  CHG  2   1  -1   2   1
M  END
>  <MOL Chiral Flag>
0

>  <energy>
59.853828008034995

$$$$
> 467_AKC_ml400317e
>451.sdf
 OpenBabel10062214033D

 79 82  0  0  0  0  0  0  0  0999 V2000
    9.0099   -3.6701   -0.5918 C   0  0  0  0  0  0  0  0  0  0  0  0
    9.1347   -2.2077   -0.1695 C   0  0  0  0  0  0  0  0  0  0  0  0
    8.2653   -1.2822   -1.0271 C   0  0  0  0  0  0  0  0  0  0  0  0
    6.8595   -1.6003   -0.8602 N   0  0  0  0  0  0  0  0  0  0  0  0
    6.0132   -1.9650   -1.9432 C   0  0  0  0  0  0  0  0  0  0  0  0
    4.7045   -2.2199   -1.7061 N   0  0  0  0  0  0  0  0  0  0  0  0
    3.8658   -2.5515   -2.7235 C   0  0  0  0  0  0  0  0  0  0  0  0
    2.4839   -2.7616   -2.4609 N   0  0  0  0  0  0  0  0  0  0  0  0
    1.9830   -2.5900   -1.1128 C   0  0  0  0  0  0  0  0  0  0  0  0
    0.4556   -2.7127   -1.0000 C   0  0  0  0  0  0  0  0  0  0  0  0
    0.0755   -2.4197    0.4572 C   0  0  0  0  0  0  0  0  0  0  0  0
   -1.4213   -2.3857    0.7550 C   0  0  0  0  0  0  0  0  0  0  0  0
   -1.5297   -2.0227    2.0800 O   0  0  0  0  0  0  0  0  0  0  0  0
   -2.6627   -1.7930    2.7748 C   0  0  0  0  0  0  0  0  0  0  0  0
   -2.5548   -1.3709    4.0554 N   0  0  0  0  0  0  0  0  0  0  0  0
   -3.6590   -1.1216    4.7968 C   0  0  0  0  0  0  0  0  0  0  0  0
   -3.5090   -0.6336    6.2098 C   0  0  0  0  0  0  0  0  0  0  0  0
   -2.7518   -1.5616    7.1446 C   0  0  0  0  0  0  0  0  0  0  0  0
   -2.4749   -1.1107    8.4471 C   0  0  0  0  0  0  0  0  0  0  0  0
   -1.7652   -1.9162    9.3428 C   0  0  0  0  0  0  0  0  0  0  0  0
   -1.3277   -3.1826    8.9515 C   0  0  0  0  0  0  0  0  0  0  0  0
   -1.6010   -3.6483    7.6644 C   0  0  0  0  0  0  0  0  0  0  0  0
   -2.3086   -2.8482    6.7618 C   0  0  0  0  0  0  0  0  0  0  0  0
   -4.8878   -1.2760    4.2429 N   0  0  0  0  0  0  0  0  0  0  0  0
   -5.0124   -1.6920    2.9538 C   0  0  0  0  0  0  0  0  0  0  0  0
   -6.3108   -1.8187    2.3880 N   0  0  0  0  0  0  0  0  0  0  0  0
   -6.5448   -2.2822    1.0335 C   0  0  0  0  0  0  0  0  0  0  0  0
   -7.4728   -3.5023    1.0365 C   0  0  0  0  0  0  0  0  0  0  0  0
   -6.8664   -4.6901    1.7810 C   0  0  0  0  0  0  0  0  0  0  0  0
   -3.8938   -1.9542    2.2173 N   0  0  0  0  0  0  0  0  0  0  0  0
    4.3467   -2.6277   -3.9915 N   0  0  0  0  0  0  0  0  0  0  0  0
    5.6619   -2.3739   -4.2386 C   0  0  0  0  0  0  0  0  0  0  0  0
    6.2026   -2.4136   -5.6400 C   0  0  0  0  0  0  0  0  0  0  0  0
    6.1276   -3.7904   -6.2547 C   0  0  0  0  0  0  0  0  0  0  0  0
    4.8855   -4.4025   -6.5014 C   0  0  0  0  0  0  0  0  0  0  0  0
    4.8300   -5.6729   -7.0836 C   0  0  0  0  0  0  0  0  0  0  0  0
    6.0092   -6.3405   -7.4251 C   0  0  0  0  0  0  0  0  0  0  0  0
    7.2470   -5.7389   -7.1869 C   0  0  0  0  0  0  0  0  0  0  0  0
    7.3090   -4.4690   -6.6061 C   0  0  0  0  0  0  0  0  0  0  0  0
    6.4884   -2.0378   -3.2125 N   0  0  0  0  0  0  0  0  0  0  0  0
    9.6684   -4.2967    0.0461 H   0  0  0  0  0  0  0  0  0  0  0  0
    9.3192   -3.7917   -1.6516 H   0  0  0  0  0  0  0  0  0  0  0  0
    7.9643   -4.0248   -0.4731 H   0  0  0  0  0  0  0  0  0  0  0  0
   10.1967   -1.8969   -0.2732 H   0  0  0  0  0  0  0  0  0  0  0  0
    8.8449   -2.1066    0.8994 H   0  0  0  0  0  0  0  0  0  0  0  0
    8.4294   -0.2342   -0.6968 H   0  0  0  0  0  0  0  0  0  0  0  0
    8.5858   -1.3565   -2.0879 H   0  0  0  0  0  0  0  0  0  0  0  0
    6.4525   -1.5428    0.0857 H   0  0  0  0  0  0  0  0  0  0  0  0
    1.8406   -2.9814   -3.2368 H   0  0  0  0  0  0  0  0  0  0  0  0
    2.4686   -3.3378   -0.4471 H   0  0  0  0  0  0  0  0  0  0  0  0
    2.2690   -1.5699   -0.7710 H   0  0  0  0  0  0  0  0  0  0  0  0
    0.1193   -3.7300   -1.2962 H   0  0  0  0  0  0  0  0  0  0  0  0
   -0.0220   -1.9609   -1.6656 H   0  0  0  0  0  0  0  0  0  0  0  0
    0.4791   -1.4167    0.7245 H   0  0  0  0  0  0  0  0  0  0  0  0
    0.5538   -3.1756    1.1197 H   0  0  0  0  0  0  0  0  0  0  0  0
   -1.9132   -1.6209    0.1147 H   0  0  0  0  0  0  0  0  0  0  0  0
   -1.8858   -3.3805    0.5799 H   0  0  0  0  0  0  0  0  0  0  0  0
   -2.9548    0.3285    6.1571 H   0  0  0  0  0  0  0  0  0  0  0  0
   -4.5107   -0.4316    6.6471 H   0  0  0  0  0  0  0  0  0  0  0  0
   -2.8033   -0.1284    8.7638 H   0  0  0  0  0  0  0  0  0  0  0  0
   -1.5522   -1.5562   10.3411 H   0  0  0  0  0  0  0  0  0  0  0  0
   -0.7770   -3.8038    9.6460 H   0  0  0  0  0  0  0  0  0  0  0  0
   -1.2628   -4.6317    7.3636 H   0  0  0  0  0  0  0  0  0  0  0  0
   -2.5051   -3.2422    5.7755 H   0  0  0  0  0  0  0  0  0  0  0  0
   -7.1257   -1.5575    2.9640 H   0  0  0  0  0  0  0  0  0  0  0  0
   -5.5976   -2.5386    0.5130 H   0  0  0  0  0  0  0  0  0  0  0  0
   -7.0377   -1.4672    0.4615 H   0  0  0  0  0  0  0  0  0  0  0  0
   -8.4410   -3.2299    1.5111 H   0  0  0  0  0  0  0  0  0  0  0  0
   -7.6733   -3.8028   -0.0144 H   0  0  0  0  0  0  0  0  0  0  0  0
   -5.9089   -4.9932    1.3074 H   0  0  0  0  0  0  0  0  0  0  0  0
   -6.6828   -4.4327    2.8457 H   0  0  0  0  0  0  0  0  0  0  0  0
   -7.5711   -5.5475    1.7447 H   0  0  0  0  0  0  0  0  0  0  0  0
    7.2635   -2.0800   -5.6081 H   0  0  0  0  0  0  0  0  0  0  0  0
    5.6484   -1.6898   -6.2745 H   0  0  0  0  0  0  0  0  0  0  0  0
    3.9631   -3.8954   -6.2510 H   0  0  0  0  0  0  0  0  0  0  0  0
    3.8719   -6.1390   -7.2729 H   0  0  0  0  0  0  0  0  0  0  0  0
    5.9638   -7.3229   -7.8768 H   0  0  0  0  0  0  0  0  0  0  0  0
    8.1598   -6.2557   -7.4541 H   0  0  0  0  0  0  0  0  0  0  0  0
    8.2767   -4.0155   -6.4301 H   0  0  0  0  0  0  0  0  0  0  0  0
  1 41  1  0  0  0  0
  1 42  1  0  0  0  0
  1 43  1  0  0  0  0
  2  1  1  0  0  0  0
  2 44  1  0  0  0  0
  2 45  1  0  0  0  0
  3  2  1  0  0  0  0
  3 46  1  0  0  0  0
  3 47  1  0  0  0  0
  4  3  1  0  0  0  0
  4 48  1  0  0  0  0
  5  4  1  0  0  0  0
  6  5  2  0  0  0  0
  7  6  1  0  0  0  0
  8  7  1  0  0  0  0
  8 49  1  0  0  0  0
  9  8  1  0  0  0  0
  9 50  1  0  0  0  0
  9 51  1  0  0  0  0
 10  9  1  0  0  0  0
 10 52  1  0  0  0  0
 10 53  1  0  0  0  0
 11 10  1  0  0  0  0
 11 54  1  0  0  0  0
 11 55  1  0  0  0  0
 12 11  1  0  0  0  0
 12 56  1  0  0  0  0
 12 57  1  0  0  0  0
 13 12  1  0  0  0  0
 14 13  1  0  0  0  0
 15 14  2  0  0  0  0
 16 15  1  0  0  0  0
 17 16  1  0  0  0  0
 17 58  1  0  0  0  0
 17 59  1  0  0  0  0
 18 17  1  0  0  0  0
 19 18  2  0  0  0  0
 19 60  1  0  0  0  0
 20 19  1  0  0  0  0
 20 61  1  0  0  0  0
 21 20  2  0  0  0  0
 21 62  1  0  0  0  0
 22 21  1  0  0  0  0
 22 63  1  0  0  0  0
 23 22  2  0  0  0  0
 23 18  1  0  0  0  0
 23 64  1  0  0  0  0
 24 16  2  0  0  0  0
 25 24  1  0  0  0  0
 26 25  1  0  0  0  0
 26 65  1  0  0  0  0
 27 26  1  0  0  0  0
 27 66  1  0  0  0  0
 27 67  1  0  0  0  0
 28 27  1  0  0  0  0
 28 68  1  0  0  0  0
 28 69  1  0  0  0  0
 29 28  1  0  0  0  0
 29 70  1  0  0  0  0
 29 71  1  0  0  0  0
 29 72  1  0  0  0  0
 30 25  2  0  0  0  0
 30 14  1  0  0  0  0
 31  7  2  0  0  0  0
 32 31  1  0  0  0  0
 33 32  1  0  0  0  0
 33 73  1  0  0  0  0
 33 74  1  0  0  0  0
 34 33  1  0  0  0  0
 35 34  2  0  0  0  0
 35 75  1  0  0  0  0
 36 35  1  0  0  0  0
 36 76  1  0  0  0  0
 37 36  2  0  0  0  0
 37 77  1  0  0  0  0
 38 37  1  0  0  0  0
 38 78  1  0  0  0  0
 39 38  2  0  0  0  0
 39 34  1  0  0  0  0
 39 79  1  0  0  0  0
 40 32  2  0  0  0  0
 40  5  1  0  0  0  0
M  END
>  <MOL Chiral Flag>
0

>  <energy>
-301.09735410222254

$$$$
> 468_AKC_j.bcp.2013.10.004
>452.sdf
 OpenBabel10062214033D

 75 78  0  0  0  0  0  0  0  0999 V2000
    2.3483   -3.4338   -1.6398 C   0  0  0  0  0  0  0  0  0  0  0  0
    1.2411   -3.1436   -2.4121 O   0  0  0  0  0  0  0  0  0  0  0  0
    0.4193   -2.0715   -2.2403 C   0  0  0  0  0  0  0  0  0  0  0  0
    0.6802   -1.0869   -1.2687 C   0  0  0  0  0  0  0  0  0  0  0  0
   -0.2038   -0.0127   -1.0794 C   0  0  0  0  0  0  0  0  0  0  0  0
   -1.3466    0.0892   -1.8877 C   0  0  0  0  0  0  0  0  0  0  0  0
   -1.6133   -0.8793   -2.8762 C   0  0  0  0  0  0  0  0  0  0  0  0
   -2.7144   -0.8118   -3.6729 O   0  0  0  0  0  0  0  0  0  0  0  0
   -3.6624    0.1905   -3.6419 C   0  0  0  0  0  0  0  0  0  0  0  0
   -0.7317   -1.9585   -3.0445 C   0  0  0  0  0  0  0  0  0  0  0  0
   -1.0104   -2.8916   -3.9815 O   0  0  0  0  0  0  0  0  0  0  0  0
    0.0638    0.9993    0.0340 C   0  0  2  0  0  0  0  0  0  0  0  0
   -1.0250    0.7795    1.1358 C   0  0  1  0  0  0  0  0  0  0  0  0
   -0.8176   -0.6217    1.7917 C   0  0  0  0  0  0  0  0  0  0  0  0
   -1.9396   -1.0092    2.5671 O   0  0  0  0  0  0  0  0  0  0  0  0
   -2.7771   -1.9053    1.8531 C   0  0  2  0  0  0  0  0  0  0  0  0
   -3.1960   -1.3065    0.6318 O   0  0  0  0  0  0  0  0  0  0  0  0
   -3.9632   -2.2123   -0.1350 C   0  0  0  0  0  0  0  0  0  0  0  0
   -5.2762   -2.5271    0.5876 C   0  0  1  0  0  0  0  0  0  0  0  0
   -6.0429   -3.4064   -0.1938 O   0  0  0  0  0  0  0  0  0  0  0  0
   -4.9485   -3.1607    1.9465 C   0  0  2  0  0  0  0  0  0  0  0  0
   -6.1352   -3.3782    2.6640 O   0  0  0  0  0  0  0  0  0  0  0  0
   -4.0093   -2.2223    2.7254 C   0  0  1  0  0  0  0  0  0  0  0  0
   -3.6169   -2.8425    3.9228 O   0  0  0  0  0  0  0  0  0  0  0  0
   -0.9954    1.9375    2.1572 C   0  0  2  0  0  0  0  0  0  0  0  0
   -1.9700    1.7725    3.3470 C   0  0  0  0  0  0  0  0  0  0  0  0
   -3.2900    1.5744    2.9066 O   0  0  0  0  0  0  0  0  0  0  0  0
   -1.3165    3.2577    1.4365 C   0  0  0  0  0  0  0  0  0  0  0  0
   -0.5021    3.4935    0.1926 C   0  0  0  0  0  0  0  0  0  0  0  0
   -0.4081    4.8055   -0.2782 C   0  0  0  0  0  0  0  0  0  0  0  0
    0.3590    5.1169   -1.4083 C   0  0  0  0  0  0  0  0  0  0  0  0
    0.4858    6.3988   -1.8524 O   0  0  0  0  0  0  0  0  0  0  0  0
   -0.0080    7.5209   -1.2164 C   0  0  0  0  0  0  0  0  0  0  0  0
    1.0290    4.0889   -2.0949 C   0  0  0  0  0  0  0  0  0  0  0  0
    1.7630    4.3930   -3.1881 O   0  0  0  0  0  0  0  0  0  0  0  0
    0.9413    2.7438   -1.6360 C   0  0  0  0  0  0  0  0  0  0  0  0
    1.5656    1.7106   -2.2740 O   0  0  0  0  0  0  0  0  0  0  0  0
    2.2238    1.7356   -3.4860 C   0  0  0  0  0  0  0  0  0  0  0  0
    0.1634    2.4437   -0.4837 C   0  0  0  0  0  0  0  0  0  0  0  0
    3.1016   -2.6219   -1.7202 H   0  0  0  0  0  0  0  0  0  0  0  0
    2.0488   -3.5766   -0.5787 H   0  0  0  0  0  0  0  0  0  0  0  0
    2.8057   -4.3770   -2.0026 H   0  0  0  0  0  0  0  0  0  0  0  0
    1.5531   -1.1647   -0.6350 H   0  0  0  0  0  0  0  0  0  0  0  0
   -2.0237    0.9188   -1.7361 H   0  0  0  0  0  0  0  0  0  0  0  0
   -3.1945    1.1681   -3.8851 H   0  0  0  0  0  0  0  0  0  0  0  0
   -4.4416   -0.0270   -4.4007 H   0  0  0  0  0  0  0  0  0  0  0  0
   -4.1473    0.2355   -2.6437 H   0  0  0  0  0  0  0  0  0  0  0  0
   -0.4461   -3.6630   -4.1320 H   0  0  0  0  0  0  0  0  0  0  0  0
    1.0580    0.7903    0.4896 H   0  0  0  0  0  0  0  0  0  0  0  0
   -2.0207    0.8109    0.6462 H   0  0  0  0  0  0  0  0  0  0  0  0
   -0.5843   -1.3992    1.0320 H   0  0  0  0  0  0  0  0  0  0  0  0
    0.0882   -0.6050    2.4347 H   0  0  0  0  0  0  0  0  0  0  0  0
   -2.2158   -2.8539    1.6654 H   0  0  0  0  0  0  0  0  0  0  0  0
   -3.3804   -3.1343   -0.3632 H   0  0  0  0  0  0  0  0  0  0  0  0
   -4.1948   -1.7341   -1.1091 H   0  0  0  0  0  0  0  0  0  0  0  0
   -5.8143   -1.5591    0.7395 H   0  0  0  0  0  0  0  0  0  0  0  0
   -6.9912   -3.1277   -0.1024 H   0  0  0  0  0  0  0  0  0  0  0  0
   -4.4324   -4.1326    1.7526 H   0  0  0  0  0  0  0  0  0  0  0  0
   -5.9412   -4.0857    3.3327 H   0  0  0  0  0  0  0  0  0  0  0  0
   -4.5605   -1.2763    2.9430 H   0  0  0  0  0  0  0  0  0  0  0  0
   -3.3123   -2.1229    4.5350 H   0  0  0  0  0  0  0  0  0  0  0  0
    0.0354    2.0036    2.5731 H   0  0  0  0  0  0  0  0  0  0  0  0
   -1.9064    2.6545    4.0262 H   0  0  0  0  0  0  0  0  0  0  0  0
   -1.6763    0.9136    3.9818 H   0  0  0  0  0  0  0  0  0  0  0  0
   -3.7358    2.4608    2.8986 H   0  0  0  0  0  0  0  0  0  0  0  0
   -2.3850    3.3242    1.1375 H   0  0  0  0  0  0  0  0  0  0  0  0
   -1.1165    4.0731    2.1675 H   0  0  0  0  0  0  0  0  0  0  0  0
   -0.9249    5.5887    0.2611 H   0  0  0  0  0  0  0  0  0  0  0  0
   -1.1150    7.4738   -1.1437 H   0  0  0  0  0  0  0  0  0  0  0  0
    0.2683    8.4209   -1.8029 H   0  0  0  0  0  0  0  0  0  0  0  0
    0.4403    7.6136   -0.2032 H   0  0  0  0  0  0  0  0  0  0  0  0
    1.8488    5.2931   -3.5321 H   0  0  0  0  0  0  0  0  0  0  0  0
    1.5307    2.0664   -4.2900 H   0  0  0  0  0  0  0  0  0  0  0  0
    2.5622    0.7078   -3.7287 H   0  0  0  0  0  0  0  0  0  0  0  0
    3.1203    2.3870   -3.4358 H   0  0  0  0  0  0  0  0  0  0  0  0
  1 40  1  0  0  0  0
  1 41  1  0  0  0  0
  1 42  1  0  0  0  0
  2  1  1  0  0  0  0
  3  2  1  0  0  0  0
  4  3  2  0  0  0  0
  4 43  1  0  0  0  0
  5  4  1  0  0  0  0
  6  5  2  0  0  0  0
  6 44  1  0  0  0  0
  7  6  1  0  0  0  0
  8  7  1  0  0  0  0
  9  8  1  0  0  0  0
  9 45  1  0  0  0  0
  9 46  1  0  0  0  0
  9 47  1  0  0  0  0
 10  7  2  0  0  0  0
 10  3  1  0  0  0  0
 11 10  1  0  0  0  0
 11 48  1  0  0  0  0
 12  5  1  0  0  0  0
 12 49  1  1  0  0  0
 13 12  1  0  0  0  0
 13 50  1  6  0  0  0
 14 13  1  0  0  0  0
 14 51  1  0  0  0  0
 14 52  1  0  0  0  0
 15 14  1  0  0  0  0
 16 15  1  0  0  0  0
 16 53  1  6  0  0  0
 17 16  1  0  0  0  0
 18 17  1  0  0  0  0
 18 54  1  0  0  0  0
 18 55  1  0  0  0  0
 19 18  1  0  0  0  0
 19 56  1  1  0  0  0
 20 19  1  0  0  0  0
 20 57  1  0  0  0  0
 21 19  1  0  0  0  0
 21 58  1  6  0  0  0
 22 21  1  0  0  0  0
 22 59  1  0  0  0  0
 23 21  1  0  0  0  0
 23 16  1  0  0  0  0
 23 60  1  1  0  0  0
 24 23  1  0  0  0  0
 24 61  1  0  0  0  0
 25 13  1  0  0  0  0
 25 62  1  1  0  0  0
 26 25  1  0  0  0  0
 26 63  1  0  0  0  0
 26 64  1  0  0  0  0
 27 26  1  0  0  0  0
 27 65  1  0  0  0  0
 28 25  1  0  0  0  0
 28 66  1  0  0  0  0
 28 67  1  0  0  0  0
 29 28  1  0  0  0  0
 30 29  2  0  0  0  0
 30 68  1  0  0  0  0
 31 30  1  0  0  0  0
 32 31  1  0  0  0  0
 33 32  1  0  0  0  0
 33 69  1  0  0  0  0
 33 70  1  0  0  0  0
 33 71  1  0  0  0  0
 34 31  2  0  0  0  0
 35 34  1  0  0  0  0
 35 72  1  0  0  0  0
 36 34  1  0  0  0  0
 37 36  1  0  0  0  0
 38 37  1  0  0  0  0
 38 73  1  0  0  0  0
 38 74  1  0  0  0  0
 38 75  1  0  0  0  0
 39 36  2  0  0  0  0
 39 12  1  0  0  0  0
 39 29  1  0  0  0  0
M  END
>  <MOL Chiral Flag>
0

>  <energy>
211.60745787160238

$$$$
> 469_AKC_j.bcp.2013.10.004
>453.sdf
 OpenBabel10062214043D

 67 70  0  0  0  0  0  0  0  0999 V2000
    3.3895    0.8962    4.5884 C   0  0  0  0  0  0  0  0  0  0  0  0
    3.4657   -0.2713    3.8549 O   0  0  0  0  0  0  0  0  0  0  0  0
    3.4893   -0.2705    2.5011 C   0  0  0  0  0  0  0  0  0  0  0  0
    4.6807   -0.5887    1.8546 C   0  0  0  0  0  0  0  0  0  0  0  0
    4.7381   -0.6425    0.4672 C   0  0  0  0  0  0  0  0  0  0  0  0
    3.6121   -0.3397   -0.3085 C   0  0  0  0  0  0  0  0  0  0  0  0
    3.6971   -0.5957   -1.8205 C   0  0  0  0  0  0  0  0  0  0  0  0
    2.3782   -0.4504   -2.6659 C   0  0  1  0  0  0  0  0  0  0  0  0
    2.4877   -1.3690   -3.9030 C   0  0  0  0  0  0  0  0  0  0  0  0
    1.4577   -1.1049   -4.8149 O   0  0  0  0  0  0  0  0  0  0  0  0
    1.1689   -0.7425   -1.7111 C   0  0  2  0  0  0  0  0  0  0  0  0
   -0.2287   -1.0639   -2.2958 C   0  0  0  0  0  0  0  0  0  0  0  0
   -0.8607   -1.9131   -1.3646 O   0  0  0  0  0  0  0  0  0  0  0  0
   -2.2046   -1.6078   -1.1155 C   0  0  2  0  0  0  0  0  0  0  0  0
   -2.2528   -0.4680   -0.2720 O   0  0  0  0  0  0  0  0  0  0  0  0
   -3.5840   -0.1723    0.1025 C   0  0  0  0  0  0  0  0  0  0  0  0
   -4.1697   -1.3106    0.9532 C   0  0  1  0  0  0  0  0  0  0  0  0
   -5.4731   -0.9955    1.3623 O   0  0  0  0  0  0  0  0  0  0  0  0
   -4.1860   -2.5887    0.1055 C   0  0  2  0  0  0  0  0  0  0  0  0
   -4.6181   -3.6857    0.8692 O   0  0  0  0  0  0  0  0  0  0  0  0
   -2.7667   -2.8525   -0.3920 C   0  0  1  0  0  0  0  0  0  0  0  0
   -2.7686   -3.9647   -1.2522 O   0  0  0  0  0  0  0  0  0  0  0  0
    1.2072    0.3687   -0.5851 C   0  0  1  0  0  0  0  0  0  0  0  0
    0.1795    1.5530   -0.5790 C   0  0  0  0  0  0  0  0  0  0  0  0
   -0.3630    2.1127    0.6020 C   0  0  0  0  0  0  0  0  0  0  0  0
   -1.2496    3.2133    0.5643 C   0  0  0  0  0  0  0  0  0  0  0  0
   -1.7348    3.7883    1.7013 O   0  0  0  0  0  0  0  0  0  0  0  0
   -1.2905    3.5349    2.9842 C   0  0  0  0  0  0  0  0  0  0  0  0
   -1.6290    3.7515   -0.6741 C   0  0  0  0  0  0  0  0  0  0  0  0
   -2.4859    4.7932   -0.7495 O   0  0  0  0  0  0  0  0  0  0  0  0
   -1.1004    3.2228   -1.8488 C   0  0  0  0  0  0  0  0  0  0  0  0
   -0.2006    2.1570   -1.8076 C   0  0  0  0  0  0  0  0  0  0  0  0
    2.3930    0.0503    0.3284 C   0  0  0  0  0  0  0  0  0  0  0  0
    2.3289    0.0170    1.7470 C   0  0  0  0  0  0  0  0  0  0  0  0
    1.1569    0.1960    2.3776 O   0  0  0  0  0  0  0  0  0  0  0  0
    4.2866    1.5214    4.3930 H   0  0  0  0  0  0  0  0  0  0  0  0
    3.3603    0.6461    5.6687 H   0  0  0  0  0  0  0  0  0  0  0  0
    2.4835    1.4840    4.3352 H   0  0  0  0  0  0  0  0  0  0  0  0
    5.5603   -0.8328    2.4367 H   0  0  0  0  0  0  0  0  0  0  0  0
    5.6589   -0.9537   -0.0101 H   0  0  0  0  0  0  0  0  0  0  0  0
    4.5258   -0.0331   -2.3000 H   0  0  0  0  0  0  0  0  0  0  0  0
    3.9731   -1.6747   -1.8545 H   0  0  0  0  0  0  0  0  0  0  0  0
    2.2988    0.5919   -3.0472 H   0  0  0  0  0  0  0  0  0  0  0  0
    3.4533   -1.1731   -4.4191 H   0  0  0  0  0  0  0  0  0  0  0  0
    2.4635   -2.4335   -3.5694 H   0  0  0  0  0  0  0  0  0  0  0  0
    1.4051   -1.8956   -5.4129 H   0  0  0  0  0  0  0  0  0  0  0  0
    1.4516   -1.7255   -1.2621 H   0  0  0  0  0  0  0  0  0  0  0  0
   -0.8150   -0.1771   -2.6059 H   0  0  0  0  0  0  0  0  0  0  0  0
   -0.1307   -1.6900   -3.1989 H   0  0  0  0  0  0  0  0  0  0  0  0
   -2.7663   -1.4357   -2.0670 H   0  0  0  0  0  0  0  0  0  0  0  0
   -3.5674    0.7570    0.7093 H   0  0  0  0  0  0  0  0  0  0  0  0
   -4.2117    0.0365   -0.7940 H   0  0  0  0  0  0  0  0  0  0  0  0
   -3.5181   -1.4809    1.8446 H   0  0  0  0  0  0  0  0  0  0  0  0
   -5.3844   -0.3746    2.1319 H   0  0  0  0  0  0  0  0  0  0  0  0
   -4.8469   -2.4501   -0.7837 H   0  0  0  0  0  0  0  0  0  0  0  0
   -5.6093   -3.6559    0.8857 H   0  0  0  0  0  0  0  0  0  0  0  0
   -2.1326   -3.0604    0.5049 H   0  0  0  0  0  0  0  0  0  0  0  0
   -1.8636   -4.3711   -1.2091 H   0  0  0  0  0  0  0  0  0  0  0  0
    1.8422    1.1616   -1.0398 H   0  0  0  0  0  0  0  0  0  0  0  0
   -0.1044    1.7388    1.5500 H   0  0  0  0  0  0  0  0  0  0  0  0
   -1.8529    4.1753    3.6948 H   0  0  0  0  0  0  0  0  0  0  0  0
   -0.2112    3.7900    3.0688 H   0  0  0  0  0  0  0  0  0  0  0  0
   -1.4585    2.4733    3.2597 H   0  0  0  0  0  0  0  0  0  0  0  0
   -2.8829    5.1987    0.0350 H   0  0  0  0  0  0  0  0  0  0  0  0
   -1.3797    3.6520   -2.8032 H   0  0  0  0  0  0  0  0  0  0  0  0
    0.2052    1.7975   -2.7430 H   0  0  0  0  0  0  0  0  0  0  0  0
    1.0414    0.0993    3.3320 H   0  0  0  0  0  0  0  0  0  0  0  0
  1 36  1  0  0  0  0
  1 37  1  0  0  0  0
  1 38  1  0  0  0  0
  2  1  1  0  0  0  0
  3  2  1  0  0  0  0
  4  3  2  0  0  0  0
  4 39  1  0  0  0  0
  5  4  1  0  0  0  0
  5 40  1  0  0  0  0
  6  5  2  0  0  0  0
  7  6  1  0  0  0  0
  7 41  1  0  0  0  0
  7 42  1  0  0  0  0
  8  7  1  0  0  0  0
  8 43  1  6  0  0  0
  9  8  1  0  0  0  0
  9 44  1  0  0  0  0
  9 45  1  0  0  0  0
 10  9  1  0  0  0  0
 10 46  1  0  0  0  0
 11  8  1  0  0  0  0
 11 47  1  1  0  0  0
 12 11  1  0  0  0  0
 12 48  1  0  0  0  0
 12 49  1  0  0  0  0
 13 12  1  0  0  0  0
 14 13  1  0  0  0  0
 14 50  1  6  0  0  0
 15 14  1  0  0  0  0
 16 15  1  0  0  0  0
 16 51  1  0  0  0  0
 16 52  1  0  0  0  0
 17 16  1  0  0  0  0
 17 53  1  1  0  0  0
 18 17  1  0  0  0  0
 18 54  1  0  0  0  0
 19 17  1  0  0  0  0
 19 55  1  6  0  0  0
 20 19  1  0  0  0  0
 20 56  1  0  0  0  0
 21 19  1  0  0  0  0
 21 14  1  0  0  0  0
 21 57  1  1  0  0  0
 22 21  1  0  0  0  0
 22 58  1  0  0  0  0
 23 11  1  0  0  0  0
 23 59  1  6  0  0  0
 24 23  1  0  0  0  0
 25 24  2  0  0  0  0
 25 60  1  0  0  0  0
 26 25  1  0  0  0  0
 27 26  1  0  0  0  0
 28 27  1  0  0  0  0
 28 61  1  0  0  0  0
 28 62  1  0  0  0  0
 28 63  1  0  0  0  0
 29 26  2  0  0  0  0
 30 29  1  0  0  0  0
 30 64  1  0  0  0  0
 31 29  1  0  0  0  0
 31 65  1  0  0  0  0
 32 31  2  0  0  0  0
 32 24  1  0  0  0  0
 32 66  1  0  0  0  0
 33 23  1  0  0  0  0
 33  6  1  0  0  0  0
 34 33  2  0  0  0  0
 34  3  1  0  0  0  0
 35 34  1  0  0  0  0
 35 67  1  0  0  0  0
M  END
>  <MOL Chiral Flag>
0

>  <energy>
198.48970564293342

$$$$
> 470_AKC_AAC.00557-13
>454.sdf
 OpenBabel10062214053D

 49 51  0  0  0  0  0  0  0  0999 V2000
   10.9733    0.9245   -5.6846 Cl  0  0  0  0  0  0  0  0  0  0  0  0
    9.5183    0.5391   -4.7821 C   0  0  0  0  0  0  0  0  0  0  0  0
    9.6094   -0.1421   -3.5694 C   0  0  0  0  0  0  0  0  0  0  0  0
    8.4540   -0.4439   -2.8381 C   0  0  0  0  0  0  0  0  0  0  0  0
    8.5752   -1.0989   -1.6563 N   0  0  0  0  0  0  0  0  0  0  0  0
    7.4997   -1.3994   -0.8914 C   0  0  0  0  0  0  0  0  0  0  0  0
    6.2188   -1.0367   -1.2996 C   0  0  0  0  0  0  0  0  0  0  0  0
    6.0192   -0.3670   -2.5244 C   0  0  0  0  0  0  0  0  0  0  0  0
    4.6941    0.0277   -2.9309 N   0  0  0  0  0  0  0  0  0  0  0  0
    3.4870   -0.1654   -2.1373 C   0  0  0  0  0  0  0  0  0  0  0  0
    3.0053   -1.6268   -2.1156 C   0  0  0  0  0  0  0  0  0  0  0  0
    1.6182   -1.7360   -1.4468 C   0  0  0  0  0  0  0  0  0  0  0  0
    1.1030   -3.1811   -1.4930 C   0  0  0  0  0  0  0  0  0  0  0  0
   -0.3026   -3.2860   -1.1326 N   0  0  0  0  0  0  0  0  0  0  0  0
   -0.7943   -3.0744    0.1220 C   0  0  0  0  0  0  0  0  0  0  0  0
   -0.0511   -2.7630    1.0405 O   0  0  0  0  0  0  0  0  0  0  0  0
   -2.2513   -3.2774    0.3576 C   0  0  0  0  0  0  0  0  0  0  0  0
   -2.8238   -3.2089    1.5783 C   0  0  0  0  0  0  0  0  0  0  0  0
   -4.2824   -3.4581    1.8245 C   0  0  0  0  0  0  0  0  0  0  0  0
   -4.7508   -3.4649    3.1526 C   0  0  0  0  0  0  0  0  0  0  0  0
   -6.1003   -3.7123    3.4318 C   0  0  0  0  0  0  0  0  0  0  0  0
   -7.0002   -3.9513    2.3924 C   0  0  0  0  0  0  0  0  0  0  0  0
   -6.5555   -3.9426    1.0711 C   0  0  0  0  0  0  0  0  0  0  0  0
   -5.2093   -3.6998    0.7818 C   0  0  0  0  0  0  0  0  0  0  0  0
    7.1719   -0.0593   -3.3195 C   0  0  0  0  0  0  0  0  0  0  0  0
    7.1051    0.6245   -4.5605 C   0  0  0  0  0  0  0  0  0  0  0  0
    8.2709    0.9172   -5.2759 C   0  0  0  0  0  0  0  0  0  0  0  0
   10.5818   -0.4325   -3.1894 H   0  0  0  0  0  0  0  0  0  0  0  0
    7.6405   -1.9151    0.0489 H   0  0  0  0  0  0  0  0  0  0  0  0
    5.3966   -1.2758   -0.6463 H   0  0  0  0  0  0  0  0  0  0  0  0
    4.5703    0.5712   -3.7911 H   0  0  0  0  0  0  0  0  0  0  0  0
    2.6771    0.4251   -2.6213 H   0  0  0  0  0  0  0  0  0  0  0  0
    3.6247    0.2438   -1.1139 H   0  0  0  0  0  0  0  0  0  0  0  0
    3.7238   -2.2916   -1.5985 H   0  0  0  0  0  0  0  0  0  0  0  0
    2.9152   -1.9754   -3.1683 H   0  0  0  0  0  0  0  0  0  0  0  0
    1.6593   -1.3748   -0.3967 H   0  0  0  0  0  0  0  0  0  0  0  0
    0.9100   -1.0942   -2.0158 H   0  0  0  0  0  0  0  0  0  0  0  0
    1.7224   -3.8504   -0.8573 H   0  0  0  0  0  0  0  0  0  0  0  0
    1.1945   -3.5311   -2.5449 H   0  0  0  0  0  0  0  0  0  0  0  0
   -0.9570   -3.5835   -1.8713 H   0  0  0  0  0  0  0  0  0  0  0  0
   -2.8464   -3.5186   -0.5089 H   0  0  0  0  0  0  0  0  0  0  0  0
   -2.1957   -2.9890    2.4377 H   0  0  0  0  0  0  0  0  0  0  0  0
   -4.0689   -3.2866    3.9746 H   0  0  0  0  0  0  0  0  0  0  0  0
   -6.4490   -3.7215    4.4565 H   0  0  0  0  0  0  0  0  0  0  0  0
   -8.0433   -4.1438    2.6099 H   0  0  0  0  0  0  0  0  0  0  0  0
   -7.2553   -4.1269    0.2656 H   0  0  0  0  0  0  0  0  0  0  0  0
   -4.9161   -3.7039   -0.2546 H   0  0  0  0  0  0  0  0  0  0  0  0
    6.1776    0.9470   -4.9980 H   0  0  0  0  0  0  0  0  0  0  0  0
    8.2022    1.4456   -6.2189 H   0  0  0  0  0  0  0  0  0  0  0  0
  2  1  1  0  0  0  0
  3  2  2  0  0  0  0
  3 28  1  0  0  0  0
  4  3  1  0  0  0  0
  5  4  2  0  0  0  0
  6  5  1  0  0  0  0
  6 29  1  0  0  0  0
  7  6  2  0  0  0  0
  7 30  1  0  0  0  0
  8  7  1  0  0  0  0
  9  8  1  0  0  0  0
  9 31  1  0  0  0  0
 10  9  1  0  0  0  0
 10 32  1  0  0  0  0
 10 33  1  0  0  0  0
 11 10  1  0  0  0  0
 11 34  1  0  0  0  0
 11 35  1  0  0  0  0
 12 11  1  0  0  0  0
 12 36  1  0  0  0  0
 12 37  1  0  0  0  0
 13 12  1  0  0  0  0
 13 38  1  0  0  0  0
 13 39  1  0  0  0  0
 14 13  1  0  0  0  0
 14 40  1  0  0  0  0
 15 14  1  0  0  0  0
 16 15  2  0  0  0  0
 17 15  1  0  0  0  0
 17 41  1  0  0  0  0
 18 17  2  0  0  0  0
 18 42  1  0  0  0  0
 19 18  1  0  0  0  0
 20 19  2  0  0  0  0
 20 43  1  0  0  0  0
 21 20  1  0  0  0  0
 21 44  1  0  0  0  0
 22 21  2  0  0  0  0
 22 45  1  0  0  0  0
 23 22  1  0  0  0  0
 23 46  1  0  0  0  0
 24 23  2  0  0  0  0
 24 19  1  0  0  0  0
 24 47  1  0  0  0  0
 25  8  2  0  0  0  0
 25  4  1  0  0  0  0
 26 25  1  0  0  0  0
 26 48  1  0  0  0  0
 27 26  2  0  0  0  0
 27  2  1  0  0  0  0
 27 49  1  0  0  0  0
M  END
>  <MOL Chiral Flag>
0

>  <energy>
25.584851751970199

$$$$
> 471_AKC_j.exppara.2013.07.021
>455.sdf
 OpenBabel10062214063D

 50 55  0  0  0  0  0  0  0  0999 V2000
   -5.1126   -1.9336    0.9314 C   0  0  0  0  0  0  0  0  0  0  0  0
   -3.9307   -1.3138    1.2841 O   0  0  0  0  0  0  0  0  0  0  0  0
   -3.5112   -0.0932    0.8474 C   0  0  0  0  0  0  0  0  0  0  0  0
   -4.3323    0.7078    0.0282 C   0  0  0  0  0  0  0  0  0  0  0  0
   -3.8941    1.9551   -0.4198 C   0  0  0  0  0  0  0  0  0  0  0  0
   -4.8001    2.7989   -1.2691 C   0  0  0  0  0  0  0  0  0  0  0  0
   -2.6179    2.4071   -0.0733 C   0  0  0  0  0  0  0  0  0  0  0  0
   -1.7758    1.6308    0.7425 C   0  0  0  0  0  0  0  0  0  0  0  0
   -2.2255    0.3792    1.2229 C   0  0  0  0  0  0  0  0  0  0  0  0
   -1.3527   -0.4150    2.1371 C   0  0  0  0  0  0  0  0  0  0  0  0
   -1.7436   -1.4748    2.6018 O   0  0  0  0  0  0  0  0  0  0  0  0
   -0.0240    0.1069    2.5946 C   0  0  1  0  0  0  0  0  0  0  0  0
    0.8728    0.0967    1.5231 O   0  0  0  0  0  0  0  0  0  0  0  0
    0.5171    1.3752    1.9843 C   0  0  1  0  0  0  0  0  0  0  0  0
   -0.4159    2.1351    1.0786 C   0  0  0  0  0  0  0  0  0  0  0  0
   -0.0214    3.1842    0.5906 O   0  0  0  0  0  0  0  0  0  0  0  0
    1.3589    2.1387    3.0056 C   0  0  0  0  0  0  0  0  0  0  0  0
    2.7758    2.3767    2.8591 C   0  0  0  0  0  0  0  0  0  0  0  0
    3.5324    1.9504    1.8021 O   0  0  0  0  0  0  0  0  0  0  0  0
    3.2755    1.1184    0.7401 C   0  0  0  0  0  0  0  0  0  0  0  0
    3.4644    3.1353    3.8538 C   0  0  0  0  0  0  0  0  0  0  0  0
    2.7610    3.6620    4.9572 C   0  0  0  0  0  0  0  0  0  0  0  0
    1.3899    3.4431    5.0745 C   0  0  0  0  0  0  0  0  0  0  0  0
    0.6835    2.7017    4.1291 C   0  0  0  0  0  0  0  0  0  0  0  0
   -0.8110    2.5529    4.3322 C   0  0  0  0  0  0  0  0  0  0  0  0
    3.4550    4.4748    5.9976 C   0  0  0  0  0  0  0  0  0  0  0  0
    2.8198    4.9611    6.9218 O   0  0  0  0  0  0  0  0  0  0  0  0
    4.9283    4.7247    5.9385 C   0  0  1  0  0  0  0  0  0  0  0  0
    5.5963    3.4905    6.0096 O   0  0  0  0  0  0  0  0  0  0  0  0
    5.6863    4.1769    4.7864 C   0  0  1  0  0  0  0  0  0  0  0  0
    4.9426    3.4012    3.7391 C   0  0  0  0  0  0  0  0  0  0  0  0
    5.5793    2.9908    2.7811 O   0  0  0  0  0  0  0  0  0  0  0  0
   -5.9828   -1.3281    1.2613 H   0  0  0  0  0  0  0  0  0  0  0  0
   -5.1631   -2.9236    1.4291 H   0  0  0  0  0  0  0  0  0  0  0  0
   -5.1475   -2.0929   -0.1681 H   0  0  0  0  0  0  0  0  0  0  0  0
   -5.3195    0.3711   -0.2597 H   0  0  0  0  0  0  0  0  0  0  0  0
   -5.0595    2.2534   -2.2001 H   0  0  0  0  0  0  0  0  0  0  0  0
   -4.3248    3.7641   -1.5455 H   0  0  0  0  0  0  0  0  0  0  0  0
   -5.7324    3.0207   -0.7069 H   0  0  0  0  0  0  0  0  0  0  0  0
   -2.2824    3.3716   -0.4351 H   0  0  0  0  0  0  0  0  0  0  0  0
    0.5070   -0.4452    3.4001 H   0  0  0  0  0  0  0  0  0  0  0  0
    4.1714    1.1059    0.0864 H   0  0  0  0  0  0  0  0  0  0  0  0
    3.1485    0.0766    1.0955 H   0  0  0  0  0  0  0  0  0  0  0  0
    2.4301    1.4964    0.1307 H   0  0  0  0  0  0  0  0  0  0  0  0
    0.8560    3.8653    5.9177 H   0  0  0  0  0  0  0  0  0  0  0  0
   -1.3598    2.9849    3.4708 H   0  0  0  0  0  0  0  0  0  0  0  0
   -1.0932    1.4913    4.4648 H   0  0  0  0  0  0  0  0  0  0  0  0
   -1.1637    3.0875    5.2395 H   0  0  0  0  0  0  0  0  0  0  0  0
    5.4115    5.4068    6.6693 H   0  0  0  0  0  0  0  0  0  0  0  0
    6.7553    4.4354    4.6331 H   0  0  0  0  0  0  0  0  0  0  0  0
  1 33  1  0  0  0  0
  1 34  1  0  0  0  0
  1 35  1  0  0  0  0
  2  1  1  0  0  0  0
  3  2  1  0  0  0  0
  4  3  2  0  0  0  0
  4 36  1  0  0  0  0
  5  4  1  0  0  0  0
  6  5  1  0  0  0  0
  6 37  1  0  0  0  0
  6 38  1  0  0  0  0
  6 39  1  0  0  0  0
  7  5  2  0  0  0  0
  7 40  1  0  0  0  0
  8  7  1  0  0  0  0
  9  8  2  0  0  0  0
  9  3  1  0  0  0  0
 10  9  1  0  0  0  0
 11 10  2  0  0  0  0
 12 10  1  0  0  0  0
 12 41  1  1  0  0  0
 13 12  1  0  0  0  0
 14 13  1  0  0  0  0
 14 12  1  0  0  0  0
 14 17  1  1  0  0  0
 15 14  1  0  0  0  0
 15  8  1  0  0  0  0
 16 15  2  0  0  0  0
 18 17  2  0  0  0  0
 19 18  1  0  0  0  0
 20 19  1  0  0  0  0
 20 42  1  0  0  0  0
 20 43  1  0  0  0  0
 20 44  1  0  0  0  0
 21 18  1  0  0  0  0
 22 21  2  0  0  0  0
 23 22  1  0  0  0  0
 23 45  1  0  0  0  0
 24 23  2  0  0  0  0
 24 17  1  0  0  0  0
 25 24  1  0  0  0  0
 25 46  1  0  0  0  0
 25 47  1  0  0  0  0
 25 48  1  0  0  0  0
 26 22  1  0  0  0  0
 27 26  2  0  0  0  0
 28 26  1  0  0  0  0
 28 49  1  1  0  0  0
 29 28  1  0  0  0  0
 30 29  1  0  0  0  0
 30 28  1  0  0  0  0
 30 50  1  6  0  0  0
 31 30  1  0  0  0  0
 31 21  1  0  0  0  0
 32 31  2  0  0  0  0
M  END
>  <MOL Chiral Flag>
0

>  <energy>
183.5358020548004

$$$$
> 472_AKC_j.bmcl.2013.06.060
>456.sdf
 OpenBabel10062214073D

 44 46  0  0  0  0  0  0  0  0999 V2000
    7.3516   -0.2502   -1.5044 C   0  0  0  0  0  0  0  0  0  0  0  0
    6.9148    1.4919   -1.7924 S   0  0  0  0  0  0  0  0  0  0  0  0
    5.4884    1.4567   -0.7073 C   0  0  0  0  0  0  0  0  0  0  0  0
    5.6645    1.5541    0.6364 N   0  0  0  0  0  0  0  0  0  0  0  0
    4.6002    1.5496    1.4815 C   0  0  0  0  0  0  0  0  0  0  0  0
    4.8036    1.6319    2.8764 N   0  0  0  0  0  0  0  0  0  0  0  0
    3.3398    1.4597    0.9839 N   0  0  0  0  0  0  0  0  0  0  0  0
    3.1096    1.3581   -0.3547 C   0  0  0  0  0  0  0  0  0  0  0  0
    1.7194    1.2548   -0.8689 C   0  0  0  0  0  0  0  0  0  0  0  0
    0.6641    1.3919   -0.0397 C   0  0  0  0  0  0  0  0  0  0  0  0
   -0.7680    1.2911   -0.4424 C   0  0  0  0  0  0  0  0  0  0  0  0
   -1.1901    0.8908   -1.7283 C   0  0  0  0  0  0  0  0  0  0  0  0
   -2.5580    0.7827   -2.0217 C   0  0  0  0  0  0  0  0  0  0  0  0
   -3.5225    1.0851   -1.0380 C   0  0  0  0  0  0  0  0  0  0  0  0
   -4.8585    0.9738   -1.2587 O   0  0  0  0  0  0  0  0  0  0  0  0
   -5.4525    0.3836   -2.3579 C   0  0  0  0  0  0  0  0  0  0  0  0
   -6.9579    0.3562   -2.2185 C   0  0  0  0  0  0  0  0  0  0  0  0
   -7.6177    0.9642   -1.1293 C   0  0  0  0  0  0  0  0  0  0  0  0
   -9.0117    0.9078   -1.0292 C   0  0  0  0  0  0  0  0  0  0  0  0
   -9.7589    0.2440   -2.0045 C   0  0  0  0  0  0  0  0  0  0  0  0
   -9.1149   -0.3614   -3.0861 C   0  0  0  0  0  0  0  0  0  0  0  0
   -7.7216   -0.3034   -3.1961 C   0  0  0  0  0  0  0  0  0  0  0  0
   -3.0985    1.4991    0.2256 C   0  0  0  0  0  0  0  0  0  0  0  0
   -1.7401    1.5939    0.5241 C   0  0  0  0  0  0  0  0  0  0  0  0
    4.1983    1.3486   -1.2353 C   0  0  0  0  0  0  0  0  0  0  0  0
    7.3828   -0.4754   -0.4176 H   0  0  0  0  0  0  0  0  0  0  0  0
    8.3753   -0.4210   -1.8966 H   0  0  0  0  0  0  0  0  0  0  0  0
    6.6453   -0.9166   -2.0407 H   0  0  0  0  0  0  0  0  0  0  0  0
    5.7572    1.6910    3.2610 H   0  0  0  0  0  0  0  0  0  0  0  0
    3.9984    1.6187    3.5195 H   0  0  0  0  0  0  0  0  0  0  0  0
    1.5748    1.0786   -1.9277 H   0  0  0  0  0  0  0  0  0  0  0  0
    0.8578    1.5993    1.0090 H   0  0  0  0  0  0  0  0  0  0  0  0
   -0.4787    0.6427   -2.5017 H   0  0  0  0  0  0  0  0  0  0  0  0
   -2.8567    0.4596   -3.0099 H   0  0  0  0  0  0  0  0  0  0  0  0
   -5.1804    0.9304   -3.2867 H   0  0  0  0  0  0  0  0  0  0  0  0
   -5.0960   -0.6674   -2.4294 H   0  0  0  0  0  0  0  0  0  0  0  0
   -7.0618    1.4830   -0.3593 H   0  0  0  0  0  0  0  0  0  0  0  0
   -9.5128    1.3778   -0.1925 H   0  0  0  0  0  0  0  0  0  0  0  0
  -10.8373    0.1981   -1.9215 H   0  0  0  0  0  0  0  0  0  0  0  0
   -9.6957   -0.8781   -3.8392 H   0  0  0  0  0  0  0  0  0  0  0  0
   -7.2344   -0.7804   -4.0376 H   0  0  0  0  0  0  0  0  0  0  0  0
   -3.8295    1.7332    0.9893 H   0  0  0  0  0  0  0  0  0  0  0  0
   -1.4438    1.9041    1.5188 H   0  0  0  0  0  0  0  0  0  0  0  0
    4.0484    1.2730   -2.3053 H   0  0  0  0  0  0  0  0  0  0  0  0
  1 26  1  0  0  0  0
  1 27  1  0  0  0  0
  1 28  1  0  0  0  0
  2  1  1  0  0  0  0
  3  2  1  0  0  0  0
  4  3  2  0  0  0  0
  5  4  1  0  0  0  0
  6  5  1  0  0  0  0
  6 29  1  0  0  0  0
  6 30  1  0  0  0  0
  7  5  2  0  0  0  0
  8  7  1  0  0  0  0
  9  8  1  0  0  0  0
  9 31  1  0  0  0  0
 10  9  2  0  0  0  0
 10 32  1  0  0  0  0
 11 10  1  0  0  0  0
 12 11  2  0  0  0  0
 12 33  1  0  0  0  0
 13 12  1  0  0  0  0
 13 34  1  0  0  0  0
 14 13  2  0  0  0  0
 15 14  1  0  0  0  0
 16 15  1  0  0  0  0
 16 35  1  0  0  0  0
 16 36  1  0  0  0  0
 17 16  1  0  0  0  0
 18 17  2  0  0  0  0
 18 37  1  0  0  0  0
 19 18  1  0  0  0  0
 19 38  1  0  0  0  0
 20 19  2  0  0  0  0
 20 39  1  0  0  0  0
 21 20  1  0  0  0  0
 21 40  1  0  0  0  0
 22 21  2  0  0  0  0
 22 17  1  0  0  0  0
 22 41  1  0  0  0  0
 23 14  1  0  0  0  0
 23 42  1  0  0  0  0
 24 23  2  0  0  0  0
 24 11  1  0  0  0  0
 24 43  1  0  0  0  0
 25  8  2  0  0  0  0
 25  3  1  0  0  0  0
 25 44  1  0  0  0  0
M  END
>  <MOL Chiral Flag>
0

>  <energy>
-67.90513697012247

$$$$
> 473_AKC_j.exppara.2013.06.015
>457.sdf
 OpenBabel10062214083D

 89 89  0  0  0  0  0  0  0  0999 V2000
   -4.8234    3.6431    0.9172 C   0  0  0  0  0  0  0  0  0  0  0  0
   -6.2962    4.0115    1.1561 C   0  0  0  0  0  0  0  0  0  0  0  0
   -7.3006    3.1582    0.3503 C   0  0  0  0  0  0  0  0  0  0  0  0
   -7.2382    3.3651   -1.1850 C   0  0  0  0  0  0  0  0  0  0  0  0
   -7.9961    2.3474   -1.9279 N   0  0  0  0  0  0  0  0  0  0  0  0
   -7.7344    0.9137   -1.6845 C   0  0  0  0  0  0  0  0  0  0  0  0
   -6.2542    0.4242   -1.8675 C   0  0  0  0  0  0  0  0  0  0  0  0
   -5.5830   -0.1614   -0.5786 C   0  0  0  0  0  0  0  0  0  0  0  0
   -4.2841   -0.9721   -0.8914 C   0  0  0  0  0  0  0  0  0  0  0  0
   -3.6226   -1.6836    0.3354 C   0  0  0  0  0  0  0  0  0  0  0  0
   -2.4099   -2.5823   -0.0813 C   0  0  0  0  0  0  0  0  0  0  0  0
   -1.6684   -3.2894    1.0999 C   0  0  0  0  0  0  0  0  0  0  0  0
   -0.4953   -4.2094    0.6231 C   0  0  0  0  0  0  0  0  0  0  0  0
    0.3350   -4.8444    1.7833 C   0  0  0  0  0  0  0  0  0  0  0  0
    1.4637   -5.8013    1.2839 C   0  0  0  0  0  0  0  0  0  0  0  0
    2.3439   -6.3791    2.4274 C   0  0  0  0  0  0  0  0  0  0  0  0
    3.2276   -7.3866    1.9394 O   0  0  0  0  0  0  0  0  0  0  0  0
    4.9568   -7.0210    2.1215 P   0  0  1  0  0  0  0  0  0  0  0  0
    5.6407   -6.7263    0.5530 O   0  5  0  0  0  0  0  0  0  0  0  0
    5.1664   -5.7256    2.9533 O   0  0  0  0  0  0  0  0  0  0  0  0
    5.8521   -8.3231    2.9145 O   0  0  0  0  0  0  0  0  0  0  0  0
    7.2087   -7.9395    3.0907 C   0  0  0  0  0  0  0  0  0  0  0  0
    8.0706   -9.1927    3.4228 C   0  0  0  0  0  0  0  0  0  0  0  0
    9.5325   -8.9561    3.6818 N   0  3  0  0  0  0  0  0  0  0  0  0
   10.1881  -10.2717    3.8998 C   0  0  0  0  0  0  0  0  0  0  0  0
   10.1997   -8.3015    2.5314 C   0  0  0  0  0  0  0  0  0  0  0  0
    9.7425   -8.1376    4.8999 C   0  0  0  0  0  0  0  0  0  0  0  0
   -8.9931    2.6485   -2.9487 C   0  0  0  0  0  0  0  0  0  0  0  0
  -10.3783    2.3292   -2.7062 C   0  0  0  0  0  0  0  0  0  0  0  0
  -11.2809    2.2577   -3.7907 C   0  0  0  0  0  0  0  0  0  0  0  0
  -10.8661    2.4898   -5.0994 C   0  0  0  0  0  0  0  0  0  0  0  0
   -9.5607    2.9139   -5.3301 C   0  0  0  0  0  0  0  0  0  0  0  0
   -8.6080    3.0198   -4.2884 C   0  0  0  0  0  0  0  0  0  0  0  0
   -7.2801    3.4418   -4.6373 N   0  0  0  0  0  0  0  0  0  0  0  0
   -7.0383    3.7772   -5.7596 O   0  0  0  0  0  0  0  0  0  0  0  0
   -6.4478    3.5987   -3.8045 O   0  0  0  0  0  0  0  0  0  0  0  0
  -11.7930    2.2505   -6.2774 C   0  0  0  0  0  0  0  0  0  0  0  0
  -13.0567    1.8474   -5.8784 F   0  0  0  0  0  0  0  0  0  0  0  0
  -11.9132    3.3930   -7.0444 F   0  0  0  0  0  0  0  0  0  0  0  0
  -11.2562    1.2421   -7.0622 F   0  0  0  0  0  0  0  0  0  0  0  0
  -10.8807    2.0650   -1.3864 N   0  0  0  0  0  0  0  0  0  0  0  0
  -10.1881    2.2188   -0.4312 O   0  0  0  0  0  0  0  0  0  0  0  0
  -12.0481    1.8601   -1.2229 O   0  0  0  0  0  0  0  0  0  0  0  0
   -4.5096    3.8328   -0.1284 H   0  0  0  0  0  0  0  0  0  0  0  0
   -4.1748    4.2562    1.5788 H   0  0  0  0  0  0  0  0  0  0  0  0
   -4.6373    2.5778    1.1673 H   0  0  0  0  0  0  0  0  0  0  0  0
   -6.4935    3.8323    2.2364 H   0  0  0  0  0  0  0  0  0  0  0  0
   -6.4515    5.0901    0.9485 H   0  0  0  0  0  0  0  0  0  0  0  0
   -8.3244    3.3926    0.7036 H   0  0  0  0  0  0  0  0  0  0  0  0
   -7.0869    2.1046    0.6117 H   0  0  0  0  0  0  0  0  0  0  0  0
   -7.5768    4.3932   -1.4457 H   0  0  0  0  0  0  0  0  0  0  0  0
   -6.1784    3.2644   -1.4728 H   0  0  0  0  0  0  0  0  0  0  0  0
   -8.1361    0.5907   -0.7046 H   0  0  0  0  0  0  0  0  0  0  0  0
   -8.3419    0.3333   -2.4187 H   0  0  0  0  0  0  0  0  0  0  0  0
   -6.3154   -0.4369   -2.5669 H   0  0  0  0  0  0  0  0  0  0  0  0
   -5.6204    1.1773   -2.3831 H   0  0  0  0  0  0  0  0  0  0  0  0
   -5.3668    0.6483    0.1441 H   0  0  0  0  0  0  0  0  0  0  0  0
   -6.3029   -0.8642   -0.1066 H   0  0  0  0  0  0  0  0  0  0  0  0
   -4.5563   -1.7600   -1.6255 H   0  0  0  0  0  0  0  0  0  0  0  0
   -3.5397   -0.2944   -1.3614 H   0  0  0  0  0  0  0  0  0  0  0  0
   -3.2878   -0.9131    1.0630 H   0  0  0  0  0  0  0  0  0  0  0  0
   -4.3793   -2.3291    0.8330 H   0  0  0  0  0  0  0  0  0  0  0  0
   -2.7827   -3.3612   -0.7816 H   0  0  0  0  0  0  0  0  0  0  0  0
   -1.6722   -1.9511   -0.6211 H   0  0  0  0  0  0  0  0  0  0  0  0
   -2.3923   -3.9092    1.6728 H   0  0  0  0  0  0  0  0  0  0  0  0
   -1.2631   -2.5072    1.7763 H   0  0  0  0  0  0  0  0  0  0  0  0
   -0.9199   -5.0224   -0.0057 H   0  0  0  0  0  0  0  0  0  0  0  0
    0.2000   -3.6104   -0.0031 H   0  0  0  0  0  0  0  0  0  0  0  0
   -0.3450   -5.4227    2.4464 H   0  0  0  0  0  0  0  0  0  0  0  0
    0.7927   -4.0253    2.3781 H   0  0  0  0  0  0  0  0  0  0  0  0
    0.9864   -6.6469    0.7422 H   0  0  0  0  0  0  0  0  0  0  0  0
    2.1303   -5.2631    0.5768 H   0  0  0  0  0  0  0  0  0  0  0  0
    1.6837   -6.8671    3.1758 H   0  0  0  0  0  0  0  0  0  0  0  0
    2.8457   -5.5475    2.9583 H   0  0  0  0  0  0  0  0  0  0  0  0
    7.6085   -7.4878    2.1587 H   0  0  0  0  0  0  0  0  0  0  0  0
    7.2683   -7.2143    3.9279 H   0  0  0  0  0  0  0  0  0  0  0  0
    7.6187   -9.6873    4.3131 H   0  0  0  0  0  0  0  0  0  0  0  0
    7.9571   -9.8996    2.5692 H   0  0  0  0  0  0  0  0  0  0  0  0
   10.0901  -10.9261    3.0046 H   0  0  0  0  0  0  0  0  0  0  0  0
    9.7427  -10.8083    4.7672 H   0  0  0  0  0  0  0  0  0  0  0  0
   11.2782  -10.1560    4.1054 H   0  0  0  0  0  0  0  0  0  0  0  0
   10.0529   -8.8875    1.5973 H   0  0  0  0  0  0  0  0  0  0  0  0
   11.2973   -8.2096    2.7045 H   0  0  0  0  0  0  0  0  0  0  0  0
    9.8219   -7.2704    2.3707 H   0  0  0  0  0  0  0  0  0  0  0  0
    9.2599   -8.6069    5.7860 H   0  0  0  0  0  0  0  0  0  0  0  0
    9.3407   -7.1107    4.7797 H   0  0  0  0  0  0  0  0  0  0  0  0
   10.8287   -8.0309    5.1281 H   0  0  0  0  0  0  0  0  0  0  0  0
  -12.3092    1.9666   -3.6130 H   0  0  0  0  0  0  0  0  0  0  0  0
   -9.2690    3.1213   -6.3532 H   0  0  0  0  0  0  0  0  0  0  0  0
  1 44  1  0  0  0  0
  1 45  1  0  0  0  0
  1 46  1  0  0  0  0
  2  1  1  0  0  0  0
  2 47  1  0  0  0  0
  2 48  1  0  0  0  0
  3  2  1  0  0  0  0
  3 49  1  0  0  0  0
  3 50  1  0  0  0  0
  4  3  1  0  0  0  0
  4 51  1  0  0  0  0
  4 52  1  0  0  0  0
  5  4  1  0  0  0  0
  6  5  1  0  0  0  0
  6 53  1  0  0  0  0
  6 54  1  0  0  0  0
  7  6  1  0  0  0  0
  7 55  1  0  0  0  0
  7 56  1  0  0  0  0
  8  7  1  0  0  0  0
  8 57  1  0  0  0  0
  8 58  1  0  0  0  0
  9  8  1  0  0  0  0
  9 59  1  0  0  0  0
  9 60  1  0  0  0  0
 10  9  1  0  0  0  0
 10 61  1  0  0  0  0
 10 62  1  0  0  0  0
 11 10  1  0  0  0  0
 11 63  1  0  0  0  0
 11 64  1  0  0  0  0
 12 11  1  0  0  0  0
 12 65  1  0  0  0  0
 12 66  1  0  0  0  0
 13 12  1  0  0  0  0
 13 67  1  0  0  0  0
 13 68  1  0  0  0  0
 14 13  1  0  0  0  0
 14 69  1  0  0  0  0
 14 70  1  0  0  0  0
 15 14  1  0  0  0  0
 15 71  1  0  0  0  0
 15 72  1  0  0  0  0
 16 15  1  0  0  0  0
 16 73  1  0  0  0  0
 16 74  1  0  0  0  0
 17 16  1  0  0  0  0
 18 17  1  6  0  0  0
 19 18  1  0  0  0  0
 20 18  2  0  0  0  0
 21 18  1  0  0  0  0
 22 21  1  0  0  0  0
 22 75  1  0  0  0  0
 22 76  1  0  0  0  0
 23 22  1  0  0  0  0
 23 77  1  0  0  0  0
 23 78  1  0  0  0  0
 24 23  1  0  0  0  0
 25 24  1  0  0  0  0
 25 79  1  0  0  0  0
 25 80  1  0  0  0  0
 25 81  1  0  0  0  0
 26 24  1  0  0  0  0
 26 82  1  0  0  0  0
 26 83  1  0  0  0  0
 26 84  1  0  0  0  0
 27 24  1  0  0  0  0
 27 85  1  0  0  0  0
 27 86  1  0  0  0  0
 27 87  1  0  0  0  0
 28  5  1  0  0  0  0
 29 28  2  0  0  0  0
 30 29  1  0  0  0  0
 30 88  1  0  0  0  0
 31 30  2  0  0  0  0
 32 31  1  0  0  0  0
 32 89  1  0  0  0  0
 33 32  2  0  0  0  0
 33 28  1  0  0  0  0
 34 33  1  0  0  0  0
 35 34  2  0  0  0  0
 36 34  2  0  0  0  0
 37 31  1  0  0  0  0
 38 37  1  0  0  0  0
 39 37  1  0  0  0  0
 40 37  1  0  0  0  0
 41 29  1  0  0  0  0
 42 41  2  0  0  0  0
 43 41  2  0  0  0  0
M  CHG  2  19  -1  24   1
M  END
>  <MOL Chiral Flag>
0

>  <energy>
34.240119824797318

$$$$
> 474_AKC_14756366.2012.689297
>458.sdf
 OpenBabel10062214083D

 28 29  0  0  0  0  0  0  0  0999 V2000
   -6.4861    0.0286    0.5034 O   0  0  0  0  0  0  0  0  0  0  0  0
   -5.1574    0.4112    0.2775 C   0  0  0  0  0  0  0  0  0  0  0  0
   -4.2297   -0.7997    0.3978 C   0  0  0  0  0  0  0  0  0  0  0  0
   -2.7717   -0.3953    0.1722 C   0  0  0  0  0  0  0  0  0  0  0  0
   -1.8796   -1.5143    0.3976 N   0  0  0  0  0  0  0  0  0  0  0  0
   -0.4763   -1.3520    0.2984 C   0  0  0  0  0  0  0  0  0  0  0  0
    0.4278   -2.3269    0.5825 N   0  0  0  0  0  0  0  0  0  0  0  0
    1.7089   -1.9228    0.4479 N   0  0  0  0  0  0  0  0  0  0  0  0
    1.8334   -0.6245    0.0519 C   0  0  0  0  0  0  0  0  0  0  0  0
    0.3280    0.0231   -0.1272 S   0  0  0  0  0  0  0  0  0  0  0  0
    3.1047    0.0741   -0.1461 C   0  0  0  0  0  0  0  0  0  0  0  0
    4.3871   -0.4450    0.0715 C   0  0  0  0  0  0  0  0  0  0  0  0
    5.4242    0.4957   -0.1889 C   0  0  0  0  0  0  0  0  0  0  0  0
    4.9381    1.7386   -0.6115 C   0  0  0  0  0  0  0  0  0  0  0  0
    3.2852    1.6456   -0.6496 S   0  0  0  0  0  0  0  0  0  0  0  0
    5.7103    2.8803   -0.9394 N   0  3  0  0  0  0  0  0  0  0  0  0
    5.1177    3.9851   -1.3375 O   0  5  0  0  0  0  0  0  0  0  0  0
    6.9000    2.8494   -0.8449 O   0  0  0  0  0  0  0  0  0  0  0  0
   -6.5745   -0.1196    1.4818 H   0  0  0  0  0  0  0  0  0  0  0  0
   -5.0822    0.8492   -0.7405 H   0  0  0  0  0  0  0  0  0  0  0  0
   -4.8630    1.2053    1.0023 H   0  0  0  0  0  0  0  0  0  0  0  0
   -4.3326   -1.2243    1.4198 H   0  0  0  0  0  0  0  0  0  0  0  0
   -4.5217   -1.5744   -0.3451 H   0  0  0  0  0  0  0  0  0  0  0  0
   -2.6440   -0.0171   -0.8663 H   0  0  0  0  0  0  0  0  0  0  0  0
   -2.5087    0.4156    0.8866 H   0  0  0  0  0  0  0  0  0  0  0  0
   -2.2566   -2.4339    0.6740 H   0  0  0  0  0  0  0  0  0  0  0  0
    4.5741   -1.4548    0.4124 H   0  0  0  0  0  0  0  0  0  0  0  0
    6.4750    0.2696   -0.0674 H   0  0  0  0  0  0  0  0  0  0  0  0
  1 19  1  0  0  0  0
  2  1  1  0  0  0  0
  2 20  1  0  0  0  0
  2 21  1  0  0  0  0
  3  2  1  0  0  0  0
  3 22  1  0  0  0  0
  3 23  1  0  0  0  0
  4  3  1  0  0  0  0
  4 24  1  0  0  0  0
  4 25  1  0  0  0  0
  5  4  1  0  0  0  0
  5 26  1  0  0  0  0
  6  5  1  0  0  0  0
  7  6  2  0  0  0  0
  8  7  1  0  0  0  0
  9  8  2  0  0  0  0
 10  9  1  0  0  0  0
 10  6  1  0  0  0  0
 11  9  1  0  0  0  0
 12 11  2  0  0  0  0
 12 27  1  0  0  0  0
 13 12  1  0  0  0  0
 13 28  1  0  0  0  0
 14 13  2  0  0  0  0
 15 14  1  0  0  0  0
 15 11  1  0  0  0  0
 16 14  1  0  0  0  0
 17 16  1  0  0  0  0
 18 16  2  0  0  0  0
M  CHG  2  16   1  17  -1
M  END
>  <MOL Chiral Flag>
0

>  <energy>
20.236463174881788

$$$$
> 475_AKC_14756366.2012.689297
>459.sdf
 OpenBabel10062214093D

 31 32  0  0  0  0  0  0  0  0999 V2000
   -5.6450   -3.1050   -3.5181 C   0  0  0  0  0  0  0  0  0  0  0  0
   -4.4997   -2.8096   -2.7402 O   0  0  0  0  0  0  0  0  0  0  0  0
   -4.8975   -1.9945   -1.6602 C   0  0  0  0  0  0  0  0  0  0  0  0
   -3.8119   -1.8809   -0.5805 C   0  0  0  0  0  0  0  0  0  0  0  0
   -2.5374   -1.1378   -1.0274 C   0  0  0  0  0  0  0  0  0  0  0  0
   -1.8975   -0.5572    0.1390 N   0  0  0  0  0  0  0  0  0  0  0  0
   -0.5043   -0.5376    0.4133 C   0  0  0  0  0  0  0  0  0  0  0  0
    0.0141    0.2946    1.3530 N   0  0  0  0  0  0  0  0  0  0  0  0
    1.3576    0.3127    1.3876 N   0  0  0  0  0  0  0  0  0  0  0  0
    1.9466   -0.5193    0.4896 C   0  0  0  0  0  0  0  0  0  0  0  0
    0.7494   -1.2915   -0.3789 S   0  0  0  0  0  0  0  0  0  0  0  0
    3.4040   -0.5526    0.3043 C   0  0  0  0  0  0  0  0  0  0  0  0
    4.1922   -1.4596   -0.4196 C   0  0  0  0  0  0  0  0  0  0  0  0
    5.5815   -1.1201   -0.4158 C   0  0  0  0  0  0  0  0  0  0  0  0
    5.8543    0.0558    0.2954 C   0  0  0  0  0  0  0  0  0  0  0  0
    4.4254    0.6075    0.9120 S   0  0  0  0  0  0  0  0  0  0  0  0
    7.1126    0.6933    0.4415 N   0  3  0  0  0  0  0  0  0  0  0  0
    7.1969    1.8472    1.0680 O   0  5  0  0  0  0  0  0  0  0  0  0
    8.0886    0.2217   -0.0593 O   0  0  0  0  0  0  0  0  0  0  0  0
   -6.1971   -2.1842   -3.8216 H   0  0  0  0  0  0  0  0  0  0  0  0
   -6.3220   -3.8039   -2.9764 H   0  0  0  0  0  0  0  0  0  0  0  0
   -5.3290   -3.6073   -4.4539 H   0  0  0  0  0  0  0  0  0  0  0  0
   -5.7930   -2.4211   -1.1479 H   0  0  0  0  0  0  0  0  0  0  0  0
   -5.1436   -0.9698   -2.0253 H   0  0  0  0  0  0  0  0  0  0  0  0
   -4.2969   -1.2736    0.2153 H   0  0  0  0  0  0  0  0  0  0  0  0
   -3.5545   -2.8685   -0.1415 H   0  0  0  0  0  0  0  0  0  0  0  0
   -2.8557   -0.2767   -1.6535 H   0  0  0  0  0  0  0  0  0  0  0  0
   -1.8608   -1.7725   -1.6400 H   0  0  0  0  0  0  0  0  0  0  0  0
   -2.4828    0.0473    0.7350 H   0  0  0  0  0  0  0  0  0  0  0  0
    3.7968   -2.3273   -0.9300 H   0  0  0  0  0  0  0  0  0  0  0  0
    6.3404   -1.7001   -0.9244 H   0  0  0  0  0  0  0  0  0  0  0  0
  1 20  1  0  0  0  0
  1 21  1  0  0  0  0
  1 22  1  0  0  0  0
  2  1  1  0  0  0  0
  3  2  1  0  0  0  0
  3 23  1  0  0  0  0
  3 24  1  0  0  0  0
  4  3  1  0  0  0  0
  4 25  1  0  0  0  0
  4 26  1  0  0  0  0
  5  4  1  0  0  0  0
  5 27  1  0  0  0  0
  5 28  1  0  0  0  0
  6  5  1  0  0  0  0
  6 29  1  0  0  0  0
  7  6  1  0  0  0  0
  8  7  2  0  0  0  0
  9  8  1  0  0  0  0
 10  9  2  0  0  0  0
 11 10  1  0  0  0  0
 11  7  1  0  0  0  0
 12 10  1  0  0  0  0
 13 12  2  0  0  0  0
 13 30  1  0  0  0  0
 14 13  1  0  0  0  0
 14 31  1  0  0  0  0
 15 14  2  0  0  0  0
 16 15  1  0  0  0  0
 16 12  1  0  0  0  0
 17 15  1  0  0  0  0
 18 17  1  0  0  0  0
 19 17  2  0  0  0  0
M  CHG  2  17   1  18  -1
M  END
>  <MOL Chiral Flag>
0

>  <energy>
31.179814460204373

$$$$
> 476_AKC_cmdc.201300176
>460.sdf
 OpenBabel10062214093D

 60 63  0  0  0  0  0  0  0  0999 V2000
    5.1039   -3.6811   -2.5222 C   0  0  0  0  0  0  0  0  0  0  0  0
    5.1919   -2.1615   -2.4064 C   0  0  0  0  0  0  0  0  0  0  0  0
    3.9457   -1.5486   -1.8100 C   0  0  0  0  0  0  0  0  0  0  0  0
    4.0213   -0.7832   -0.6354 C   0  0  0  0  0  0  0  0  0  0  0  0
    2.8781   -0.1621   -0.1185 C   0  0  0  0  0  0  0  0  0  0  0  0
    1.6341   -0.2978   -0.7645 C   0  0  0  0  0  0  0  0  0  0  0  0
    1.5617   -1.0971   -1.9217 C   0  0  0  0  0  0  0  0  0  0  0  0
    2.7045   -1.7082   -2.4422 C   0  0  0  0  0  0  0  0  0  0  0  0
    0.4670    0.4254   -0.2791 N   0  0  0  0  0  0  0  0  0  0  0  0
   -0.4329    1.0891   -1.0653 C   0  0  0  0  0  0  0  0  0  0  0  0
   -0.3959    1.2369   -2.5706 C   0  0  0  0  0  0  0  0  0  0  0  0
   -1.3622    1.7408   -0.2683 C   0  0  0  0  0  0  0  0  0  0  0  0
   -2.5005    2.6145   -0.7348 C   0  0  0  0  0  0  0  0  0  0  0  0
   -3.5485    1.8314   -1.4480 N   0  3  0  0  0  0  0  0  0  0  0  0
   -4.6103    1.4182   -0.4995 C   0  0  0  0  0  0  0  0  0  0  0  0
   -5.6578    0.5148   -1.1583 C   0  0  0  0  0  0  0  0  0  0  0  0
   -6.5672    1.3984   -2.4639 S   0  0  0  0  0  0  0  0  0  0  0  0
   -5.0760    1.8102   -3.4181 C   0  0  0  0  0  0  0  0  0  0  0  0
   -4.0934    2.6234   -2.5726 C   0  0  0  0  0  0  0  0  0  0  0  0
   -1.0178    1.5000    1.0359 C   0  0  0  0  0  0  0  0  0  0  0  0
    0.1028    0.6792    1.0153 C   0  0  0  0  0  0  0  0  0  0  0  0
    0.7172    0.1515    2.2713 C   0  0  0  0  0  0  0  0  0  0  0  0
    1.3324   -1.1154    2.3231 C   0  0  0  0  0  0  0  0  0  0  0  0
    1.8337   -1.6096    3.5335 C   0  0  0  0  0  0  0  0  0  0  0  0
    1.7340   -0.8460    4.7010 C   0  0  0  0  0  0  0  0  0  0  0  0
    2.3424   -1.4917    6.2593 S   0  0  0  0  0  0  0  0  0  0  0  0
    0.6732   -1.9198    6.8550 C   0  0  0  0  0  0  0  0  0  0  0  0
    1.1373    0.4149    4.6578 C   0  0  0  0  0  0  0  0  0  0  0  0
    0.6223    0.9056    3.4585 C   0  0  0  0  0  0  0  0  0  0  0  0
    6.0451   -4.0692   -2.9667 H   0  0  0  0  0  0  0  0  0  0  0  0
    4.2643   -3.9808   -3.1835 H   0  0  0  0  0  0  0  0  0  0  0  0
    4.9646   -4.1372   -1.5202 H   0  0  0  0  0  0  0  0  0  0  0  0
    5.3496   -1.7320   -3.4197 H   0  0  0  0  0  0  0  0  0  0  0  0
    6.0824   -1.9101   -1.7900 H   0  0  0  0  0  0  0  0  0  0  0  0
    4.9707   -0.6435   -0.1337 H   0  0  0  0  0  0  0  0  0  0  0  0
    2.9741    0.4560    0.7634 H   0  0  0  0  0  0  0  0  0  0  0  0
    0.6197   -1.2456   -2.4313 H   0  0  0  0  0  0  0  0  0  0  0  0
    2.6222   -2.2939   -3.3488 H   0  0  0  0  0  0  0  0  0  0  0  0
    0.5133    0.8424   -3.0493 H   0  0  0  0  0  0  0  0  0  0  0  0
   -0.3981    2.3169   -2.8236 H   0  0  0  0  0  0  0  0  0  0  0  0
   -1.2783    0.7588   -3.0383 H   0  0  0  0  0  0  0  0  0  0  0  0
   -2.0371    3.3886   -1.3853 H   0  0  0  0  0  0  0  0  0  0  0  0
   -2.9416    3.1724    0.1232 H   0  0  0  0  0  0  0  0  0  0  0  0
   -3.1255    0.9663   -1.8558 H   0  0  0  0  0  0  0  0  0  0  0  0
   -5.1219    2.3107   -0.0705 H   0  0  0  0  0  0  0  0  0  0  0  0
   -4.1563    0.8468    0.3411 H   0  0  0  0  0  0  0  0  0  0  0  0
   -6.3984    0.2165   -0.3864 H   0  0  0  0  0  0  0  0  0  0  0  0
   -5.2020   -0.4122   -1.5657 H   0  0  0  0  0  0  0  0  0  0  0  0
   -5.3903    2.4276   -4.2856 H   0  0  0  0  0  0  0  0  0  0  0  0
   -4.6045    0.8863   -3.8186 H   0  0  0  0  0  0  0  0  0  0  0  0
   -4.5818    3.5537   -2.2050 H   0  0  0  0  0  0  0  0  0  0  0  0
   -3.2600    2.9149   -3.2522 H   0  0  0  0  0  0  0  0  0  0  0  0
   -1.5450    1.8687    1.9057 H   0  0  0  0  0  0  0  0  0  0  0  0
    1.3916   -1.7410    1.4445 H   0  0  0  0  0  0  0  0  0  0  0  0
    2.2854   -2.5930    3.5659 H   0  0  0  0  0  0  0  0  0  0  0  0
    0.7615   -2.3842    7.8580 H   0  0  0  0  0  0  0  0  0  0  0  0
    0.1962   -2.6584    6.1771 H   0  0  0  0  0  0  0  0  0  0  0  0
    0.0509   -1.0060    6.9616 H   0  0  0  0  0  0  0  0  0  0  0  0
    1.0570    1.0103    5.5587 H   0  0  0  0  0  0  0  0  0  0  0  0
    0.1555    1.8816    3.4588 H   0  0  0  0  0  0  0  0  0  0  0  0
  1 30  1  0  0  0  0
  1 31  1  0  0  0  0
  1 32  1  0  0  0  0
  2  1  1  0  0  0  0
  2 33  1  0  0  0  0
  2 34  1  0  0  0  0
  3  2  1  0  0  0  0
  4  3  2  0  0  0  0
  4 35  1  0  0  0  0
  5  4  1  0  0  0  0
  5 36  1  0  0  0  0
  6  5  2  0  0  0  0
  7  6  1  0  0  0  0
  7 37  1  0  0  0  0
  8  7  2  0  0  0  0
  8  3  1  0  0  0  0
  8 38  1  0  0  0  0
  9  6  1  0  0  0  0
 10  9  1  0  0  0  0
 11 10  1  0  0  0  0
 11 39  1  0  0  0  0
 11 40  1  0  0  0  0
 11 41  1  0  0  0  0
 12 10  2  0  0  0  0
 13 12  1  0  0  0  0
 13 42  1  0  0  0  0
 13 43  1  0  0  0  0
 14 13  1  0  0  0  0
 14 44  1  0  0  0  0
 15 14  1  0  0  0  0
 15 45  1  0  0  0  0
 15 46  1  0  0  0  0
 16 15  1  0  0  0  0
 16 47  1  0  0  0  0
 16 48  1  0  0  0  0
 17 16  1  0  0  0  0
 18 17  1  0  0  0  0
 18 49  1  0  0  0  0
 18 50  1  0  0  0  0
 19 18  1  0  0  0  0
 19 14  1  0  0  0  0
 19 51  1  0  0  0  0
 19 52  1  0  0  0  0
 20 12  1  0  0  0  0
 20 53  1  0  0  0  0
 21 20  2  0  0  0  0
 21  9  1  0  0  0  0
 22 21  1  0  0  0  0
 23 22  2  0  0  0  0
 23 54  1  0  0  0  0
 24 23  1  0  0  0  0
 24 55  1  0  0  0  0
 25 24  2  0  0  0  0
 26 25  1  0  0  0  0
 27 26  1  0  0  0  0
 27 56  1  0  0  0  0
 27 57  1  0  0  0  0
 27 58  1  0  0  0  0
 28 25  1  0  0  0  0
 28 59  1  0  0  0  0
 29 28  2  0  0  0  0
 29 22  1  0  0  0  0
 29 60  1  0  0  0  0
M  CHG  1  14   1
M  END
>  <MOL Chiral Flag>
0

>  <energy>
135.05009825729724

$$$$
> 477_AKC_cmdc.201300129
>461.sdf
 OpenBabel10062214103D

108112  0  0  0  0  0  0  0  0999 V2000
   -4.8054    3.5607   -0.4019 C   0  0  0  0  0  0  0  0  0  0  0  0
   -4.7387    2.1543    0.1834 C   0  0  0  0  0  0  0  0  0  0  0  0
   -5.8907    1.1819   -0.2237 C   0  0  2  0  0  0  0  0  0  0  0  0
   -5.7655   -0.1211    0.5930 C   0  0  0  0  0  0  0  0  0  0  0  0
   -6.1805    0.8435   -1.7393 C   0  0  1  0  0  0  0  0  0  0  0  0
   -6.6723    2.0138   -2.4847 N   0  3  0  0  0  0  0  0  0  0  0  0
   -5.1549    0.0946   -2.5994 C   0  0  0  0  0  0  0  0  0  0  0  0
   -5.5366   -0.3165   -3.6861 O   0  0  0  0  0  0  0  0  0  0  0  0
   -3.8683   -0.1463   -2.2047 N   0  0  0  0  0  0  0  0  0  0  0  0
   -2.9127   -0.8841   -3.0392 C   0  0  1  0  0  0  0  0  0  0  0  0
   -2.2383    0.0070   -4.1390 C   0  0  1  0  0  0  0  0  0  0  0  0
   -3.2405    0.5284   -5.1820 C   0  0  0  0  0  0  0  0  0  0  0  0
   -1.4153    1.1614   -3.5081 C   0  0  0  0  0  0  0  0  0  0  0  0
   -0.5682    1.9302   -4.5249 C   0  0  0  0  0  0  0  0  0  0  0  0
   -1.8338   -1.5497   -2.1967 C   0  0  0  0  0  0  0  0  0  0  0  0
   -0.9969   -2.2375   -2.7623 O   0  0  0  0  0  0  0  0  0  0  0  0
   -1.7820   -1.3446   -0.8443 O   0  0  0  0  0  0  0  0  0  0  0  0
   -1.1229   -2.0377    0.1807 C   0  0  1  0  0  0  0  0  0  0  0  0
   -1.8350   -3.3114    0.5090 C   0  0  0  0  0  0  0  0  0  0  0  0
   -1.2116   -4.2548   -0.4965 C   0  0  1  0  0  0  0  0  0  0  0  0
    0.1862   -3.9681   -0.4492 O   0  0  0  0  0  0  0  0  0  0  0  0
    0.2896   -2.5557   -0.1820 C   0  0  2  0  0  0  0  0  0  0  0  0
    1.3528   -2.2503    0.9099 C   0  0  0  0  0  0  0  0  0  0  0  0
    2.6016   -2.1567    0.3120 O   0  0  0  0  0  0  0  0  0  0  0  0
    3.7792   -1.8576    0.9367 C   0  0  0  0  0  0  0  0  0  0  0  0
    3.9524   -2.1640    2.1069 O   0  0  0  0  0  0  0  0  0  0  0  0
    4.9427   -1.4078    0.0725 C   0  0  0  0  0  0  0  0  0  0  0  0
    6.0219   -0.3525    0.5687 C   0  0  0  0  0  0  0  0  0  0  0  0
    7.0928   -0.1052   -0.5430 C   0  0  0  0  0  0  0  0  0  0  0  0
    7.0312   -0.6893   -1.8350 C   0  0  0  0  0  0  0  0  0  0  0  0
    8.0293   -0.4358   -2.7812 C   0  0  0  0  0  0  0  0  0  0  0  0
    9.1052    0.3932   -2.4690 C   0  0  0  0  0  0  0  0  0  0  0  0
    9.1919    0.9750   -1.2068 C   0  0  0  0  0  0  0  0  0  0  0  0
    8.2023    0.7311   -0.2521 C   0  0  0  0  0  0  0  0  0  0  0  0
    6.8626   -0.9294    1.7429 C   0  0  0  0  0  0  0  0  0  0  0  0
    7.0802   -0.2224    2.9544 C   0  0  0  0  0  0  0  0  0  0  0  0
    7.9117   -0.7463    3.9487 C   0  0  0  0  0  0  0  0  0  0  0  0
    8.5452   -1.9729    3.7625 C   0  0  0  0  0  0  0  0  0  0  0  0
    8.3542   -2.6814    2.5786 C   0  0  0  0  0  0  0  0  0  0  0  0
    7.5281   -2.1676    1.5760 C   0  0  0  0  0  0  0  0  0  0  0  0
    5.3036    0.9908    0.9325 C   0  0  0  0  0  0  0  0  0  0  0  0
    4.4161    1.0525    2.0344 C   0  0  0  0  0  0  0  0  0  0  0  0
    3.8040    2.2541    2.4039 C   0  0  0  0  0  0  0  0  0  0  0  0
    4.0474    3.4186    1.6804 C   0  0  0  0  0  0  0  0  0  0  0  0
    4.8967    3.3856    0.5785 C   0  0  0  0  0  0  0  0  0  0  0  0
    5.5173    2.1914    0.2004 C   0  0  0  0  0  0  0  0  0  0  0  0
   -1.6070   -5.6547   -0.2064 N   0  0  0  0  0  0  0  0  0  0  0  0
   -0.7095   -6.5881    0.2372 C   0  0  0  0  0  0  0  0  0  0  0  0
   -1.1234   -7.9070    0.5015 C   0  0  0  0  0  0  0  0  0  0  0  0
   -0.1529   -8.9383    1.0060 C   0  0  0  0  0  0  0  0  0  0  0  0
   -2.4640   -8.2502    0.2900 C   0  0  0  0  0  0  0  0  0  0  0  0
   -2.8553   -9.3858    0.5057 O   0  0  0  0  0  0  0  0  0  0  0  0
   -3.3424   -7.3079   -0.1634 N   0  0  0  0  0  0  0  0  0  0  0  0
   -2.9315   -6.0259   -0.4096 C   0  0  0  0  0  0  0  0  0  0  0  0
   -3.7448   -5.2141   -0.8257 O   0  0  0  0  0  0  0  0  0  0  0  0
   -4.0365    4.1923    0.0918 H   0  0  0  0  0  0  0  0  0  0  0  0
   -5.8026    4.0155   -0.2247 H   0  0  0  0  0  0  0  0  0  0  0  0
   -4.5532    3.5612   -1.4756 H   0  0  0  0  0  0  0  0  0  0  0  0
   -4.8118    2.2817    1.2868 H   0  0  0  0  0  0  0  0  0  0  0  0
   -3.7289    1.7547   -0.0055 H   0  0  0  0  0  0  0  0  0  0  0  0
   -6.8236    1.6626    0.1503 H   0  0  0  0  0  0  0  0  0  0  0  0
   -4.8625   -0.7020    0.3239 H   0  0  0  0  0  0  0  0  0  0  0  0
   -6.6555   -0.7671    0.4323 H   0  0  0  0  0  0  0  0  0  0  0  0
   -5.7205    0.1059    1.6798 H   0  0  0  0  0  0  0  0  0  0  0  0
   -7.0471    0.1443   -1.6756 H   0  0  0  0  0  0  0  0  0  0  0  0
   -5.8936    2.6352   -2.7836 H   0  0  0  0  0  0  0  0  0  0  0  0
   -7.3725    2.5505   -1.9234 H   0  0  0  0  0  0  0  0  0  0  0  0
   -7.1529    1.6964   -3.3584 H   0  0  0  0  0  0  0  0  0  0  0  0
   -3.5730    0.1401   -1.2733 H   0  0  0  0  0  0  0  0  0  0  0  0
   -3.4447   -1.7349   -3.5217 H   0  0  0  0  0  0  0  0  0  0  0  0
   -1.5373   -0.6551   -4.6959 H   0  0  0  0  0  0  0  0  0  0  0  0
   -3.9322    1.2733   -4.7383 H   0  0  0  0  0  0  0  0  0  0  0  0
   -3.8154   -0.3182   -5.6135 H   0  0  0  0  0  0  0  0  0  0  0  0
   -2.7178    1.0146   -6.0293 H   0  0  0  0  0  0  0  0  0  0  0  0
   -0.7045    0.7414   -2.7650 H   0  0  0  0  0  0  0  0  0  0  0  0
   -2.0907    1.8671   -2.9775 H   0  0  0  0  0  0  0  0  0  0  0  0
    0.1235    1.2358   -5.0488 H   0  0  0  0  0  0  0  0  0  0  0  0
    0.0362    2.6971   -3.9970 H   0  0  0  0  0  0  0  0  0  0  0  0
   -1.1986    2.4545   -5.2702 H   0  0  0  0  0  0  0  0  0  0  0  0
   -1.1463   -1.3593    1.0604 H   0  0  0  0  0  0  0  0  0  0  0  0
   -2.9422   -3.2243    0.5059 H   0  0  0  0  0  0  0  0  0  0  0  0
   -1.5058   -3.6527    1.5172 H   0  0  0  0  0  0  0  0  0  0  0  0
   -1.5520   -4.0640   -1.5273 H   0  0  0  0  0  0  0  0  0  0  0  0
    0.6324   -1.9852   -1.0694 H   0  0  0  0  0  0  0  0  0  0  0  0
    1.3189   -2.9958    1.7339 H   0  0  0  0  0  0  0  0  0  0  0  0
    1.1481   -1.2432    1.3341 H   0  0  0  0  0  0  0  0  0  0  0  0
    4.4686   -0.9985   -0.8462 H   0  0  0  0  0  0  0  0  0  0  0  0
    5.4498   -2.3431   -0.2351 H   0  0  0  0  0  0  0  0  0  0  0  0
    6.2258   -1.3396   -2.1332 H   0  0  0  0  0  0  0  0  0  0  0  0
    7.9671   -0.8872   -3.7630 H   0  0  0  0  0  0  0  0  0  0  0  0
    9.8739    0.5837   -3.2069 H   0  0  0  0  0  0  0  0  0  0  0  0
   10.0291    1.6176   -0.9655 H   0  0  0  0  0  0  0  0  0  0  0  0
    8.2950    1.1970    0.7210 H   0  0  0  0  0  0  0  0  0  0  0  0
    6.6472    0.7471    3.1354 H   0  0  0  0  0  0  0  0  0  0  0  0
    8.0777   -0.1890    4.8620 H   0  0  0  0  0  0  0  0  0  0  0  0
    9.1961   -2.3685    4.5316 H   0  0  0  0  0  0  0  0  0  0  0  0
    8.8591   -3.6270    2.4294 H   0  0  0  0  0  0  0  0  0  0  0  0
    7.4258   -2.7308    0.6598 H   0  0  0  0  0  0  0  0  0  0  0  0
    4.2225    0.1815    2.6362 H   0  0  0  0  0  0  0  0  0  0  0  0
    3.1464    2.2833    3.2631 H   0  0  0  0  0  0  0  0  0  0  0  0
    3.5776    4.3488    1.9743 H   0  0  0  0  0  0  0  0  0  0  0  0
    5.0820    4.2917    0.0151 H   0  0  0  0  0  0  0  0  0  0  0  0
    6.1621    2.2270   -0.6631 H   0  0  0  0  0  0  0  0  0  0  0  0
    0.3252   -6.3149    0.3979 H   0  0  0  0  0  0  0  0  0  0  0  0
    0.8665   -8.5194    1.1283 H   0  0  0  0  0  0  0  0  0  0  0  0
   -0.1058   -9.7871    0.2907 H   0  0  0  0  0  0  0  0  0  0  0  0
   -0.4988   -9.3194    1.9911 H   0  0  0  0  0  0  0  0  0  0  0  0
   -4.3425   -7.5700   -0.3263 H   0  0  0  0  0  0  0  0  0  0  0  0
  1 56  1  0  0  0  0
  1 57  1  0  0  0  0
  1 58  1  0  0  0  0
  2  1  1  0  0  0  0
  2 59  1  0  0  0  0
  2 60  1  0  0  0  0
  3  2  1  0  0  0  0
  3 61  1  1  0  0  0
  4  3  1  0  0  0  0
  4 62  1  0  0  0  0
  4 63  1  0  0  0  0
  4 64  1  0  0  0  0
  5  3  1  0  0  0  0
  5 65  1  1  0  0  0
  6  5  1  0  0  0  0
  6 66  1  0  0  0  0
  6 67  1  0  0  0  0
  6 68  1  0  0  0  0
  7  5  1  0  0  0  0
  8  7  2  0  0  0  0
  9  7  1  0  0  0  0
  9 69  1  0  0  0  0
 10  9  1  0  0  0  0
 10 70  1  6  0  0  0
 11 10  1  0  0  0  0
 11 71  1  6  0  0  0
 12 11  1  0  0  0  0
 12 72  1  0  0  0  0
 12 73  1  0  0  0  0
 12 74  1  0  0  0  0
 13 11  1  0  0  0  0
 13 75  1  0  0  0  0
 13 76  1  0  0  0  0
 14 13  1  0  0  0  0
 14 77  1  0  0  0  0
 14 78  1  0  0  0  0
 14 79  1  0  0  0  0
 15 10  1  0  0  0  0
 16 15  2  0  0  0  0
 17 15  1  0  0  0  0
 18 17  1  0  0  0  0
 18 80  1  1  0  0  0
 19 18  1  0  0  0  0
 19 81  1  0  0  0  0
 19 82  1  0  0  0  0
 20 19  1  0  0  0  0
 20 83  1  6  0  0  0
 21 20  1  0  0  0  0
 22 21  1  0  0  0  0
 22 18  1  0  0  0  0
 22 84  1  6  0  0  0
 23 22  1  0  0  0  0
 23 85  1  0  0  0  0
 23 86  1  0  0  0  0
 24 23  1  0  0  0  0
 25 24  1  0  0  0  0
 26 25  2  0  0  0  0
 27 25  1  0  0  0  0
 27 87  1  0  0  0  0
 27 88  1  0  0  0  0
 28 27  1  0  0  0  0
 29 28  1  0  0  0  0
 30 29  2  0  0  0  0
 30 89  1  0  0  0  0
 31 30  1  0  0  0  0
 31 90  1  0  0  0  0
 32 31  2  0  0  0  0
 32 91  1  0  0  0  0
 33 32  1  0  0  0  0
 33 92  1  0  0  0  0
 34 33  2  0  0  0  0
 34 29  1  0  0  0  0
 34 93  1  0  0  0  0
 35 28  1  0  0  0  0
 36 35  2  0  0  0  0
 36 94  1  0  0  0  0
 37 36  1  0  0  0  0
 37 95  1  0  0  0  0
 38 37  2  0  0  0  0
 38 96  1  0  0  0  0
 39 38  1  0  0  0  0
 39 97  1  0  0  0  0
 40 39  2  0  0  0  0
 40 35  1  0  0  0  0
 40 98  1  0  0  0  0
 41 28  1  0  0  0  0
 42 41  2  0  0  0  0
 42 99  1  0  0  0  0
 43 42  1  0  0  0  0
 43100  1  0  0  0  0
 44 43  2  0  0  0  0
 44101  1  0  0  0  0
 45 44  1  0  0  0  0
 45102  1  0  0  0  0
 46 45  2  0  0  0  0
 46 41  1  0  0  0  0
 46103  1  0  0  0  0
 47 20  1  0  0  0  0
 48 47  1  0  0  0  0
 48104  1  0  0  0  0
 49 48  2  0  0  0  0
 50 49  1  0  0  0  0
 50105  1  0  0  0  0
 50106  1  0  0  0  0
 50107  1  0  0  0  0
 51 49  1  0  0  0  0
 52 51  2  0  0  0  0
 53 51  1  0  0  0  0
 53108  1  0  0  0  0
 54 53  1  0  0  0  0
 54 47  1  0  0  0  0
 55 54  2  0  0  0  0
M  CHG  1   6   1
M  END
>  <MOL Chiral Flag>
0

>  <energy>
99.717089476224075

$$$$
> 478_AKC_s00044-012-0355-9
>462.sdf
 OpenBabel10062214113D

 46 48  0  0  0  0  0  0  0  0999 V2000
    2.6722   -2.7247    0.7991 O   0  0  0  0  0  0  0  0  0  0  0  0
    1.9391   -1.9342    0.2217 C   0  0  0  0  0  0  0  0  0  0  0  0
    0.5202   -1.8274    0.7047 C   0  0  0  0  0  0  0  0  0  0  0  0
   -0.3357   -0.8520    0.0342 N   0  0  0  0  0  0  0  0  0  0  0  0
   -1.6885   -0.6505    0.6324 C   0  0  0  0  0  0  0  0  0  0  0  0
   -2.5463   -1.9435    0.5808 C   0  0  0  0  0  0  0  0  0  0  0  0
   -3.8637   -1.7616    1.3548 C   0  0  0  0  0  0  0  0  0  0  0  0
   -4.6722   -0.5879    0.7973 C   0  0  0  0  0  0  0  0  0  0  0  0
   -3.8429    0.6963    0.8629 C   0  0  0  0  0  0  0  0  0  0  0  0
   -2.5386    0.5273    0.0738 C   0  0  0  0  0  0  0  0  0  0  0  0
    0.1468   -0.1313   -1.0394 C   0  0  0  0  0  0  0  0  0  0  0  0
   -0.5608    0.6592   -1.6381 O   0  0  0  0  0  0  0  0  0  0  0  0
    1.5666   -0.2499   -1.5265 C   0  0  0  0  0  0  0  0  0  0  0  0
    2.4272   -1.1724   -0.8023 N   0  0  0  0  0  0  0  0  0  0  0  0
    3.8517   -1.2959   -1.1744 C   0  0  0  0  0  0  0  0  0  0  0  0
    4.0791   -2.5347   -2.0675 C   0  0  0  0  0  0  0  0  0  0  0  0
    5.5736   -2.7009   -2.3909 C   0  0  0  0  0  0  0  0  0  0  0  0
    6.1320   -1.4410   -3.0671 C   0  0  0  0  0  0  0  0  0  0  0  0
    5.9192   -0.2175   -2.1690 C   0  0  0  0  0  0  0  0  0  0  0  0
    4.4258   -0.0346   -1.8712 C   0  0  0  0  0  0  0  0  0  0  0  0
    0.0801   -2.8400    0.6113 H   0  0  0  0  0  0  0  0  0  0  0  0
    0.5783   -1.5598    1.7824 H   0  0  0  0  0  0  0  0  0  0  0  0
   -1.5159   -0.4013    1.7044 H   0  0  0  0  0  0  0  0  0  0  0  0
   -2.0242   -2.7969    1.0548 H   0  0  0  0  0  0  0  0  0  0  0  0
   -2.7604   -2.2062   -0.4783 H   0  0  0  0  0  0  0  0  0  0  0  0
   -3.6347   -1.5704    2.4273 H   0  0  0  0  0  0  0  0  0  0  0  0
   -4.4678   -2.6919    1.2930 H   0  0  0  0  0  0  0  0  0  0  0  0
   -5.6040   -0.4596    1.3892 H   0  0  0  0  0  0  0  0  0  0  0  0
   -4.9542   -0.7980   -0.2577 H   0  0  0  0  0  0  0  0  0  0  0  0
   -4.4293    1.5397    0.4386 H   0  0  0  0  0  0  0  0  0  0  0  0
   -3.6071    0.9377    1.9230 H   0  0  0  0  0  0  0  0  0  0  0  0
   -1.9726    1.4802    0.1612 H   0  0  0  0  0  0  0  0  0  0  0  0
   -2.8098    0.3405   -0.9891 H   0  0  0  0  0  0  0  0  0  0  0  0
    1.5414   -0.5550   -2.5960 H   0  0  0  0  0  0  0  0  0  0  0  0
    1.9862    0.7747   -1.4535 H   0  0  0  0  0  0  0  0  0  0  0  0
    4.4497   -1.4014   -0.2396 H   0  0  0  0  0  0  0  0  0  0  0  0
    3.5060   -2.4165   -3.0138 H   0  0  0  0  0  0  0  0  0  0  0  0
    3.7195   -3.4534   -1.5577 H   0  0  0  0  0  0  0  0  0  0  0  0
    5.7180   -3.5766   -3.0593 H   0  0  0  0  0  0  0  0  0  0  0  0
    6.1335   -2.8885   -1.4482 H   0  0  0  0  0  0  0  0  0  0  0  0
    5.6175   -1.2797   -4.0398 H   0  0  0  0  0  0  0  0  0  0  0  0
    7.2177   -1.5722   -3.2646 H   0  0  0  0  0  0  0  0  0  0  0  0
    6.4754   -0.3537   -1.2147 H   0  0  0  0  0  0  0  0  0  0  0  0
    6.3138    0.6916   -2.6714 H   0  0  0  0  0  0  0  0  0  0  0  0
    3.8948    0.1601   -2.8286 H   0  0  0  0  0  0  0  0  0  0  0  0
    4.3054    0.8485   -1.2066 H   0  0  0  0  0  0  0  0  0  0  0  0
  2  1  2  0  0  0  0
  3  2  1  0  0  0  0
  3 21  1  0  0  0  0
  3 22  1  0  0  0  0
  4  3  1  0  0  0  0
  5  4  1  0  0  0  0
  5 23  1  0  0  0  0
  6  5  1  0  0  0  0
  6 24  1  0  0  0  0
  6 25  1  0  0  0  0
  7  6  1  0  0  0  0
  7 26  1  0  0  0  0
  7 27  1  0  0  0  0
  8  7  1  0  0  0  0
  8 28  1  0  0  0  0
  8 29  1  0  0  0  0
  9  8  1  0  0  0  0
  9 30  1  0  0  0  0
  9 31  1  0  0  0  0
 10  9  1  0  0  0  0
 10  5  1  0  0  0  0
 10 32  1  0  0  0  0
 10 33  1  0  0  0  0
 11  4  1  0  0  0  0
 12 11  2  0  0  0  0
 13 11  1  0  0  0  0
 13 34  1  0  0  0  0
 13 35  1  0  0  0  0
 14 13  1  0  0  0  0
 14  2  1  0  0  0  0
 15 14  1  0  0  0  0
 15 36  1  0  0  0  0
 16 15  1  0  0  0  0
 16 37  1  0  0  0  0
 16 38  1  0  0  0  0
 17 16  1  0  0  0  0
 17 39  1  0  0  0  0
 17 40  1  0  0  0  0
 18 17  1  0  0  0  0
 18 41  1  0  0  0  0
 18 42  1  0  0  0  0
 19 18  1  0  0  0  0
 19 43  1  0  0  0  0
 19 44  1  0  0  0  0
 20 19  1  0  0  0  0
 20 15  1  0  0  0  0
 20 45  1  0  0  0  0
 20 46  1  0  0  0  0
M  END
>  <MOL Chiral Flag>
0

>  <energy>
87.230372518458594

$$$$
> 479_AKC_s00044-012-0355-9
>463.sdf
 OpenBabel10062214113D

 34 36  0  0  0  0  0  0  0  0999 V2000
   -3.1972    2.0445    1.5864 Cl  0  0  0  0  0  0  0  0  0  0  0  0
   -3.9360    0.6524    0.7910 C   0  0  0  0  0  0  0  0  0  0  0  0
   -5.3341    0.5952    0.7676 C   0  0  0  0  0  0  0  0  0  0  0  0
   -5.9897   -0.4371    0.0999 C   0  0  0  0  0  0  0  0  0  0  0  0
   -5.2545   -1.4111   -0.5727 C   0  0  0  0  0  0  0  0  0  0  0  0
   -3.8582   -1.3694   -0.5662 C   0  0  0  0  0  0  0  0  0  0  0  0
   -3.1711   -0.3554    0.1331 C   0  0  0  0  0  0  0  0  0  0  0  0
   -1.7295   -0.3617    0.1722 N   0  0  0  0  0  0  0  0  0  0  0  0
   -0.9972   -0.5441   -1.0754 C   0  0  0  0  0  0  0  0  0  0  0  0
    0.5035   -0.4541   -0.9717 C   0  0  0  0  0  0  0  0  0  0  0  0
    1.1421   -0.5442   -2.0129 O   0  0  0  0  0  0  0  0  0  0  0  0
    1.1591   -0.3083    0.2253 N   0  0  0  0  0  0  0  0  0  0  0  0
    0.4184   -0.2434    1.4792 C   0  0  0  0  0  0  0  0  0  0  0  0
   -1.0746   -0.2478    1.3675 C   0  0  0  0  0  0  0  0  0  0  0  0
   -1.7103   -0.2005    2.4129 O   0  0  0  0  0  0  0  0  0  0  0  0
    2.5908   -0.0869    0.2545 C   0  0  0  0  0  0  0  0  0  0  0  0
    3.4677   -0.7239    1.1875 C   0  0  0  0  0  0  0  0  0  0  0  0
    2.9628   -1.9626    2.3304 Cl  0  0  0  0  0  0  0  0  0  0  0  0
    4.8339   -0.4097    1.1858 C   0  0  0  0  0  0  0  0  0  0  0  0
    5.3514    0.5233    0.2914 C   0  0  0  0  0  0  0  0  0  0  0  0
    4.5130    1.1487   -0.6240 C   0  0  0  0  0  0  0  0  0  0  0  0
    3.1517    0.8482   -0.6477 C   0  0  0  0  0  0  0  0  0  0  0  0
   -5.9154    1.3603    1.2672 H   0  0  0  0  0  0  0  0  0  0  0  0
   -7.0713   -0.4757    0.0957 H   0  0  0  0  0  0  0  0  0  0  0  0
   -5.7683   -2.2073   -1.0953 H   0  0  0  0  0  0  0  0  0  0  0  0
   -3.3178   -2.1502   -1.0813 H   0  0  0  0  0  0  0  0  0  0  0  0
   -1.2443   -1.5261   -1.5280 H   0  0  0  0  0  0  0  0  0  0  0  0
   -1.3157    0.2571   -1.7776 H   0  0  0  0  0  0  0  0  0  0  0  0
    0.6593   -1.0980    2.1249 H   0  0  0  0  0  0  0  0  0  0  0  0
    0.6954    0.6999    1.9979 H   0  0  0  0  0  0  0  0  0  0  0  0
    5.5016   -0.8967    1.8858 H   0  0  0  0  0  0  0  0  0  0  0  0
    6.4072    0.7607    0.3080 H   0  0  0  0  0  0  0  0  0  0  0  0
    4.9165    1.8781   -1.3143 H   0  0  0  0  0  0  0  0  0  0  0  0
    2.5237    1.3740   -1.3546 H   0  0  0  0  0  0  0  0  0  0  0  0
  2  1  1  0  0  0  0
  3  2  2  0  0  0  0
  3 23  1  0  0  0  0
  4  3  1  0  0  0  0
  4 24  1  0  0  0  0
  5  4  2  0  0  0  0
  5 25  1  0  0  0  0
  6  5  1  0  0  0  0
  6 26  1  0  0  0  0
  7  6  2  0  0  0  0
  7  2  1  0  0  0  0
  8  7  1  0  0  0  0
  9  8  1  0  0  0  0
  9 27  1  0  0  0  0
  9 28  1  0  0  0  0
 10  9  1  0  0  0  0
 11 10  2  0  0  0  0
 12 10  1  0  0  0  0
 13 12  1  0  0  0  0
 13 29  1  0  0  0  0
 13 30  1  0  0  0  0
 14 13  1  0  0  0  0
 14  8  1  0  0  0  0
 15 14  2  0  0  0  0
 16 12  1  0  0  0  0
 17 16  2  0  0  0  0
 18 17  1  0  0  0  0
 19 17  1  0  0  0  0
 19 31  1  0  0  0  0
 20 19  2  0  0  0  0
 20 32  1  0  0  0  0
 21 20  1  0  0  0  0
 21 33  1  0  0  0  0
 22 21  2  0  0  0  0
 22 16  1  0  0  0  0
 22 34  1  0  0  0  0
M  END
>  <MOL Chiral Flag>
0

>  <energy>
135.48174778554545

$$$$
> 480_AKC_jm400053v
>464.sdf
 OpenBabel10062214133D

 71 76  0  0  0  0  0  0  0  0999 V2000
    7.4419    1.4178    0.2825 C   0  0  0  0  0  0  0  0  0  0  0  0
    6.4419    0.5493   -0.5019 C   0  0  2  0  0  0  0  0  0  0  0  0
    6.6432   -0.8368   -0.0627 N   0  0  0  0  0  0  0  0  0  0  0  0
    7.0110   -1.8541   -0.8851 C   0  0  0  0  0  0  0  0  0  0  0  0
    7.1595   -2.9766   -0.4238 O   0  0  0  0  0  0  0  0  0  0  0  0
    7.2348   -1.6145   -2.3174 C   0  0  0  0  0  0  0  0  0  0  0  0
    7.6120   -2.6532   -3.1891 C   0  0  0  0  0  0  0  0  0  0  0  0
    7.8189   -2.3890   -4.5460 C   0  0  0  0  0  0  0  0  0  0  0  0
    7.6513   -1.0933   -5.0386 C   0  0  0  0  0  0  0  0  0  0  0  0
    7.2794   -0.0601   -4.1742 C   0  0  0  0  0  0  0  0  0  0  0  0
    7.0711   -0.3200   -2.8092 C   0  0  0  0  0  0  0  0  0  0  0  0
    6.7001    0.7331   -1.9331 N   0  0  0  0  0  0  0  0  0  0  0  0
    5.0008    1.0099   -0.2164 C   0  0  0  0  0  0  0  0  0  0  0  0
    4.0155    0.1418    0.3068 C   0  0  0  0  0  0  0  0  0  0  0  0
    2.7008    0.5854    0.5145 C   0  0  0  0  0  0  0  0  0  0  0  0
    2.3369    1.9138    0.2063 C   0  0  0  0  0  0  0  0  0  0  0  0
    1.0026    2.4321    0.3196 N   0  0  0  0  0  0  0  0  0  0  0  0
   -0.1808    1.7529    0.7399 C   0  0  0  0  0  0  0  0  0  0  0  0
   -0.1496    0.5854    1.4358 N   0  0  0  0  0  0  0  0  0  0  0  0
   -1.3115   -0.0328    1.8005 C   0  0  0  0  0  0  0  0  0  0  0  0
   -2.5003    0.5257    1.4439 N   0  0  0  0  0  0  0  0  0  0  0  0
   -2.5421    1.6885    0.7462 C   0  0  0  0  0  0  0  0  0  0  0  0
   -1.3784    2.2971    0.4118 N   0  0  0  0  0  0  0  0  0  0  0  0
   -3.7922    2.2320    0.3037 N   0  0  0  0  0  0  0  0  0  0  0  0
   -3.8452    3.4314   -0.5257 C   0  0  0  0  0  0  0  0  0  0  0  0
   -4.7287    4.4784    0.1597 C   0  0  0  0  0  0  0  0  0  0  0  0
   -6.1115    3.8776    0.4560 C   0  0  0  0  0  0  0  0  0  0  0  0
   -5.9639    2.6253    1.3361 C   0  0  0  0  0  0  0  0  0  0  0  0
   -5.0619    1.5986    0.6393 C   0  0  0  0  0  0  0  0  0  0  0  0
   -1.2891   -1.2731    2.5236 N   0  0  0  0  0  0  0  0  0  0  0  0
   -2.5212   -2.0640    2.5508 C   0  0  0  0  0  0  0  0  0  0  0  0
   -2.5200   -3.0626    3.7127 C   0  0  0  0  0  0  0  0  0  0  0  0
   -1.2552   -3.9193    3.6702 C   0  0  0  0  0  0  0  0  0  0  0  0
   -0.0375   -2.9996    3.7753 C   0  0  0  0  0  0  0  0  0  0  0  0
   -0.0224   -1.9974    2.6133 C   0  0  0  0  0  0  0  0  0  0  0  0
    3.3246    2.7733   -0.2999 C   0  0  0  0  0  0  0  0  0  0  0  0
    4.6285    2.3339   -0.5091 C   0  0  0  0  0  0  0  0  0  0  0  0
    7.3751    2.4876   -0.0047 H   0  0  0  0  0  0  0  0  0  0  0  0
    8.4794    1.0793    0.0722 H   0  0  0  0  0  0  0  0  0  0  0  0
    7.2574    1.3346    1.3749 H   0  0  0  0  0  0  0  0  0  0  0  0
    6.5105   -1.0489    0.9394 H   0  0  0  0  0  0  0  0  0  0  0  0
    7.7464   -3.6624   -2.8206 H   0  0  0  0  0  0  0  0  0  0  0  0
    8.1093   -3.1886   -5.2154 H   0  0  0  0  0  0  0  0  0  0  0  0
    7.8110   -0.8889   -6.0896 H   0  0  0  0  0  0  0  0  0  0  0  0
    7.1533    0.9418   -4.5653 H   0  0  0  0  0  0  0  0  0  0  0  0
    6.6107    1.6813   -2.3297 H   0  0  0  0  0  0  0  0  0  0  0  0
    4.2449   -0.8884    0.5391 H   0  0  0  0  0  0  0  0  0  0  0  0
    1.9949   -0.1302    0.8892 H   0  0  0  0  0  0  0  0  0  0  0  0
    0.8522    3.3830   -0.0520 H   0  0  0  0  0  0  0  0  0  0  0  0
   -4.2907    3.1675   -1.5099 H   0  0  0  0  0  0  0  0  0  0  0  0
   -2.8431    3.8674   -0.7200 H   0  0  0  0  0  0  0  0  0  0  0  0
   -4.8321    5.3713   -0.4938 H   0  0  0  0  0  0  0  0  0  0  0  0
   -4.2514    4.7935    1.1135 H   0  0  0  0  0  0  0  0  0  0  0  0
   -6.7450    4.6297    0.9724 H   0  0  0  0  0  0  0  0  0  0  0  0
   -6.6085    3.6027   -0.5011 H   0  0  0  0  0  0  0  0  0  0  0  0
   -5.5075    2.9136    2.3084 H   0  0  0  0  0  0  0  0  0  0  0  0
   -6.9622    2.1796    1.5339 H   0  0  0  0  0  0  0  0  0  0  0  0
   -4.9393    0.7100    1.2932 H   0  0  0  0  0  0  0  0  0  0  0  0
   -5.5537    1.2619   -0.2996 H   0  0  0  0  0  0  0  0  0  0  0  0
   -2.6094   -2.6167    1.5898 H   0  0  0  0  0  0  0  0  0  0  0  0
   -3.4189   -1.4189    2.6678 H   0  0  0  0  0  0  0  0  0  0  0  0
   -2.5522   -2.5078    4.6765 H   0  0  0  0  0  0  0  0  0  0  0  0
   -3.4240   -3.7066    3.6532 H   0  0  0  0  0  0  0  0  0  0  0  0
   -1.2173   -4.5013    2.7225 H   0  0  0  0  0  0  0  0  0  0  0  0
   -1.2605   -4.6341    4.5209 H   0  0  0  0  0  0  0  0  0  0  0  0
   -0.0860   -2.4461    4.7393 H   0  0  0  0  0  0  0  0  0  0  0  0
    0.8981   -3.5989    3.7662 H   0  0  0  0  0  0  0  0  0  0  0  0
    0.8293   -1.3036    2.7805 H   0  0  0  0  0  0  0  0  0  0  0  0
    0.1451   -2.5415    1.6582 H   0  0  0  0  0  0  0  0  0  0  0  0
    3.0743    3.7959   -0.5543 H   0  0  0  0  0  0  0  0  0  0  0  0
    5.3457    3.0331   -0.9168 H   0  0  0  0  0  0  0  0  0  0  0  0
  1 38  1  0  0  0  0
  1 39  1  0  0  0  0
  1 40  1  0  0  0  0
  2  1  1  1  0  0  0
  3  2  1  0  0  0  0
  3 41  1  0  0  0  0
  4  3  1  0  0  0  0
  5  4  2  0  0  0  0
  6  4  1  0  0  0  0
  7  6  2  0  0  0  0
  7 42  1  0  0  0  0
  8  7  1  0  0  0  0
  8 43  1  0  0  0  0
  9  8  2  0  0  0  0
  9 44  1  0  0  0  0
 10  9  1  0  0  0  0
 10 45  1  0  0  0  0
 11 10  2  0  0  0  0
 11  6  1  0  0  0  0
 12 11  1  0  0  0  0
 12  2  1  0  0  0  0
 12 46  1  0  0  0  0
 13  2  1  0  0  0  0
 14 13  2  0  0  0  0
 14 47  1  0  0  0  0
 15 14  1  0  0  0  0
 15 48  1  0  0  0  0
 16 15  2  0  0  0  0
 17 16  1  0  0  0  0
 17 49  1  0  0  0  0
 18 17  1  0  0  0  0
 19 18  2  0  0  0  0
 20 19  1  0  0  0  0
 21 20  2  0  0  0  0
 22 21  1  0  0  0  0
 23 22  2  0  0  0  0
 23 18  1  0  0  0  0
 24 22  1  0  0  0  0
 25 24  1  0  0  0  0
 25 50  1  0  0  0  0
 25 51  1  0  0  0  0
 26 25  1  0  0  0  0
 26 52  1  0  0  0  0
 26 53  1  0  0  0  0
 27 26  1  0  0  0  0
 27 54  1  0  0  0  0
 27 55  1  0  0  0  0
 28 27  1  0  0  0  0
 28 56  1  0  0  0  0
 28 57  1  0  0  0  0
 29 28  1  0  0  0  0
 29 24  1  0  0  0  0
 29 58  1  0  0  0  0
 29 59  1  0  0  0  0
 30 20  1  0  0  0  0
 31 30  1  0  0  0  0
 31 60  1  0  0  0  0
 31 61  1  0  0  0  0
 32 31  1  0  0  0  0
 32 62  1  0  0  0  0
 32 63  1  0  0  0  0
 33 32  1  0  0  0  0
 33 64  1  0  0  0  0
 33 65  1  0  0  0  0
 34 33  1  0  0  0  0
 34 66  1  0  0  0  0
 34 67  1  0  0  0  0
 35 34  1  0  0  0  0
 35 30  1  0  0  0  0
 35 68  1  0  0  0  0
 35 69  1  0  0  0  0
 36 16  1  0  0  0  0
 36 70  1  0  0  0  0
 37 36  2  0  0  0  0
 37 13  1  0  0  0  0
 37 71  1  0  0  0  0
M  END
>  <MOL Chiral Flag>
0

>  <energy>
-237.50938579718627

$$$$
> 481_AKC_jmm.0.058115-0
>465.sdf
 OpenBabel10062214133D

 43 45  0  0  0  0  0  0  0  0999 V2000
    0.8461    2.4434   -0.0171 O   0  0  0  0  0  0  0  0  0  0  0  0
    0.9959    1.1162    0.4268 C   0  0  2  0  0  0  0  0  0  0  0  0
    1.8465    0.2640   -0.5604 C   0  0  1  0  0  0  0  0  0  0  0  0
    3.2330    0.9276   -0.7620 C   0  0  0  0  0  0  0  0  0  0  0  0
    4.1207    0.0657   -1.6622 C   0  0  0  0  0  0  0  0  0  0  0  0
    4.2548   -1.3321   -1.0600 C   0  0  0  0  0  0  0  0  0  0  0  0
    2.8610   -1.9476   -0.8951 C   0  0  0  0  0  0  0  0  0  0  0  0
    2.0182   -1.1100   -0.0251 N   0  3  0  0  0  0  0  0  0  0  0  0
   -0.3788    0.5136    0.7076 C   0  0  0  0  0  0  0  0  0  0  0  0
   -1.4527    0.5122   -0.2314 C   0  0  0  0  0  0  0  0  0  0  0  0
   -1.3448    1.0892   -1.5151 C   0  0  0  0  0  0  0  0  0  0  0  0
   -2.4328    1.0841   -2.3882 C   0  0  0  0  0  0  0  0  0  0  0  0
   -3.6443    0.5103   -2.0092 C   0  0  0  0  0  0  0  0  0  0  0  0
   -3.7888   -0.0760   -0.7412 C   0  0  0  0  0  0  0  0  0  0  0  0
   -2.6907   -0.0759    0.1479 C   0  0  0  0  0  0  0  0  0  0  0  0
   -2.8241   -0.6385    1.3797 N   0  0  0  0  0  0  0  0  0  0  0  0
   -1.8151   -0.6556    2.2850 C   0  0  0  0  0  0  0  0  0  0  0  0
   -0.5877   -0.0725    1.9682 C   0  0  0  0  0  0  0  0  0  0  0  0
   -2.0169   -1.3088    3.6210 C   0  0  0  0  0  0  0  0  0  0  0  0
   -1.8237   -0.3814    4.6282 F   0  0  0  0  0  0  0  0  0  0  0  0
   -1.1087   -2.3413    3.7722 F   0  0  0  0  0  0  0  0  0  0  0  0
   -3.2976   -1.8230    3.7238 F   0  0  0  0  0  0  0  0  0  0  0  0
   -5.1085   -0.6949   -0.3263 C   0  0  0  0  0  0  0  0  0  0  0  0
   -4.9218   -2.0351   -0.0393 F   0  0  0  0  0  0  0  0  0  0  0  0
   -5.5855   -0.0531    0.8028 F   0  0  0  0  0  0  0  0  0  0  0  0
   -6.0660   -0.5917   -1.3208 F   0  0  0  0  0  0  0  0  0  0  0  0
    1.5793    2.9823    0.3801 H   0  0  0  0  0  0  0  0  0  0  0  0
    1.5681    1.1217    1.3868 H   0  0  0  0  0  0  0  0  0  0  0  0
    1.3418    0.2043   -1.5489 H   0  0  0  0  0  0  0  0  0  0  0  0
    3.7354    1.0459    0.2240 H   0  0  0  0  0  0  0  0  0  0  0  0
    3.1226    1.9335   -1.2210 H   0  0  0  0  0  0  0  0  0  0  0  0
    5.1244    0.5322   -1.7618 H   0  0  0  0  0  0  0  0  0  0  0  0
    3.6666   -0.0080   -2.6748 H   0  0  0  0  0  0  0  0  0  0  0  0
    4.7519   -1.2670   -0.0663 H   0  0  0  0  0  0  0  0  0  0  0  0
    4.8781   -1.9719   -1.7204 H   0  0  0  0  0  0  0  0  0  0  0  0
    2.9643   -2.9610   -0.4479 H   0  0  0  0  0  0  0  0  0  0  0  0
    2.3807   -2.0633   -1.8928 H   0  0  0  0  0  0  0  0  0  0  0  0
    2.4483   -1.0733    0.9297 H   0  0  0  0  0  0  0  0  0  0  0  0
    1.0857   -1.5783    0.0528 H   0  0  0  0  0  0  0  0  0  0  0  0
   -0.4340    1.5536   -1.8556 H   0  0  0  0  0  0  0  0  0  0  0  0
   -2.3375    1.5346   -3.3681 H   0  0  0  0  0  0  0  0  0  0  0  0
   -4.4694    0.5278   -2.7094 H   0  0  0  0  0  0  0  0  0  0  0  0
    0.2108   -0.0934    2.7005 H   0  0  0  0  0  0  0  0  0  0  0  0
  1 27  1  0  0  0  0
  2  1  1  0  0  0  0
  2 28  1  1  0  0  0
  3  2  1  0  0  0  0
  3 29  1  6  0  0  0
  4  3  1  0  0  0  0
  4 30  1  0  0  0  0
  4 31  1  0  0  0  0
  5  4  1  0  0  0  0
  5 32  1  0  0  0  0
  5 33  1  0  0  0  0
  6  5  1  0  0  0  0
  6 34  1  0  0  0  0
  6 35  1  0  0  0  0
  7  6  1  0  0  0  0
  7 36  1  0  0  0  0
  7 37  1  0  0  0  0
  8  7  1  0  0  0  0
  8  3  1  0  0  0  0
  8 38  1  0  0  0  0
  8 39  1  0  0  0  0
  9  2  1  0  0  0  0
 10  9  2  0  0  0  0
 11 10  1  0  0  0  0
 11 40  1  0  0  0  0
 12 11  2  0  0  0  0
 12 41  1  0  0  0  0
 13 12  1  0  0  0  0
 13 42  1  0  0  0  0
 14 13  2  0  0  0  0
 15 14  1  0  0  0  0
 15 10  1  0  0  0  0
 16 15  2  0  0  0  0
 17 16  1  0  0  0  0
 18 17  2  0  0  0  0
 18  9  1  0  0  0  0
 18 43  1  0  0  0  0
 19 17  1  0  0  0  0
 20 19  1  0  0  0  0
 21 19  1  0  0  0  0
 22 19  1  0  0  0  0
 23 14  1  0  0  0  0
 24 23  1  0  0  0  0
 25 23  1  0  0  0  0
 26 23  1  0  0  0  0
M  CHG  1   8   1
M  END
>  <MOL Chiral Flag>
0

>  <energy>
138.89736694067878

$$$$
> 482_AKC_jmm.0.058115-0
>466.sdf
 OpenBabel10062214143D

 49 50  0  0  0  0  0  0  0  0999 V2000
   -1.0185   -6.6012   -3.0066 C   0  0  0  0  0  0  0  0  0  0  0  0
   -2.0248   -5.9533   -2.0404 C   0  0  0  0  0  0  0  0  0  0  0  0
   -1.7304   -4.5191   -1.7645 N   0  3  0  0  0  0  0  0  0  0  0  0
   -2.9082   -3.8495   -1.1438 C   0  0  0  0  0  0  0  0  0  0  0  0
   -4.0788   -3.6330   -2.1149 C   0  0  0  0  0  0  0  0  0  0  0  0
   -0.5506   -4.3888   -0.8599 C   0  0  0  0  0  0  0  0  0  0  0  0
    0.1342   -3.0099   -0.9770 C   0  0  0  0  0  0  0  0  0  0  0  0
    1.3689   -2.9121   -0.0606 C   0  0  0  0  0  0  0  0  0  0  0  0
    2.2401   -1.6618   -0.3409 C   0  0  2  0  0  0  0  0  0  0  0  0
    3.5590   -1.7749    0.4371 C   0  0  0  0  0  0  0  0  0  0  0  0
    1.4679   -0.4120   -0.2178 N   0  0  0  0  0  0  0  0  0  0  0  0
    1.7832    0.8085    0.4973 C   0  0  0  0  0  0  0  0  0  0  0  0
    1.2974    2.0739    0.0206 C   0  0  0  0  0  0  0  0  0  0  0  0
    0.5145    2.2152   -1.1560 C   0  0  0  0  0  0  0  0  0  0  0  0
    0.0796    3.4746   -1.5765 C   0  0  0  0  0  0  0  0  0  0  0  0
    0.4132    4.6167   -0.8524 C   0  0  0  0  0  0  0  0  0  0  0  0
   -0.1354    6.1915   -1.3970 Cl  0  0  0  0  0  0  0  0  0  0  0  0
    1.1870    4.5074    0.3014 C   0  0  0  0  0  0  0  0  0  0  0  0
    1.6288    3.2544    0.7419 C   0  0  0  0  0  0  0  0  0  0  0  0
    2.3828    3.1828    1.8656 N   0  0  0  0  0  0  0  0  0  0  0  0
    2.8372    2.0036    2.3444 C   0  0  0  0  0  0  0  0  0  0  0  0
    2.5483    0.8118    1.6846 C   0  0  0  0  0  0  0  0  0  0  0  0
   -0.9999   -6.0445   -3.9680 H   0  0  0  0  0  0  0  0  0  0  0  0
   -1.3330   -7.6453   -3.2164 H   0  0  0  0  0  0  0  0  0  0  0  0
    0.0090   -6.6462   -2.5996 H   0  0  0  0  0  0  0  0  0  0  0  0
   -2.0778   -6.5350   -1.0930 H   0  0  0  0  0  0  0  0  0  0  0  0
   -2.9995   -6.0637   -2.5521 H   0  0  0  0  0  0  0  0  0  0  0  0
   -1.5197   -4.0475   -2.6767 H   0  0  0  0  0  0  0  0  0  0  0  0
   -2.6366   -2.8330   -0.7950 H   0  0  0  0  0  0  0  0  0  0  0  0
   -3.2599   -4.4202   -0.2546 H   0  0  0  0  0  0  0  0  0  0  0  0
   -4.5259   -4.5804   -2.4706 H   0  0  0  0  0  0  0  0  0  0  0  0
   -3.7464   -3.0336   -2.9885 H   0  0  0  0  0  0  0  0  0  0  0  0
   -4.8841   -3.0741   -1.5927 H   0  0  0  0  0  0  0  0  0  0  0  0
    0.2343   -5.1227   -1.1252 H   0  0  0  0  0  0  0  0  0  0  0  0
   -0.8388   -4.6019    0.1949 H   0  0  0  0  0  0  0  0  0  0  0  0
   -0.5698   -2.1960   -0.7214 H   0  0  0  0  0  0  0  0  0  0  0  0
    0.4596   -2.8841   -2.0329 H   0  0  0  0  0  0  0  0  0  0  0  0
    2.0044   -3.8053   -0.2535 H   0  0  0  0  0  0  0  0  0  0  0  0
    1.0488   -2.9376    1.0042 H   0  0  0  0  0  0  0  0  0  0  0  0
    2.5443   -1.7138   -1.4104 H   0  0  0  0  0  0  0  0  0  0  0  0
    3.3891   -1.9636    1.5150 H   0  0  0  0  0  0  0  0  0  0  0  0
    4.1167   -2.6679    0.0814 H   0  0  0  0  0  0  0  0  0  0  0  0
    4.2070   -0.8917    0.2561 H   0  0  0  0  0  0  0  0  0  0  0  0
    0.6757   -0.3696   -0.8622 H   0  0  0  0  0  0  0  0  0  0  0  0
    0.2279    1.3827   -1.7726 H   0  0  0  0  0  0  0  0  0  0  0  0
   -0.5184    3.5607   -2.4753 H   0  0  0  0  0  0  0  0  0  0  0  0
    1.4481    5.3994    0.8581 H   0  0  0  0  0  0  0  0  0  0  0  0
    3.4234    1.9880    3.2540 H   0  0  0  0  0  0  0  0  0  0  0  0
    2.9087   -0.0783    2.1418 H   0  0  0  0  0  0  0  0  0  0  0  0
  1 23  1  0  0  0  0
  1 24  1  0  0  0  0
  1 25  1  0  0  0  0
  2  1  1  0  0  0  0
  2 26  1  0  0  0  0
  2 27  1  0  0  0  0
  3  2  1  0  0  0  0
  3 28  1  0  0  0  0
  4  3  1  0  0  0  0
  4 29  1  0  0  0  0
  4 30  1  0  0  0  0
  5  4  1  0  0  0  0
  5 31  1  0  0  0  0
  5 32  1  0  0  0  0
  5 33  1  0  0  0  0
  6  3  1  0  0  0  0
  6 34  1  0  0  0  0
  6 35  1  0  0  0  0
  7  6  1  0  0  0  0
  7 36  1  0  0  0  0
  7 37  1  0  0  0  0
  8  7  1  0  0  0  0
  8 38  1  0  0  0  0
  8 39  1  0  0  0  0
  9  8  1  0  0  0  0
  9 40  1  6  0  0  0
 10  9  1  0  0  0  0
 10 41  1  0  0  0  0
 10 42  1  0  0  0  0
 10 43  1  0  0  0  0
 11  9  1  0  0  0  0
 11 44  1  0  0  0  0
 12 11  1  0  0  0  0
 13 12  2  0  0  0  0
 14 13  1  0  0  0  0
 14 45  1  0  0  0  0
 15 14  2  0  0  0  0
 15 46  1  0  0  0  0
 16 15  1  0  0  0  0
 17 16  1  0  0  0  0
 18 16  2  0  0  0  0
 18 47  1  0  0  0  0
 19 18  1  0  0  0  0
 19 13  1  0  0  0  0
 20 19  2  0  0  0  0
 21 20  1  0  0  0  0
 21 48  1  0  0  0  0
 22 21  2  0  0  0  0
 22 12  1  0  0  0  0
 22 49  1  0  0  0  0
M  CHG  1   3   1
M  END
>  <MOL Chiral Flag>
0

>  <energy>
43.852666053281844

$$$$
> 483_AKC_jmm.0.058115-0
>467.sdf
 OpenBabel10062214153D

 50 51  0  0  0  0  0  0  0  0999 V2000
   -5.6402   -3.7062    0.2193 C   0  0  0  0  0  0  0  0  0  0  0  0
   -5.2436   -2.5633   -0.7312 C   0  0  0  0  0  0  0  0  0  0  0  0
   -4.9369   -1.2811   -0.0235 N   0  3  2  0  0  0  0  0  0  0  0  0
   -6.1231   -0.3804    0.0819 C   0  0  0  0  0  0  0  0  0  0  0  0
   -7.3033   -0.9372    0.8841 C   0  0  0  0  0  0  0  0  0  0  0  0
   -6.8871   -1.2797    2.1765 O   0  0  0  0  0  0  0  0  0  0  0  0
   -3.8567   -0.5542   -0.7519 C   0  0  0  0  0  0  0  0  0  0  0  0
   -3.0171    0.3850    0.1528 C   0  0  0  0  0  0  0  0  0  0  0  0
   -1.9293    1.0500   -0.7077 C   0  0  0  0  0  0  0  0  0  0  0  0
   -0.8038    1.8317    0.0275 C   0  0  2  0  0  0  0  0  0  0  0  0
   -1.4010    3.0177    0.8105 C   0  0  0  0  0  0  0  0  0  0  0  0
    0.1378    2.2931   -0.9953 N   0  0  0  0  0  0  0  0  0  0  0  0
    1.4271    2.9432   -0.8940 C   0  0  0  0  0  0  0  0  0  0  0  0
    2.2094    3.1875    0.2985 C   0  0  0  0  0  0  0  0  0  0  0  0
    1.8495    2.7888    1.6088 C   0  0  0  0  0  0  0  0  0  0  0  0
    2.6691    3.0874    2.7045 C   0  0  0  0  0  0  0  0  0  0  0  0
    3.8653    3.7772    2.5296 C   0  0  0  0  0  0  0  0  0  0  0  0
    4.8811    4.1513    3.9105 Cl  0  0  0  0  0  0  0  0  0  0  0  0
    4.2597    4.1628    1.2556 C   0  0  0  0  0  0  0  0  0  0  0  0
    3.4580    3.8752    0.1474 C   0  0  0  0  0  0  0  0  0  0  0  0
    3.8979    4.2595   -1.0747 N   0  0  0  0  0  0  0  0  0  0  0  0
    3.1931    4.0151   -2.1973 C   0  0  0  0  0  0  0  0  0  0  0  0
    1.9714    3.3693   -2.1245 C   0  0  0  0  0  0  0  0  0  0  0  0
   -5.7693   -4.6407   -0.3669 H   0  0  0  0  0  0  0  0  0  0  0  0
   -6.5792   -3.5320    0.7670 H   0  0  0  0  0  0  0  0  0  0  0  0
   -4.8338   -3.8767    0.9642 H   0  0  0  0  0  0  0  0  0  0  0  0
   -5.9998   -2.4165   -1.5336 H   0  0  0  0  0  0  0  0  0  0  0  0
   -4.3363   -2.9736   -1.2280 H   0  0  0  0  0  0  0  0  0  0  0  0
   -4.5679   -1.5094    0.9297 H   0  0  0  0  0  0  0  0  0  0  0  0
   -6.5009   -0.1180   -0.9337 H   0  0  0  0  0  0  0  0  0  0  0  0
   -5.8278    0.5676    0.5792 H   0  0  0  0  0  0  0  0  0  0  0  0
   -7.7511   -1.8049    0.3582 H   0  0  0  0  0  0  0  0  0  0  0  0
   -8.0876   -0.1501    0.9429 H   0  0  0  0  0  0  0  0  0  0  0  0
   -7.6691   -1.7058    2.6136 H   0  0  0  0  0  0  0  0  0  0  0  0
   -4.2730   -0.0000   -1.6258 H   0  0  0  0  0  0  0  0  0  0  0  0
   -3.1114   -1.2711   -1.1615 H   0  0  0  0  0  0  0  0  0  0  0  0
   -2.5358   -0.2297    0.9439 H   0  0  0  0  0  0  0  0  0  0  0  0
   -3.6457    1.1621    0.6330 H   0  0  0  0  0  0  0  0  0  0  0  0
   -2.4323    1.7180   -1.4436 H   0  0  0  0  0  0  0  0  0  0  0  0
   -1.4110    0.2445   -1.2746 H   0  0  0  0  0  0  0  0  0  0  0  0
   -0.3106    1.0937    0.6901 H   0  0  0  0  0  0  0  0  0  0  0  0
   -1.9614    3.6889    0.1274 H   0  0  0  0  0  0  0  0  0  0  0  0
   -0.6335    3.6360    1.3107 H   0  0  0  0  0  0  0  0  0  0  0  0
   -2.0908    2.6487    1.5987 H   0  0  0  0  0  0  0  0  0  0  0  0
   -0.1753    2.1350   -1.9671 H   0  0  0  0  0  0  0  0  0  0  0  0
    0.9620    2.2488    1.8293 H   0  0  0  0  0  0  0  0  0  0  0  0
    2.3699    2.7782    3.6978 H   0  0  0  0  0  0  0  0  0  0  0  0
    5.1974    4.6899    1.1196 H   0  0  0  0  0  0  0  0  0  0  0  0
    3.5826    4.3285   -3.1567 H   0  0  0  0  0  0  0  0  0  0  0  0
    1.4323    3.1983   -3.0488 H   0  0  0  0  0  0  0  0  0  0  0  0
  1 24  1  0  0  0  0
  1 25  1  0  0  0  0
  1 26  1  0  0  0  0
  2  1  1  0  0  0  0
  2 27  1  0  0  0  0
  2 28  1  0  0  0  0
  3  2  1  0  0  0  0
  3 29  1  1  0  0  0
  4  3  1  0  0  0  0
  4 30  1  0  0  0  0
  4 31  1  0  0  0  0
  5  4  1  0  0  0  0
  5 32  1  0  0  0  0
  5 33  1  0  0  0  0
  6  5  1  0  0  0  0
  6 34  1  0  0  0  0
  7  3  1  0  0  0  0
  7 35  1  0  0  0  0
  7 36  1  0  0  0  0
  8  7  1  0  0  0  0
  8 37  1  0  0  0  0
  8 38  1  0  0  0  0
  9  8  1  0  0  0  0
  9 39  1  0  0  0  0
  9 40  1  0  0  0  0
 10  9  1  0  0  0  0
 10 41  1  1  0  0  0
 11 10  1  0  0  0  0
 11 42  1  0  0  0  0
 11 43  1  0  0  0  0
 11 44  1  0  0  0  0
 12 10  1  0  0  0  0
 12 45  1  0  0  0  0
 13 12  1  0  0  0  0
 14 13  2  0  0  0  0
 15 14  1  0  0  0  0
 15 46  1  0  0  0  0
 16 15  2  0  0  0  0
 16 47  1  0  0  0  0
 17 16  1  0  0  0  0
 18 17  1  0  0  0  0
 19 17  2  0  0  0  0
 19 48  1  0  0  0  0
 20 19  1  0  0  0  0
 20 14  1  0  0  0  0
 21 20  2  0  0  0  0
 22 21  1  0  0  0  0
 22 49  1  0  0  0  0
 23 22  2  0  0  0  0
 23 13  1  0  0  0  0
 23 50  1  0  0  0  0
M  CHG  1   3   1
M  END
>  <MOL Chiral Flag>
0

>  <energy>
54.112971006613193

$$$$
> 484_AKC_cbdd.12123
>468.sdf
 OpenBabel10062214163D

 24 26  0  0  0  0  0  0  0  0999 V2000
   -4.3612    0.6319    1.2919 N   0  0  0  0  0  0  0  0  0  0  0  0
   -3.0844    0.1507    0.9339 C   0  0  0  0  0  0  0  0  0  0  0  0
   -2.0436    0.9493    0.5743 N   0  0  0  0  0  0  0  0  0  0  0  0
   -0.9197    0.2045    0.2728 C   0  0  0  0  0  0  0  0  0  0  0  0
   -1.0736   -1.1768    0.3944 C   0  0  0  0  0  0  0  0  0  0  0  0
   -2.6299   -1.4426    0.8829 S   0  0  0  0  0  0  0  0  0  0  0  0
   -0.0515   -2.0806    0.1309 C   0  0  0  0  0  0  0  0  0  0  0  0
   -0.2928   -3.4030    0.2771 O   0  0  0  0  0  0  0  0  0  0  0  0
    1.2088   -1.5611   -0.2840 C   0  0  0  0  0  0  0  0  0  0  0  0
    2.2530   -2.3776   -0.5615 O   0  0  0  0  0  0  0  0  0  0  0  0
    1.3840   -0.1516   -0.4135 C   0  0  0  0  0  0  0  0  0  0  0  0
    0.3076    0.7396   -0.1311 C   0  0  0  0  0  0  0  0  0  0  0  0
    0.4927    2.1263   -0.2618 C   0  0  0  0  0  0  0  0  0  0  0  0
    1.7285    2.6329   -0.6681 C   0  0  0  0  0  0  0  0  0  0  0  0
    2.7869    1.7666   -0.9473 C   0  0  0  0  0  0  0  0  0  0  0  0
    2.6210    0.3845   -0.8224 C   0  0  0  0  0  0  0  0  0  0  0  0
   -5.1093   -0.0264    1.5522 H   0  0  0  0  0  0  0  0  0  0  0  0
   -4.5515    1.6442    1.2916 H   0  0  0  0  0  0  0  0  0  0  0  0
    0.3603   -4.0941    0.1173 H   0  0  0  0  0  0  0  0  0  0  0  0
    2.2221   -3.3395   -0.5037 H   0  0  0  0  0  0  0  0  0  0  0  0
   -0.3156    2.8156   -0.0503 H   0  0  0  0  0  0  0  0  0  0  0  0
    1.8666    3.7018   -0.7675 H   0  0  0  0  0  0  0  0  0  0  0  0
    3.7416    2.1678   -1.2623 H   0  0  0  0  0  0  0  0  0  0  0  0
    3.4600   -0.2625   -1.0458 H   0  0  0  0  0  0  0  0  0  0  0  0
  1 17  1  0  0  0  0
  1 18  1  0  0  0  0
  2  1  1  0  0  0  0
  3  2  2  0  0  0  0
  4  3  1  0  0  0  0
  5  4  2  0  0  0  0
  6  5  1  0  0  0  0
  6  2  1  0  0  0  0
  7  5  1  0  0  0  0
  8  7  1  0  0  0  0
  8 19  1  0  0  0  0
  9  7  2  0  0  0  0
 10  9  1  0  0  0  0
 10 20  1  0  0  0  0
 11  9  1  0  0  0  0
 12 11  2  0  0  0  0
 12  4  1  0  0  0  0
 13 12  1  0  0  0  0
 13 21  1  0  0  0  0
 14 13  2  0  0  0  0
 14 22  1  0  0  0  0
 15 14  1  0  0  0  0
 15 23  1  0  0  0  0
 16 15  2  0  0  0  0
 16 11  1  0  0  0  0
 16 24  1  0  0  0  0
M  END
>  <MOL Chiral Flag>
0

>  <energy>
4.6365240954035727

$$$$
> 485_AKC_j.bmcl.2013.03.055
>469.sdf
 OpenBabel10062214163D

 64 68  0  0  0  0  0  0  0  0999 V2000
   -2.6866   -1.9230    3.1801 C   0  0  0  0  0  0  0  0  0  0  0  0
   -2.6271   -2.5160    1.7938 C   0  0  0  0  0  0  0  0  0  0  0  0
   -2.4900   -3.8578    1.6881 C   0  0  0  0  0  0  0  0  0  0  0  0
   -2.6041   -4.6000    0.3829 C   0  0  0  0  0  0  0  0  0  0  0  0
   -3.2956   -3.7589   -0.6955 C   0  0  0  0  0  0  0  0  0  0  0  0
   -2.6555   -2.3676   -0.8167 C   0  0  0  0  0  0  0  0  0  0  0  0
   -3.3852   -1.6006   -1.9505 C   0  0  0  0  0  0  0  0  0  0  0  0
   -1.1613   -2.5104   -1.2239 C   0  0  0  0  0  0  0  0  0  0  0  0
   -2.8280   -1.6163    0.5643 C   0  0  2  0  0  0  0  0  0  0  0  0
   -1.9897   -0.3442    0.5170 C   0  0  0  0  0  0  0  0  0  0  0  0
   -0.9599    0.0206    1.3220 C   0  0  0  0  0  0  0  0  0  0  0  0
   -0.2730    1.3084    1.0355 C   0  0  0  0  0  0  0  0  0  0  0  0
   -0.4452    1.8831   -0.0838 N   0  0  0  0  0  0  0  0  0  0  0  0
    0.2211    3.0542   -0.1601 N   0  0  0  0  0  0  0  0  0  0  0  0
    0.7370    3.4343    1.1387 C   0  0  1  0  0  0  0  0  0  0  0  0
    0.7404    2.0545    1.8917 C   0  0  0  0  0  0  0  0  0  0  0  0
    1.9927    4.2805    1.0768 C   0  0  0  0  0  0  0  0  0  0  0  0
    1.9417    5.6017    1.5493 C   0  0  0  0  0  0  0  0  0  0  0  0
    2.9916    6.4816    1.3023 C   0  0  0  0  0  0  0  0  0  0  0  0
    4.1288    6.0585    0.5973 C   0  0  0  0  0  0  0  0  0  0  0  0
    4.2200    4.7076    0.1972 C   0  0  0  0  0  0  0  0  0  0  0  0
    3.1544    3.8253    0.4323 C   0  0  0  0  0  0  0  0  0  0  0  0
    5.1372    7.0244    0.2310 N   0  0  0  0  0  0  0  0  0  0  0  0
    6.2978    6.8231   -0.4222 C   0  0  0  0  0  0  0  0  0  0  0  0
    6.9238    7.9939   -0.6525 N   0  0  0  0  0  0  0  0  0  0  0  0
    6.0920    8.9102   -0.1135 C   0  0  0  0  0  0  0  0  0  0  0  0
    5.0066    8.3276    0.4257 N   0  0  0  0  0  0  0  0  0  0  0  0
    0.3916    3.7170   -1.4185 C   0  0  0  0  0  0  0  0  0  0  0  0
    0.6307    5.1011   -1.5094 C   0  0  0  0  0  0  0  0  0  0  0  0
    0.8048    5.7083   -2.7556 C   0  0  0  0  0  0  0  0  0  0  0  0
    0.7458    4.9457   -3.9232 C   0  0  0  0  0  0  0  0  0  0  0  0
    0.5005    3.5746   -3.8487 C   0  0  0  0  0  0  0  0  0  0  0  0
    0.3160    2.9637   -2.6071 C   0  0  0  0  0  0  0  0  0  0  0  0
   -2.8722   -0.8295    3.1495 H   0  0  0  0  0  0  0  0  0  0  0  0
   -1.7400   -2.1203    3.7247 H   0  0  0  0  0  0  0  0  0  0  0  0
   -3.5275   -2.3847    3.7416 H   0  0  0  0  0  0  0  0  0  0  0  0
   -2.3366   -4.4504    2.5859 H   0  0  0  0  0  0  0  0  0  0  0  0
   -1.5964   -4.9510    0.0790 H   0  0  0  0  0  0  0  0  0  0  0  0
   -3.2355   -5.5023    0.5287 H   0  0  0  0  0  0  0  0  0  0  0  0
   -4.3660   -3.6275   -0.4159 H   0  0  0  0  0  0  0  0  0  0  0  0
   -3.2641   -4.3110   -1.6610 H   0  0  0  0  0  0  0  0  0  0  0  0
   -4.4634   -1.4754   -1.7109 H   0  0  0  0  0  0  0  0  0  0  0  0
   -2.9539   -0.5950   -2.1277 H   0  0  0  0  0  0  0  0  0  0  0  0
   -3.3092   -2.1544   -2.9109 H   0  0  0  0  0  0  0  0  0  0  0  0
   -0.6981   -1.5178   -1.4105 H   0  0  0  0  0  0  0  0  0  0  0  0
   -1.0672   -3.0942   -2.1645 H   0  0  0  0  0  0  0  0  0  0  0  0
   -0.5608   -3.0035   -0.4334 H   0  0  0  0  0  0  0  0  0  0  0  0
   -3.8870   -1.2900    0.6673 H   0  0  0  0  0  0  0  0  0  0  0  0
   -2.2607    0.3345   -0.2816 H   0  0  0  0  0  0  0  0  0  0  0  0
   -0.6389   -0.5877    2.1579 H   0  0  0  0  0  0  0  0  0  0  0  0
   -0.0849    4.0180    1.6118 H   0  0  0  0  0  0  0  0  0  0  0  0
    0.4608    2.1889    2.9583 H   0  0  0  0  0  0  0  0  0  0  0  0
    1.7027    1.5060    1.7942 H   0  0  0  0  0  0  0  0  0  0  0  0
    1.0518    5.9748    2.0405 H   0  0  0  0  0  0  0  0  0  0  0  0
    2.8937    7.5116    1.6203 H   0  0  0  0  0  0  0  0  0  0  0  0
    5.0798    4.3476   -0.3484 H   0  0  0  0  0  0  0  0  0  0  0  0
    3.2096    2.8114    0.0561 H   0  0  0  0  0  0  0  0  0  0  0  0
    6.6816    5.8651   -0.7428 H   0  0  0  0  0  0  0  0  0  0  0  0
    6.2650    9.9786   -0.1293 H   0  0  0  0  0  0  0  0  0  0  0  0
    0.6596    5.7201   -0.6322 H   0  0  0  0  0  0  0  0  0  0  0  0
    0.9833    6.7737   -2.8147 H   0  0  0  0  0  0  0  0  0  0  0  0
    0.8855    5.4182   -4.8861 H   0  0  0  0  0  0  0  0  0  0  0  0
    0.4557    2.9820   -4.7532 H   0  0  0  0  0  0  0  0  0  0  0  0
    0.1370    1.8960   -2.5702 H   0  0  0  0  0  0  0  0  0  0  0  0
  1 34  1  0  0  0  0
  1 35  1  0  0  0  0
  1 36  1  0  0  0  0
  2  1  1  0  0  0  0
  3  2  2  0  0  0  0
  3 37  1  0  0  0  0
  4  3  1  0  0  0  0
  4 38  1  0  0  0  0
  4 39  1  0  0  0  0
  5  4  1  0  0  0  0
  5 40  1  0  0  0  0
  5 41  1  0  0  0  0
  6  5  1  0  0  0  0
  7  6  1  0  0  0  0
  7 42  1  0  0  0  0
  7 43  1  0  0  0  0
  7 44  1  0  0  0  0
  8  6  1  0  0  0  0
  8 45  1  0  0  0  0
  8 46  1  0  0  0  0
  8 47  1  0  0  0  0
  9  6  1  0  0  0  0
  9  2  1  0  0  0  0
  9 48  1  1  0  0  0
 10  9  1  0  0  0  0
 10 49  1  0  0  0  0
 11 10  2  0  0  0  0
 11 50  1  0  0  0  0
 12 11  1  0  0  0  0
 13 12  2  0  0  0  0
 14 13  1  0  0  0  0
 15 14  1  0  0  0  0
 15 51  1  1  0  0  0
 16 15  1  0  0  0  0
 16 12  1  0  0  0  0
 16 52  1  0  0  0  0
 16 53  1  0  0  0  0
 17 15  1  0  0  0  0
 18 17  2  0  0  0  0
 18 54  1  0  0  0  0
 19 18  1  0  0  0  0
 19 55  1  0  0  0  0
 20 19  2  0  0  0  0
 21 20  1  0  0  0  0
 21 56  1  0  0  0  0
 22 21  2  0  0  0  0
 22 17  1  0  0  0  0
 22 57  1  0  0  0  0
 23 20  1  0  0  0  0
 24 23  1  0  0  0  0
 24 58  1  0  0  0  0
 25 24  2  0  0  0  0
 26 25  1  0  0  0  0
 26 59  1  0  0  0  0
 27 26  2  0  0  0  0
 27 23  1  0  0  0  0
 28 14  1  0  0  0  0
 29 28  2  0  0  0  0
 29 60  1  0  0  0  0
 30 29  1  0  0  0  0
 30 61  1  0  0  0  0
 31 30  2  0  0  0  0
 31 62  1  0  0  0  0
 32 31  1  0  0  0  0
 32 63  1  0  0  0  0
 33 32  2  0  0  0  0
 33 28  1  0  0  0  0
 33 64  1  0  0  0  0
M  END
>  <MOL Chiral Flag>
0

>  <energy>
152.06855828377905

$$$$
> 486_AKC_j.bcp.2013.02.024
>470.sdf
 OpenBabel10062214173D

 58 62  0  0  0  0  0  0  0  0999 V2000
   -3.2466   -1.4011   -4.5982 C   0  0  0  0  0  0  0  0  0  0  0  0
   -3.9952   -2.1899   -3.5107 C   0  0  0  0  0  0  0  0  0  0  0  0
   -4.7654   -1.3780   -2.4002 C   0  0  1  0  0  0  0  0  0  0  0  0
   -5.4792   -0.3082   -2.9749 O   0  0  0  0  0  0  0  0  0  0  0  0
   -5.7703   -2.3394   -1.7690 C   0  0  0  0  0  0  0  0  0  0  0  0
   -6.6203   -2.8552   -2.4796 O   0  0  0  0  0  0  0  0  0  0  0  0
   -5.7649   -2.6551   -0.4545 O   0  0  0  0  0  0  0  0  0  0  0  0
   -4.9164   -2.1708    0.5138 C   0  0  0  0  0  0  0  0  0  0  0  0
   -3.8984   -1.1800    0.0238 C   0  0  0  0  0  0  0  0  0  0  0  0
   -3.8184   -0.7986   -1.3461 C   0  0  0  0  0  0  0  0  0  0  0  0
   -2.8200    0.1191   -1.7286 C   0  0  0  0  0  0  0  0  0  0  0  0
   -1.9081    0.5554   -0.7821 C   0  0  0  0  0  0  0  0  0  0  0  0
   -1.9948    0.1997    0.5063 N   0  0  0  0  0  0  0  0  0  0  0  0
   -0.8743    0.7555    1.2867 C   0  0  0  0  0  0  0  0  0  0  0  0
   -0.0563    1.4048    0.1847 C   0  0  0  0  0  0  0  0  0  0  0  0
    1.2473    1.9165    0.2369 C   0  0  0  0  0  0  0  0  0  0  0  0
    1.9370    1.8630    1.5554 C   0  0  0  0  0  0  0  0  0  0  0  0
    3.2123    1.7940    1.6392 N   0  0  0  0  0  0  0  0  0  0  0  0
    3.7907    1.5446    2.7970 O   0  0  0  0  0  0  0  0  0  0  0  0
    4.5158    0.3780    3.0194 C   0  0  0  0  0  0  0  0  0  0  0  0
    3.8592   -0.3681    4.1899 C   0  0  0  0  0  0  0  0  0  0  0  0
    5.9564    0.7564    3.3836 C   0  0  0  0  0  0  0  0  0  0  0  0
    4.5323   -0.5543    1.7800 C   0  0  0  0  0  0  0  0  0  0  0  0
    1.8475    2.3125   -1.0113 C   0  0  0  0  0  0  0  0  0  0  0  0
    3.1683    2.8094   -1.1228 C   0  0  0  0  0  0  0  0  0  0  0  0
    3.7073    3.1223   -2.3749 C   0  0  0  0  0  0  0  0  0  0  0  0
    2.9506    2.9619   -3.5339 C   0  0  0  0  0  0  0  0  0  0  0  0
    1.6414    2.4971   -3.4550 C   0  0  0  0  0  0  0  0  0  0  0  0
    1.0809    2.1735   -2.2171 C   0  0  0  0  0  0  0  0  0  0  0  0
   -0.1834    1.6739   -2.1812 N   0  0  0  0  0  0  0  0  0  0  0  0
   -0.7206    1.3053   -1.0022 C   0  0  0  0  0  0  0  0  0  0  0  0
   -2.9766   -0.6412    0.9559 C   0  0  0  0  0  0  0  0  0  0  0  0
   -3.0180   -0.9606    2.1315 O   0  0  0  0  0  0  0  0  0  0  0  0
   -2.3485   -0.8735   -4.2435 H   0  0  0  0  0  0  0  0  0  0  0  0
   -3.9365   -0.6927   -5.1065 H   0  0  0  0  0  0  0  0  0  0  0  0
   -2.8736   -2.1121   -5.3650 H   0  0  0  0  0  0  0  0  0  0  0  0
   -3.3067   -2.9238   -3.0363 H   0  0  0  0  0  0  0  0  0  0  0  0
   -4.7413   -2.7704   -4.0949 H   0  0  0  0  0  0  0  0  0  0  0  0
   -6.0389   -0.6656   -3.7139 H   0  0  0  0  0  0  0  0  0  0  0  0
   -4.3777   -3.0348    0.9608 H   0  0  0  0  0  0  0  0  0  0  0  0
   -5.5323   -1.6959    1.3053 H   0  0  0  0  0  0  0  0  0  0  0  0
   -2.7166    0.4612   -2.7382 H   0  0  0  0  0  0  0  0  0  0  0  0
   -1.2156    1.4773    2.0607 H   0  0  0  0  0  0  0  0  0  0  0  0
   -0.2961   -0.0743    1.7448 H   0  0  0  0  0  0  0  0  0  0  0  0
    1.3496    1.6764    2.4511 H   0  0  0  0  0  0  0  0  0  0  0  0
    4.4093   -1.3053    4.4229 H   0  0  0  0  0  0  0  0  0  0  0  0
    3.8449    0.2705    5.0988 H   0  0  0  0  0  0  0  0  0  0  0  0
    2.8087   -0.6301    3.9356 H   0  0  0  0  0  0  0  0  0  0  0  0
    6.4322    1.3057    2.5430 H   0  0  0  0  0  0  0  0  0  0  0  0
    5.9708    1.4095    4.2819 H   0  0  0  0  0  0  0  0  0  0  0  0
    6.5586   -0.1535    3.5973 H   0  0  0  0  0  0  0  0  0  0  0  0
    5.1075   -1.4816    1.9895 H   0  0  0  0  0  0  0  0  0  0  0  0
    5.0006   -0.0440    0.9106 H   0  0  0  0  0  0  0  0  0  0  0  0
    3.4978   -0.8486    1.4967 H   0  0  0  0  0  0  0  0  0  0  0  0
    3.8031    2.9595   -0.2698 H   0  0  0  0  0  0  0  0  0  0  0  0
    4.7241    3.4857   -2.4466 H   0  0  0  0  0  0  0  0  0  0  0  0
    3.3817    3.1953   -4.4987 H   0  0  0  0  0  0  0  0  0  0  0  0
    1.0636    2.3681   -4.3624 H   0  0  0  0  0  0  0  0  0  0  0  0
  1 34  1  0  0  0  0
  1 35  1  0  0  0  0
  1 36  1  0  0  0  0
  2  1  1  0  0  0  0
  2 37  1  0  0  0  0
  2 38  1  0  0  0  0
  3  2  1  6  0  0  0
  4  3  1  0  0  0  0
  4 39  1  0  0  0  0
  5  3  1  0  0  0  0
  6  5  2  0  0  0  0
  7  5  1  0  0  0  0
  8  7  1  0  0  0  0
  8 40  1  0  0  0  0
  8 41  1  0  0  0  0
  9  8  1  0  0  0  0
 10  9  2  0  0  0  0
 10  3  1  0  0  0  0
 11 10  1  0  0  0  0
 11 42  1  0  0  0  0
 12 11  2  0  0  0  0
 13 12  1  0  0  0  0
 14 13  1  0  0  0  0
 14 43  1  0  0  0  0
 14 44  1  0  0  0  0
 15 14  1  0  0  0  0
 16 15  2  0  0  0  0
 17 16  1  0  0  0  0
 17 45  1  0  0  0  0
 18 17  2  0  0  0  0
 19 18  1  0  0  0  0
 20 19  1  0  0  0  0
 21 20  1  0  0  0  0
 21 46  1  0  0  0  0
 21 47  1  0  0  0  0
 21 48  1  0  0  0  0
 22 20  1  0  0  0  0
 22 49  1  0  0  0  0
 22 50  1  0  0  0  0
 22 51  1  0  0  0  0
 23 20  1  0  0  0  0
 23 52  1  0  0  0  0
 23 53  1  0  0  0  0
 23 54  1  0  0  0  0
 24 16  1  0  0  0  0
 25 24  2  0  0  0  0
 25 55  1  0  0  0  0
 26 25  1  0  0  0  0
 26 56  1  0  0  0  0
 27 26  2  0  0  0  0
 27 57  1  0  0  0  0
 28 27  1  0  0  0  0
 28 58  1  0  0  0  0
 29 28  2  0  0  0  0
 29 24  1  0  0  0  0
 30 29  1  0  0  0  0
 31 30  2  0  0  0  0
 31 12  1  0  0  0  0
 31 15  1  0  0  0  0
 32 13  1  0  0  0  0
 32  9  1  0  0  0  0
 33 32  2  0  0  0  0
M  END
>  <MOL Chiral Flag>
0

>  <energy>
112.84376499171492

$$$$
> 487_AKC_s00044-012-0213-9
>471.sdf
 OpenBabel10062214173D

 36 38  0  0  0  0  0  0  0  0999 V2000
   -2.7055   -2.9180   -1.3600 C   0  0  0  0  0  0  0  0  0  0  0  0
   -2.7510   -1.4808   -0.9091 C   0  0  0  0  0  0  0  0  0  0  0  0
   -3.9798   -0.9318   -0.7354 N   0  0  0  0  0  0  0  0  0  0  0  0
   -4.1471    0.3510   -0.3496 C   0  0  0  0  0  0  0  0  0  0  0  0
   -5.4390    0.8715   -0.2135 C   0  0  0  0  0  0  0  0  0  0  0  0
   -5.6207    2.2085    0.1439 C   0  0  0  0  0  0  0  0  0  0  0  0
   -4.5120    3.0290    0.3684 C   0  0  0  0  0  0  0  0  0  0  0  0
   -3.2158    2.5115    0.2459 C   0  0  0  0  0  0  0  0  0  0  0  0
   -3.0250    1.1603   -0.1129 C   0  0  0  0  0  0  0  0  0  0  0  0
   -1.7443    0.5919   -0.2677 C   0  0  0  0  0  0  0  0  0  0  0  0
   -0.7543    1.2892   -0.1133 O   0  0  0  0  0  0  0  0  0  0  0  0
   -1.6130   -0.7381   -0.6590 N   0  0  0  0  0  0  0  0  0  0  0  0
   -0.3483   -1.3025   -0.9105 N   0  0  0  0  0  0  0  0  0  0  0  0
    0.7802   -1.2733   -0.0163 C   0  0  0  0  0  0  0  0  0  0  0  0
    0.6422   -0.7689    1.3288 S   0  0  0  0  0  0  0  0  0  0  0  0
    2.0250   -1.8146   -0.5082 N   0  0  0  0  0  0  0  0  0  0  0  0
    3.2502   -2.1398    0.1815 C   0  0  0  0  0  0  0  0  0  0  0  0
    3.3694   -2.2770    1.5873 C   0  0  0  0  0  0  0  0  0  0  0  0
    4.6009   -2.6210    2.1627 C   0  0  0  0  0  0  0  0  0  0  0  0
    5.7220   -2.8346    1.3603 C   0  0  0  0  0  0  0  0  0  0  0  0
    5.6182   -2.7155   -0.0228 C   0  0  0  0  0  0  0  0  0  0  0  0
    4.3958   -2.3783   -0.6063 C   0  0  0  0  0  0  0  0  0  0  0  0
   -3.1970   -2.9946   -2.3526 H   0  0  0  0  0  0  0  0  0  0  0  0
   -3.2698   -3.5406   -0.6355 H   0  0  0  0  0  0  0  0  0  0  0  0
   -1.6974   -3.3606   -1.4385 H   0  0  0  0  0  0  0  0  0  0  0  0
   -6.3020    0.2422   -0.3958 H   0  0  0  0  0  0  0  0  0  0  0  0
   -6.6218    2.6101    0.2390 H   0  0  0  0  0  0  0  0  0  0  0  0
   -4.6584    4.0678    0.6352 H   0  0  0  0  0  0  0  0  0  0  0  0
   -2.3708    3.1653    0.4213 H   0  0  0  0  0  0  0  0  0  0  0  0
   -0.2357   -1.8825   -1.7533 H   0  0  0  0  0  0  0  0  0  0  0  0
    2.0425   -1.9800   -1.5260 H   0  0  0  0  0  0  0  0  0  0  0  0
    2.5393   -2.1534    2.2553 H   0  0  0  0  0  0  0  0  0  0  0  0
    4.6845   -2.7295    3.2366 H   0  0  0  0  0  0  0  0  0  0  0  0
    6.6704   -3.1006    1.8099 H   0  0  0  0  0  0  0  0  0  0  0  0
    6.4857   -2.8875   -0.6476 H   0  0  0  0  0  0  0  0  0  0  0  0
    4.3390   -2.2954   -1.6846 H   0  0  0  0  0  0  0  0  0  0  0  0
  1 23  1  0  0  0  0
  1 24  1  0  0  0  0
  1 25  1  0  0  0  0
  2  1  1  0  0  0  0
  3  2  2  0  0  0  0
  4  3  1  0  0  0  0
  5  4  2  0  0  0  0
  5 26  1  0  0  0  0
  6  5  1  0  0  0  0
  6 27  1  0  0  0  0
  7  6  2  0  0  0  0
  7 28  1  0  0  0  0
  8  7  1  0  0  0  0
  8 29  1  0  0  0  0
  9  8  2  0  0  0  0
  9  4  1  0  0  0  0
 10  9  1  0  0  0  0
 11 10  2  0  0  0  0
 12 10  1  0  0  0  0
 12  2  1  0  0  0  0
 13 12  1  0  0  0  0
 13 30  1  0  0  0  0
 14 13  1  0  0  0  0
 15 14  2  0  0  0  0
 16 14  1  0  0  0  0
 16 31  1  0  0  0  0
 17 16  1  0  0  0  0
 18 17  2  0  0  0  0
 18 32  1  0  0  0  0
 19 18  1  0  0  0  0
 19 33  1  0  0  0  0
 20 19  2  0  0  0  0
 20 34  1  0  0  0  0
 21 20  1  0  0  0  0
 21 35  1  0  0  0  0
 22 21  2  0  0  0  0
 22 17  1  0  0  0  0
 22 36  1  0  0  0  0
M  END
>  <MOL Chiral Flag>
0

>  <energy>
36.792567760839653

$$$$
> 488_AKC_s00044-012-0213-9
>472.sdf
 OpenBabel10062214183D

 39 42  0  0  0  0  0  0  0  0999 V2000
   -1.9104   -2.6446   -1.4630 C   0  0  0  0  0  0  0  0  0  0  0  0
   -2.2038   -1.2204   -1.0647 C   0  0  0  0  0  0  0  0  0  0  0  0
   -3.3154   -0.6446   -1.5962 N   0  0  0  0  0  0  0  0  0  0  0  0
   -3.6810    0.6228   -1.2983 C   0  0  0  0  0  0  0  0  0  0  0  0
   -4.8221    1.1808   -1.8881 C   0  0  0  0  0  0  0  0  0  0  0  0
   -5.1881    2.4980   -1.5964 C   0  0  0  0  0  0  0  0  0  0  0  0
   -4.4178    3.2608   -0.7148 C   0  0  0  0  0  0  0  0  0  0  0  0
   -3.2786    2.7097   -0.1220 C   0  0  0  0  0  0  0  0  0  0  0  0
   -2.9051    1.3815   -0.4111 C   0  0  0  0  0  0  0  0  0  0  0  0
   -1.7588    0.7948    0.1455 C   0  0  0  0  0  0  0  0  0  0  0  0
   -1.0395    1.4663    0.8673 O   0  0  0  0  0  0  0  0  0  0  0  0
   -1.4151   -0.5158   -0.1774 N   0  0  0  0  0  0  0  0  0  0  0  0
   -0.2193   -1.0836    0.3042 N   0  0  0  0  0  0  0  0  0  0  0  0
    0.2273   -0.9291    1.5907 C   0  0  0  0  0  0  0  0  0  0  0  0
   -0.4907   -0.4183    2.4385 O   0  0  0  0  0  0  0  0  0  0  0  0
    1.6167   -1.3796    2.0051 C   0  0  1  0  0  0  0  0  0  0  0  0
    2.4082   -1.8838    0.8859 N   0  0  0  0  0  0  0  0  0  0  0  0
    3.4917   -1.0304    0.6104 C   0  0  0  0  0  0  0  0  0  0  0  0
    4.4199   -1.1576   -0.4215 C   0  0  0  0  0  0  0  0  0  0  0  0
    5.4184   -0.1733   -0.5406 C   0  0  0  0  0  0  0  0  0  0  0  0
    5.4649    0.9045    0.3720 C   0  0  0  0  0  0  0  0  0  0  0  0
    4.5136    0.9974    1.4039 C   0  0  0  0  0  0  0  0  0  0  0  0
    3.5379    0.0059    1.4878 C   0  0  0  0  0  0  0  0  0  0  0  0
    2.4289   -0.1609    2.4044 C   0  0  0  0  0  0  0  0  0  0  0  0
    2.1682    0.5893    3.3322 O   0  0  0  0  0  0  0  0  0  0  0  0
   -1.7492   -2.6927   -2.5601 H   0  0  0  0  0  0  0  0  0  0  0  0
   -2.7881   -3.2742   -1.2065 H   0  0  0  0  0  0  0  0  0  0  0  0
   -1.0391   -3.1019   -0.9611 H   0  0  0  0  0  0  0  0  0  0  0  0
   -5.4198    0.5975   -2.5773 H   0  0  0  0  0  0  0  0  0  0  0  0
   -6.0673    2.9296   -2.0566 H   0  0  0  0  0  0  0  0  0  0  0  0
   -4.7008    4.2816   -0.4928 H   0  0  0  0  0  0  0  0  0  0  0  0
   -2.6917    3.3177    0.5557 H   0  0  0  0  0  0  0  0  0  0  0  0
    0.3548   -1.6212   -0.3553 H   0  0  0  0  0  0  0  0  0  0  0  0
    1.5792   -2.1297    2.8241 H   0  0  0  0  0  0  0  0  0  0  0  0
    2.1907   -2.7365    0.3490 H   0  0  0  0  0  0  0  0  0  0  0  0
    4.3685   -1.9845   -1.1177 H   0  0  0  0  0  0  0  0  0  0  0  0
    6.1493   -0.2392   -1.3357 H   0  0  0  0  0  0  0  0  0  0  0  0
    6.2309    1.6627    0.2747 H   0  0  0  0  0  0  0  0  0  0  0  0
    4.5330    1.8209    2.1059 H   0  0  0  0  0  0  0  0  0  0  0  0
  1 26  1  0  0  0  0
  1 27  1  0  0  0  0
  1 28  1  0  0  0  0
  2  1  1  0  0  0  0
  3  2  2  0  0  0  0
  4  3  1  0  0  0  0
  5  4  2  0  0  0  0
  5 29  1  0  0  0  0
  6  5  1  0  0  0  0
  6 30  1  0  0  0  0
  7  6  2  0  0  0  0
  7 31  1  0  0  0  0
  8  7  1  0  0  0  0
  8 32  1  0  0  0  0
  9  8  2  0  0  0  0
  9  4  1  0  0  0  0
 10  9  1  0  0  0  0
 11 10  2  0  0  0  0
 12 10  1  0  0  0  0
 12  2  1  0  0  0  0
 13 12  1  0  0  0  0
 13 33  1  0  0  0  0
 14 13  1  0  0  0  0
 15 14  2  0  0  0  0
 16 14  1  0  0  0  0
 16 34  1  1  0  0  0
 17 16  1  0  0  0  0
 17 35  1  0  0  0  0
 18 17  1  0  0  0  0
 19 18  2  0  0  0  0
 19 36  1  0  0  0  0
 20 19  1  0  0  0  0
 20 37  1  0  0  0  0
 21 20  2  0  0  0  0
 21 38  1  0  0  0  0
 22 21  1  0  0  0  0
 22 39  1  0  0  0  0
 23 22  2  0  0  0  0
 23 18  1  0  0  0  0
 24 23  1  0  0  0  0
 24 16  1  0  0  0  0
 25 24  2  0  0  0  0
M  END
>  <MOL Chiral Flag>
0

>  <energy>
151.57955492120931

$$$$
> 489_AKC_s00044-012-0213-9
>473.sdf
 OpenBabel10062214183D

 40 43  0  0  0  0  0  0  0  0999 V2000
   -1.8993   -2.6465    1.0056 C   0  0  0  0  0  0  0  0  0  0  0  0
   -2.2173   -1.3025    0.4461 C   0  0  0  0  0  0  0  0  0  0  0  0
   -3.5270   -0.9363    0.5262 N   0  0  0  0  0  0  0  0  0  0  0  0
   -3.9758    0.2694    0.1194 C   0  0  0  0  0  0  0  0  0  0  0  0
   -5.3306    0.5979    0.2528 C   0  0  0  0  0  0  0  0  0  0  0  0
   -5.7873    1.8578   -0.1460 C   0  0  0  0  0  0  0  0  0  0  0  0
   -4.8932    2.7888   -0.6813 C   0  0  0  0  0  0  0  0  0  0  0  0
   -3.5413    2.4619   -0.8189 C   0  0  0  0  0  0  0  0  0  0  0  0
   -3.0771    1.1935   -0.4144 C   0  0  0  0  0  0  0  0  0  0  0  0
   -1.7277    0.8312   -0.5086 C   0  0  0  0  0  0  0  0  0  0  0  0
   -0.9246    1.6397   -0.9519 O   0  0  0  0  0  0  0  0  0  0  0  0
   -1.2820   -0.4136   -0.0827 N   0  0  0  0  0  0  0  0  0  0  0  0
    0.1224   -0.5547   -0.1191 N   0  0  0  0  0  0  0  0  0  0  0  0
    0.9932   -1.5184   -0.1199 C   0  0  0  0  0  0  0  0  0  0  0  0
    0.7855   -3.1570   -0.1494 S   0  0  0  0  0  0  0  0  0  0  0  0
    2.3694   -3.6076   -0.0372 C   0  0  0  0  0  0  0  0  0  0  0  0
    3.1038   -2.4151   -0.0001 C   0  0  0  0  0  0  0  0  0  0  0  0
    4.5228   -2.4271    0.0370 N   0  0  0  0  0  0  0  0  0  0  0  0
    2.3389   -1.2517   -0.0595 N   0  0  0  0  0  0  0  0  0  0  0  0
    2.8641    0.1025   -0.0430 C   0  0  0  0  0  0  0  0  0  0  0  0
    2.3442    1.0740   -0.9243 C   0  0  0  0  0  0  0  0  0  0  0  0
    2.8256    2.3840   -0.9045 C   0  0  0  0  0  0  0  0  0  0  0  0
    3.8232    2.7480   -0.0005 C   0  0  0  0  0  0  0  0  0  0  0  0
    4.3449    1.7999    0.8829 C   0  0  0  0  0  0  0  0  0  0  0  0
    3.8730    0.4824    0.8624 C   0  0  0  0  0  0  0  0  0  0  0  0
   -2.7998   -3.0796    1.4924 H   0  0  0  0  0  0  0  0  0  0  0  0
   -1.1094   -2.5789    1.7814 H   0  0  0  0  0  0  0  0  0  0  0  0
   -1.6923   -3.3493    0.1797 H   0  0  0  0  0  0  0  0  0  0  0  0
   -6.0267   -0.1173    0.6729 H   0  0  0  0  0  0  0  0  0  0  0  0
   -6.8328    2.1146   -0.0360 H   0  0  0  0  0  0  0  0  0  0  0  0
   -5.2462    3.7657   -0.9856 H   0  0  0  0  0  0  0  0  0  0  0  0
   -2.8612    3.1984   -1.2300 H   0  0  0  0  0  0  0  0  0  0  0  0
    2.7626   -4.6155   -0.0202 H   0  0  0  0  0  0  0  0  0  0  0  0
    5.0266   -3.3247    0.0842 H   0  0  0  0  0  0  0  0  0  0  0  0
    5.0758   -1.5667   -0.0534 H   0  0  0  0  0  0  0  0  0  0  0  0
    1.5784    0.8117   -1.6420 H   0  0  0  0  0  0  0  0  0  0  0  0
    2.4225    3.1170   -1.5919 H   0  0  0  0  0  0  0  0  0  0  0  0
    4.1897    3.7661    0.0168 H   0  0  0  0  0  0  0  0  0  0  0  0
    5.1119    2.0880    1.5895 H   0  0  0  0  0  0  0  0  0  0  0  0
    4.2735   -0.2297    1.5711 H   0  0  0  0  0  0  0  0  0  0  0  0
  1 26  1  0  0  0  0
  1 27  1  0  0  0  0
  1 28  1  0  0  0  0
  2  1  1  0  0  0  0
  3  2  2  0  0  0  0
  4  3  1  0  0  0  0
  5  4  2  0  0  0  0
  5 29  1  0  0  0  0
  6  5  1  0  0  0  0
  6 30  1  0  0  0  0
  7  6  2  0  0  0  0
  7 31  1  0  0  0  0
  8  7  1  0  0  0  0
  8 32  1  0  0  0  0
  9  8  2  0  0  0  0
  9  4  1  0  0  0  0
 10  9  1  0  0  0  0
 11 10  2  0  0  0  0
 12 10  1  0  0  0  0
 12  2  1  0  0  0  0
 13 12  1  0  0  0  0
 14 13  2  0  0  0  0
 15 14  1  0  0  0  0
 16 15  1  0  0  0  0
 16 33  1  0  0  0  0
 17 16  2  0  0  0  0
 18 17  1  0  0  0  0
 18 34  1  0  0  0  0
 18 35  1  0  0  0  0
 19 17  1  0  0  0  0
 19 14  1  0  0  0  0
 20 19  1  0  0  0  0
 21 20  2  0  0  0  0
 21 36  1  0  0  0  0
 22 21  1  0  0  0  0
 22 37  1  0  0  0  0
 23 22  2  0  0  0  0
 23 38  1  0  0  0  0
 24 23  1  0  0  0  0
 24 39  1  0  0  0  0
 25 24  2  0  0  0  0
 25 20  1  0  0  0  0
 25 40  1  0  0  0  0
M  END
>  <MOL Chiral Flag>
0

>  <energy>
126.73091963470954

$$$$
> 490_AKC_cbdd.12112
>474.sdf
 OpenBabel10062214183D

 33 35  0  0  0  0  0  0  0  0999 V2000
    6.5403    0.0401   -0.2064 O   0  0  0  0  0  0  0  0  0  0  0  0
    5.4077    0.6184    0.2431 C   0  0  0  0  0  0  0  0  0  0  0  0
    4.1555    0.1398   -0.1627 C   0  0  0  0  0  0  0  0  0  0  0  0
    2.9757    0.7300    0.3183 C   0  0  0  0  0  0  0  0  0  0  0  0
    1.6810    0.1623   -0.1118 C   0  0  0  0  0  0  0  0  0  0  0  0
    0.5571    0.5494    0.3880 N   0  0  0  0  0  0  0  0  0  0  0  0
   -0.6118   -0.0856    0.0203 N   0  0  0  0  0  0  0  0  0  0  0  0
   -1.8313    0.1268    0.7367 C   0  0  0  0  0  0  0  0  0  0  0  0
   -2.9404   -0.7620    0.6032 C   0  0  0  0  0  0  0  0  0  0  0  0
   -2.9201   -1.9060   -0.2323 C   0  0  0  0  0  0  0  0  0  0  0  0
   -4.0258   -2.7553   -0.3002 C   0  0  0  0  0  0  0  0  0  0  0  0
   -5.1680   -2.4897    0.4531 C   0  0  0  0  0  0  0  0  0  0  0  0
   -6.5440   -3.5740    0.3642 Cl  0  0  0  0  0  0  0  0  0  0  0  0
   -5.2125   -1.3669    1.2812 C   0  0  0  0  0  0  0  0  0  0  0  0
   -4.1116   -0.5042    1.3635 C   0  0  0  0  0  0  0  0  0  0  0  0
   -4.1706    0.5735    2.1878 N   0  0  0  0  0  0  0  0  0  0  0  0
   -3.1270    1.4288    2.3249 C   0  0  0  0  0  0  0  0  0  0  0  0
   -1.9455    1.2197    1.6139 C   0  0  0  0  0  0  0  0  0  0  0  0
    3.0602    1.8152    1.2084 C   0  0  0  0  0  0  0  0  0  0  0  0
    4.3136    2.2975    1.6060 C   0  0  0  0  0  0  0  0  0  0  0  0
    5.4835    1.6989    1.1265 C   0  0  0  0  0  0  0  0  0  0  0  0
    6.5192   -0.7190   -0.8075 H   0  0  0  0  0  0  0  0  0  0  0  0
    4.1009   -0.7021   -0.8432 H   0  0  0  0  0  0  0  0  0  0  0  0
    1.6962   -0.6629   -0.8200 H   0  0  0  0  0  0  0  0  0  0  0  0
   -0.5609   -0.8113   -0.7019 H   0  0  0  0  0  0  0  0  0  0  0  0
   -2.0691   -2.1748   -0.8320 H   0  0  0  0  0  0  0  0  0  0  0  0
   -3.9891   -3.6285   -0.9398 H   0  0  0  0  0  0  0  0  0  0  0  0
   -6.1011   -1.1686    1.8679 H   0  0  0  0  0  0  0  0  0  0  0  0
   -3.2138    2.2748    2.9937 H   0  0  0  0  0  0  0  0  0  0  0  0
   -1.1264    1.9155    1.7434 H   0  0  0  0  0  0  0  0  0  0  0  0
    2.1643    2.2851    1.5944 H   0  0  0  0  0  0  0  0  0  0  0  0
    4.3797    3.1325    2.2914 H   0  0  0  0  0  0  0  0  0  0  0  0
    6.4496    2.0711    1.4437 H   0  0  0  0  0  0  0  0  0  0  0  0
  1 22  1  0  0  0  0
  2  1  1  0  0  0  0
  3  2  2  0  0  0  0
  3 23  1  0  0  0  0
  4  3  1  0  0  0  0
  5  4  1  0  0  0  0
  5 24  1  0  0  0  0
  6  5  2  0  0  0  0
  7  6  1  0  0  0  0
  7 25  1  0  0  0  0
  8  7  1  0  0  0  0
  9  8  2  0  0  0  0
 10  9  1  0  0  0  0
 10 26  1  0  0  0  0
 11 10  2  0  0  0  0
 11 27  1  0  0  0  0
 12 11  1  0  0  0  0
 13 12  1  0  0  0  0
 14 12  2  0  0  0  0
 14 28  1  0  0  0  0
 15 14  1  0  0  0  0
 15  9  1  0  0  0  0
 16 15  2  0  0  0  0
 17 16  1  0  0  0  0
 17 29  1  0  0  0  0
 18 17  2  0  0  0  0
 18  8  1  0  0  0  0
 18 30  1  0  0  0  0
 19  4  2  0  0  0  0
 19 31  1  0  0  0  0
 20 19  1  0  0  0  0
 20 32  1  0  0  0  0
 21 20  2  0  0  0  0
 21  2  1  0  0  0  0
 21 33  1  0  0  0  0
M  END
>  <MOL Chiral Flag>
0

>  <energy>
65.310001044336161

$$$$
> 491_AKC_j.ejmech.2013.01.001
>475.sdf
 OpenBabel10062214193D

 53 55  0  0  0  0  0  0  0  0999 V2000
    0.6520   -0.0779    1.2342 C   0  0  0  0  0  0  0  0  0  0  0  0
    0.6878   -1.5310    1.8146 C   0  0  0  0  0  0  0  0  0  0  0  0
   -0.6228   -2.1885    2.1596 N   0  3  0  0  0  0  0  0  0  0  0  0
   -1.2896   -1.5113    3.3323 C   0  0  0  0  0  0  0  0  0  0  0  0
   -2.5586   -2.2666    3.7613 C   0  0  0  0  0  0  0  0  0  0  0  0
   -3.2565   -1.9296    5.0280 N   0  3  0  0  0  0  0  0  0  0  0  0
   -4.7261   -2.2676    5.0199 C   0  0  0  0  0  0  0  0  0  0  0  0
   -5.1295   -3.5638    4.3116 C   0  0  0  0  0  0  0  0  0  0  0  0
   -6.0785   -4.4850    4.7876 C   0  0  0  0  0  0  0  0  0  0  0  0
   -6.4037   -5.5995    3.9781 C   0  0  0  0  0  0  0  0  0  0  0  0
   -5.7546   -5.7929    2.7359 C   0  0  0  0  0  0  0  0  0  0  0  0
   -4.8050   -4.8440    2.3245 C   0  0  0  0  0  0  0  0  0  0  0  0
   -3.9759   -4.8866    1.0623 C   0  0  0  0  0  0  0  0  0  0  0  0
   -2.5123   -4.8822    1.3835 N   0  3  0  0  0  0  0  0  0  0  0  0
   -1.6550   -3.9975    0.5412 C   0  0  0  0  0  0  0  0  0  0  0  0
   -1.4870   -2.4705    0.9483 C   0  0  0  0  0  0  0  0  0  0  0  0
   -4.5884   -3.7893    3.1070 N   0  0  0  0  0  0  0  0  0  0  0  0
    2.0200    0.4450    1.1167 N   0  0  0  0  0  0  0  0  0  0  0  0
    2.6303    1.0558   -0.0375 C   0  0  0  0  0  0  0  0  0  0  0  0
    3.9879    1.4403    0.0338 C   0  0  0  0  0  0  0  0  0  0  0  0
    4.6037    2.0422   -1.0177 N   0  0  0  0  0  0  0  0  0  0  0  0
    3.9450    2.3051   -2.1759 C   0  0  0  0  0  0  0  0  0  0  0  0
    2.6021    1.9522   -2.3054 C   0  0  0  0  0  0  0  0  0  0  0  0
    1.9386    1.3253   -1.2405 C   0  0  0  0  0  0  0  0  0  0  0  0
    0.1152    0.5777    1.9485 H   0  0  0  0  0  0  0  0  0  0  0  0
    0.1099   -0.0479    0.2730 H   0  0  0  0  0  0  0  0  0  0  0  0
    1.3101   -1.4940    2.7382 H   0  0  0  0  0  0  0  0  0  0  0  0
    1.2430   -2.1686    1.0913 H   0  0  0  0  0  0  0  0  0  0  0  0
   -0.3321   -3.1251    2.5277 H   0  0  0  0  0  0  0  0  0  0  0  0
   -1.5681   -0.4627    3.0909 H   0  0  0  0  0  0  0  0  0  0  0  0
   -0.5865   -1.4977    4.1943 H   0  0  0  0  0  0  0  0  0  0  0  0
   -2.2679   -3.3268    3.8632 H   0  0  0  0  0  0  0  0  0  0  0  0
   -3.2303   -2.0324    2.9222 H   0  0  0  0  0  0  0  0  0  0  0  0
   -3.1720   -0.9036    5.2092 H   0  0  0  0  0  0  0  0  0  0  0  0
   -2.7863   -2.4354    5.8157 H   0  0  0  0  0  0  0  0  0  0  0  0
   -5.2342   -1.4715    4.4354 H   0  0  0  0  0  0  0  0  0  0  0  0
   -5.1489   -2.2233    6.0483 H   0  0  0  0  0  0  0  0  0  0  0  0
   -6.5800   -4.3345    5.7363 H   0  0  0  0  0  0  0  0  0  0  0  0
   -7.1530   -6.3091    4.3120 H   0  0  0  0  0  0  0  0  0  0  0  0
   -5.9910   -6.6539    2.1224 H   0  0  0  0  0  0  0  0  0  0  0  0
   -4.2453   -3.9740    0.4881 H   0  0  0  0  0  0  0  0  0  0  0  0
   -4.2400   -5.7706    0.4386 H   0  0  0  0  0  0  0  0  0  0  0  0
   -2.1925   -5.8665    1.2242 H   0  0  0  0  0  0  0  0  0  0  0  0
   -2.3023   -4.7306    2.3859 H   0  0  0  0  0  0  0  0  0  0  0  0
   -2.0362   -4.0481   -0.5021 H   0  0  0  0  0  0  0  0  0  0  0  0
   -0.6276   -4.4239    0.5128 H   0  0  0  0  0  0  0  0  0  0  0  0
   -2.4561   -1.9377    0.9661 H   0  0  0  0  0  0  0  0  0  0  0  0
   -0.9850   -2.0355    0.0577 H   0  0  0  0  0  0  0  0  0  0  0  0
    2.5942    0.4083    1.9741 H   0  0  0  0  0  0  0  0  0  0  0  0
    4.5578    1.2598    0.9368 H   0  0  0  0  0  0  0  0  0  0  0  0
    4.4653    2.7919   -2.9928 H   0  0  0  0  0  0  0  0  0  0  0  0
    2.0787    2.1703   -3.2287 H   0  0  0  0  0  0  0  0  0  0  0  0
    0.8994    1.0754   -1.3667 H   0  0  0  0  0  0  0  0  0  0  0  0
  1 25  1  0  0  0  0
  1 26  1  0  0  0  0
  2  1  1  0  0  0  0
  2 27  1  0  0  0  0
  2 28  1  0  0  0  0
  3  2  1  0  0  0  0
  3 29  1  0  0  0  0
  4  3  1  0  0  0  0
  4 30  1  0  0  0  0
  4 31  1  0  0  0  0
  5  4  1  0  0  0  0
  5 32  1  0  0  0  0
  5 33  1  0  0  0  0
  6  5  1  0  0  0  0
  6 34  1  0  0  0  0
  6 35  1  0  0  0  0
  7  6  1  0  0  0  0
  7 36  1  0  0  0  0
  7 37  1  0  0  0  0
  8  7  1  0  0  0  0
  9  8  2  0  0  0  0
  9 38  1  0  0  0  0
 10  9  1  0  0  0  0
 10 39  1  0  0  0  0
 11 10  2  0  0  0  0
 11 40  1  0  0  0  0
 12 11  1  0  0  0  0
 13 12  1  0  0  0  0
 13 41  1  0  0  0  0
 13 42  1  0  0  0  0
 14 13  1  0  0  0  0
 14 43  1  0  0  0  0
 14 44  1  0  0  0  0
 15 14  1  0  0  0  0
 15 45  1  0  0  0  0
 15 46  1  0  0  0  0
 16 15  1  0  0  0  0
 16  3  1  0  0  0  0
 16 47  1  0  0  0  0
 16 48  1  0  0  0  0
 17 12  2  0  0  0  0
 17  8  1  0  0  0  0
 18  1  1  0  0  0  0
 18 49  1  0  0  0  0
 19 18  1  0  0  0  0
 20 19  2  0  0  0  0
 20 50  1  0  0  0  0
 21 20  1  0  0  0  0
 22 21  2  0  0  0  0
 22 51  1  0  0  0  0
 23 22  1  0  0  0  0
 23 52  1  0  0  0  0
 24 23  2  0  0  0  0
 24 19  1  0  0  0  0
 24 53  1  0  0  0  0
M  CHG  3   3   1   6   1  14   1
M  END
>  <MOL Chiral Flag>
0

>  <energy>
179.53009324102041

$$$$
> 492_AKC_j.ejmech.2013.02.024
>476.sdf
 OpenBabel10062214203D

 45 49  0  0  0  0  0  0  0  0999 V2000
   -0.9066   -4.4766    4.0882 I   0  0  0  0  0  0  0  0  0  0  0  0
    0.2720   -3.8593    2.4513 C   0  0  0  0  0  0  0  0  0  0  0  0
    1.2649   -4.7261    1.9377 C   0  0  0  0  0  0  0  0  0  0  0  0
    2.0629   -4.3255    0.8509 C   0  0  0  0  0  0  0  0  0  0  0  0
    1.8440   -3.0601    0.3090 C   0  0  0  0  0  0  0  0  0  0  0  0
    2.5026   -2.4857   -0.7122 N   0  0  0  0  0  0  0  0  0  0  0  0
    1.9680   -1.2533   -0.8782 C   0  0  0  0  0  0  0  0  0  0  0  0
    0.9469   -1.0504    0.0495 C   0  0  0  0  0  0  0  0  0  0  0  0
    0.0921    0.1880    0.2456 C   0  0  0  0  0  0  0  0  0  0  0  0
    0.5454    1.3773   -0.5806 C   0  0  0  0  0  0  0  0  0  0  0  0
    0.2510    1.6082   -1.9257 C   0  0  0  0  0  0  0  0  0  0  0  0
    0.7806    2.7884   -2.3186 N   0  0  0  0  0  0  0  0  0  0  0  0
    1.4171    3.2998   -1.2518 C   0  0  0  0  0  0  0  0  0  0  0  0
    2.1193    4.5009   -1.1876 C   0  0  0  0  0  0  0  0  0  0  0  0
    2.7325    4.8420    0.0304 C   0  0  0  0  0  0  0  0  0  0  0  0
    2.6257    3.9816    1.1483 C   0  0  0  0  0  0  0  0  0  0  0  0
    3.5759    4.4992    2.9580 I   0  0  0  0  0  0  0  0  0  0  0  0
    1.8949    2.7787    1.0544 C   0  0  0  0  0  0  0  0  0  0  0  0
    1.2988    2.4659   -0.1689 C   0  0  0  0  0  0  0  0  0  0  0  0
   -1.3865   -0.0518   -0.0301 C   0  0  0  0  0  0  0  0  0  0  0  0
   -1.8134   -1.0629   -0.9159 C   0  0  0  0  0  0  0  0  0  0  0  0
   -3.1686   -1.2240   -1.2106 C   0  0  0  0  0  0  0  0  0  0  0  0
   -4.1322   -0.3821   -0.6272 C   0  0  0  0  0  0  0  0  0  0  0  0
   -3.7057    0.6268    0.2587 C   0  0  0  0  0  0  0  0  0  0  0  0
   -2.3468    0.7933    0.5469 C   0  0  0  0  0  0  0  0  0  0  0  0
   -5.5195   -0.5407   -0.9377 N   0  0  0  0  0  0  0  0  0  0  0  0
   -6.3334    0.1887   -0.4577 O   0  0  0  0  0  0  0  0  0  0  0  0
   -5.8752   -1.3980   -1.6907 O   0  0  0  0  0  0  0  0  0  0  0  0
    0.8838   -2.2164    0.8001 C   0  0  0  0  0  0  0  0  0  0  0  0
    0.0738   -2.5860    1.8776 C   0  0  0  0  0  0  0  0  0  0  0  0
    1.4163   -5.7014    2.3835 H   0  0  0  0  0  0  0  0  0  0  0  0
    2.8285   -4.9797    0.4541 H   0  0  0  0  0  0  0  0  0  0  0  0
    3.2825   -2.9046   -1.2657 H   0  0  0  0  0  0  0  0  0  0  0  0
    2.3024   -0.5488   -1.6271 H   0  0  0  0  0  0  0  0  0  0  0  0
    0.2344    0.4340    1.3197 H   0  0  0  0  0  0  0  0  0  0  0  0
   -0.3323    0.9650   -2.5711 H   0  0  0  0  0  0  0  0  0  0  0  0
    0.7063    3.2176   -3.2678 H   0  0  0  0  0  0  0  0  0  0  0  0
    2.1976    5.1503   -2.0504 H   0  0  0  0  0  0  0  0  0  0  0  0
    3.2927    5.7653    0.1078 H   0  0  0  0  0  0  0  0  0  0  0  0
    1.8141    2.1148    1.9041 H   0  0  0  0  0  0  0  0  0  0  0  0
   -1.0985   -1.7138   -1.4017 H   0  0  0  0  0  0  0  0  0  0  0  0
   -3.4642   -2.0005   -1.9053 H   0  0  0  0  0  0  0  0  0  0  0  0
   -4.4243    1.2920    0.7197 H   0  0  0  0  0  0  0  0  0  0  0  0
   -2.0397    1.5848    1.2189 H   0  0  0  0  0  0  0  0  0  0  0  0
   -0.6798   -1.9148    2.2681 H   0  0  0  0  0  0  0  0  0  0  0  0
  2  1  1  0  0  0  0
  3  2  2  0  0  0  0
  3 31  1  0  0  0  0
  4  3  1  0  0  0  0
  4 32  1  0  0  0  0
  5  4  2  0  0  0  0
  6  5  1  0  0  0  0
  6 33  1  0  0  0  0
  7  6  1  0  0  0  0
  7 34  1  0  0  0  0
  8  7  2  0  0  0  0
  9  8  1  0  0  0  0
  9 35  1  0  0  0  0
 10  9  1  0  0  0  0
 11 10  2  0  0  0  0
 11 36  1  0  0  0  0
 12 11  1  0  0  0  0
 12 37  1  0  0  0  0
 13 12  1  0  0  0  0
 14 13  2  0  0  0  0
 14 38  1  0  0  0  0
 15 14  1  0  0  0  0
 15 39  1  0  0  0  0
 16 15  2  0  0  0  0
 17 16  1  0  0  0  0
 18 16  1  0  0  0  0
 18 40  1  0  0  0  0
 19 18  2  0  0  0  0
 19 10  1  0  0  0  0
 19 13  1  0  0  0  0
 20  9  1  0  0  0  0
 21 20  2  0  0  0  0
 21 41  1  0  0  0  0
 22 21  1  0  0  0  0
 22 42  1  0  0  0  0
 23 22  2  0  0  0  0
 24 23  1  0  0  0  0
 24 43  1  0  0  0  0
 25 24  2  0  0  0  0
 25 20  1  0  0  0  0
 25 44  1  0  0  0  0
 26 23  1  0  0  0  0
 27 26  2  0  0  0  0
 28 26  2  0  0  0  0
 29  8  1  0  0  0  0
 29  5  1  0  0  0  0
 30 29  2  0  0  0  0
 30  2  1  0  0  0  0
 30 45  1  0  0  0  0
M  END
>  <MOL Chiral Flag>
0

>  <energy>
117.55934259787455

$$$$
> 493_AKC_s-0032-1328258
>477.sdf
 OpenBabel10062214203D

 26 28  0  0  0  0  0  0  0  0999 V2000
   -5.5137   -0.8823   -0.6935 C   0  0  0  0  0  0  0  0  0  0  0  0
   -4.2438   -0.2633   -0.2167 C   0  0  0  0  0  0  0  0  0  0  0  0
   -4.1060    0.6900    0.7978 C   0  0  0  0  0  0  0  0  0  0  0  0
   -2.7590    1.1006    0.9992 C   0  0  0  0  0  0  0  0  0  0  0  0
   -1.8506    0.4521    0.1544 C   0  0  0  0  0  0  0  0  0  0  0  0
   -2.7264   -0.5846   -0.8012 S   0  0  0  0  0  0  0  0  0  0  0  0
   -0.3917    0.6154    0.1533 C   0  0  0  0  0  0  0  0  0  0  0  0
    0.3363    1.6345    0.7809 C   0  0  0  0  0  0  0  0  0  0  0  0
    1.7438    1.4666    0.6694 C   0  0  0  0  0  0  0  0  0  0  0  0
    2.1105    0.3134   -0.0326 C   0  0  0  0  0  0  0  0  0  0  0  0
    0.7071   -0.4270   -0.5218 S   0  0  0  0  0  0  0  0  0  0  0  0
    3.4734   -0.1970   -0.2248 C   0  0  0  0  0  0  0  0  0  0  0  0
    3.8451   -1.3611   -0.9028 C   0  0  0  0  0  0  0  0  0  0  0  0
    5.2432   -1.6179   -0.8504 C   0  0  0  0  0  0  0  0  0  0  0  0
    5.9622   -0.6577   -0.1303 C   0  0  0  0  0  0  0  0  0  0  0  0
    4.8611    0.4611    0.4030 S   0  0  0  0  0  0  0  0  0  0  0  0
   -5.4475   -1.9864   -0.6089 H   0  0  0  0  0  0  0  0  0  0  0  0
   -5.6786   -0.6044   -1.7555 H   0  0  0  0  0  0  0  0  0  0  0  0
   -6.3732   -0.5217   -0.0900 H   0  0  0  0  0  0  0  0  0  0  0  0
   -4.9364    1.0781    1.3722 H   0  0  0  0  0  0  0  0  0  0  0  0
   -2.4698    1.8223    1.7523 H   0  0  0  0  0  0  0  0  0  0  0  0
   -0.1192    2.4615    1.3075 H   0  0  0  0  0  0  0  0  0  0  0  0
    2.4557    2.1531    1.1103 H   0  0  0  0  0  0  0  0  0  0  0  0
    3.1429   -2.0127   -1.4074 H   0  0  0  0  0  0  0  0  0  0  0  0
    5.7058   -2.4782   -1.3141 H   0  0  0  0  0  0  0  0  0  0  0  0
    7.0285   -0.6543    0.0496 H   0  0  0  0  0  0  0  0  0  0  0  0
  1 17  1  0  0  0  0
  1 18  1  0  0  0  0
  1 19  1  0  0  0  0
  2  1  1  0  0  0  0
  3  2  2  0  0  0  0
  3 20  1  0  0  0  0
  4  3  1  0  0  0  0
  4 21  1  0  0  0  0
  5  4  2  0  0  0  0
  6  5  1  0  0  0  0
  6  2  1  0  0  0  0
  7  5  1  0  0  0  0
  8  7  2  0  0  0  0
  8 22  1  0  0  0  0
  9  8  1  0  0  0  0
  9 23  1  0  0  0  0
 10  9  2  0  0  0  0
 11 10  1  0  0  0  0
 11  7  1  0  0  0  0
 12 10  1  0  0  0  0
 13 12  2  0  0  0  0
 13 24  1  0  0  0  0
 14 13  1  0  0  0  0
 14 25  1  0  0  0  0
 15 14  2  0  0  0  0
 15 26  1  0  0  0  0
 16 15  1  0  0  0  0
 16 12  1  0  0  0  0
M  END
>  <MOL Chiral Flag>
0

>  <energy>
27.70904890367424

$$$$
> 494_AKC_s-0032-1328258
>478.sdf
 OpenBabel10062214213D

 33 34  0  0  0  0  0  0  0  0999 V2000
   -9.0665    0.4417    0.1645 C   0  0  0  0  0  0  0  0  0  0  0  0
   -7.5784    0.3541    0.1334 C   0  0  0  0  0  0  0  0  0  0  0  0
   -7.0159   -0.5840    0.6812 O   0  0  0  0  0  0  0  0  0  0  0  0
   -6.8684    1.3350   -0.4865 O   0  0  0  0  0  0  0  0  0  0  0  0
   -5.4888    1.4126   -0.4967 C   0  0  0  0  0  0  0  0  0  0  0  0
   -4.8395    0.2584   -1.2699 C   0  0  0  0  0  0  0  0  0  0  0  0
   -3.3960    0.3586   -1.0857 C   0  0  0  0  0  0  0  0  0  0  0  0
   -2.2491    0.4283   -0.7387 C   0  0  0  0  0  0  0  0  0  0  0  0
   -0.9294    0.3350   -0.2059 C   0  0  0  0  0  0  0  0  0  0  0  0
   -0.6259   -0.3147    0.9868 C   0  0  0  0  0  0  0  0  0  0  0  0
    0.7523   -0.2883    1.3008 C   0  0  0  0  0  0  0  0  0  0  0  0
    1.5211    0.4024    0.3581 C   0  0  0  0  0  0  0  0  0  0  0  0
    0.4799    0.9634   -0.8121 S   0  0  0  0  0  0  0  0  0  0  0  0
    2.9767    0.5575    0.4062 C   0  0  0  0  0  0  0  0  0  0  0  0
    3.8414   -0.1715    1.2302 C   0  0  0  0  0  0  0  0  0  0  0  0
    5.2067    0.1700    1.0545 C   0  0  0  0  0  0  0  0  0  0  0  0
    5.4033    1.1761    0.1051 C   0  0  0  0  0  0  0  0  0  0  0  0
    6.7088    1.7773   -0.2859 C   0  0  0  0  0  0  0  0  0  0  0  0
    3.9121    1.5852   -0.4996 S   0  0  0  0  0  0  0  0  0  0  0  0
   -9.5013   -0.4477    0.6685 H   0  0  0  0  0  0  0  0  0  0  0  0
   -9.4536    0.4998   -0.8730 H   0  0  0  0  0  0  0  0  0  0  0  0
   -9.3642    1.3540    0.7223 H   0  0  0  0  0  0  0  0  0  0  0  0
   -5.1908    2.3670   -0.9827 H   0  0  0  0  0  0  0  0  0  0  0  0
   -5.1228    1.4349    0.5552 H   0  0  0  0  0  0  0  0  0  0  0  0
   -5.1139    0.2823   -2.3450 H   0  0  0  0  0  0  0  0  0  0  0  0
   -5.1404   -0.7216   -0.8488 H   0  0  0  0  0  0  0  0  0  0  0  0
   -1.3677   -0.8003    1.6075 H   0  0  0  0  0  0  0  0  0  0  0  0
    1.1574   -0.7534    2.1881 H   0  0  0  0  0  0  0  0  0  0  0  0
    3.5107   -0.9350    1.9213 H   0  0  0  0  0  0  0  0  0  0  0  0
    6.0081   -0.3027    1.6058 H   0  0  0  0  0  0  0  0  0  0  0  0
    7.5377    1.2927    0.2727 H   0  0  0  0  0  0  0  0  0  0  0  0
    6.8737    1.6416   -1.3737 H   0  0  0  0  0  0  0  0  0  0  0  0
    6.6990    2.8602   -0.0428 H   0  0  0  0  0  0  0  0  0  0  0  0
  1 20  1  0  0  0  0
  1 21  1  0  0  0  0
  1 22  1  0  0  0  0
  2  1  1  0  0  0  0
  3  2  2  0  0  0  0
  4  2  1  0  0  0  0
  5  4  1  0  0  0  0
  5 23  1  0  0  0  0
  5 24  1  0  0  0  0
  6  5  1  0  0  0  0
  6 25  1  0  0  0  0
  6 26  1  0  0  0  0
  7  6  1  0  0  0  0
  8  7  3  0  0  0  0
  9  8  1  0  0  0  0
 10  9  2  0  0  0  0
 10 27  1  0  0  0  0
 11 10  1  0  0  0  0
 11 28  1  0  0  0  0
 12 11  2  0  0  0  0
 13 12  1  0  0  0  0
 13  9  1  0  0  0  0
 14 12  1  0  0  0  0
 15 14  2  0  0  0  0
 15 29  1  0  0  0  0
 16 15  1  0  0  0  0
 16 30  1  0  0  0  0
 17 16  2  0  0  0  0
 18 17  1  0  0  0  0
 18 31  1  0  0  0  0
 18 32  1  0  0  0  0
 18 33  1  0  0  0  0
 19 17  1  0  0  0  0
 19 14  1  0  0  0  0
M  END
>  <MOL Chiral Flag>
0

>  <energy>
28.277867410817567

$$$$
> 495_AKC_S0074-02762013000100010
>479.sdf
 OpenBabel10062214213D

 54 55  0  0  0  0  0  0  0  0999 V2000
    3.7272   -1.3704    2.1951 C   0  0  0  0  0  0  0  0  0  0  0  0
    3.6960   -0.8133    0.7621 C   0  0  1  0  0  0  0  0  0  0  0  0
    2.5013   -1.3742   -0.0868 C   0  0  0  0  0  0  0  0  0  0  0  0
    1.1377   -1.7374    0.5961 C   0  0  0  0  0  0  0  0  0  0  0  0
   -0.2034   -1.0789    0.1236 C   0  0  1  0  0  0  0  0  0  0  0  0
   -1.3757   -1.9945    0.5284 C   0  0  0  0  0  0  0  0  0  0  0  0
   -1.5385   -3.2035   -0.0393 C   0  0  0  0  0  0  0  0  0  0  0  0
   -2.3580   -1.5196    1.5505 C   0  0  0  0  0  0  0  0  0  0  0  0
   -2.9538   -0.1603    1.1624 C   0  0  0  0  0  0  0  0  0  0  0  0
   -2.0229    0.7170    0.2651 C   0  0  2  0  0  0  0  0  0  0  0  0
   -0.4788    0.4504    0.5126 C   0  0  1  0  0  0  0  0  0  0  0  0
   -0.0101    0.7614    1.9651 C   0  0  0  0  0  0  0  0  0  0  0  0
    0.3116    1.3480   -0.4821 C   0  0  0  0  0  0  0  0  0  0  0  0
   -0.0930    2.8326   -0.4367 C   0  0  0  0  0  0  0  0  0  0  0  0
   -1.5761    2.9772   -0.8152 C   0  0  0  0  0  0  0  0  0  0  0  0
   -2.5165    2.2174    0.1568 C   0  0  2  0  0  0  0  0  0  0  0  0
   -2.5746    2.9818    1.5142 C   0  0  0  0  0  0  0  0  0  0  0  0
   -3.9233    2.2234   -0.4565 C   0  0  0  0  0  0  0  0  0  0  0  0
   -4.1292    1.6676   -1.6684 O   0  0  0  0  0  0  0  0  0  0  0  0
   -4.8713    2.7162    0.1361 O   0  0  0  0  0  0  0  0  0  0  0  0
    3.8689    0.7207    0.7681 C   0  0  0  0  0  0  0  0  0  0  0  0
    4.1921    1.2549   -0.6063 C   0  0  0  0  0  0  0  0  0  0  0  0
    3.4350    2.2190   -1.1612 O   0  0  0  0  0  0  0  0  0  0  0  0
    5.1726    0.8423   -1.2067 O   0  0  0  0  0  0  0  0  0  0  0  0
    2.8959   -0.9621    2.8054 H   0  0  0  0  0  0  0  0  0  0  0  0
    3.6705   -2.4797    2.1822 H   0  0  0  0  0  0  0  0  0  0  0  0
    4.6750   -1.0823    2.6978 H   0  0  0  0  0  0  0  0  0  0  0  0
    4.6254   -1.1941    0.2761 H   0  0  0  0  0  0  0  0  0  0  0  0
    2.9112   -2.3801   -0.3446 H   0  0  0  0  0  0  0  0  0  0  0  0
    2.3884   -0.9165   -1.0920 H   0  0  0  0  0  0  0  0  0  0  0  0
    1.1914   -1.7987    1.6981 H   0  0  0  0  0  0  0  0  0  0  0  0
    1.0106   -2.8073    0.3216 H   0  0  0  0  0  0  0  0  0  0  0  0
   -0.2398   -1.1291   -0.9885 H   0  0  0  0  0  0  0  0  0  0  0  0
   -0.8480   -3.5607   -0.7970 H   0  0  0  0  0  0  0  0  0  0  0  0
   -2.3693   -3.8435    0.2407 H   0  0  0  0  0  0  0  0  0  0  0  0
   -3.1711   -2.2402    1.7884 H   0  0  0  0  0  0  0  0  0  0  0  0
   -1.7792   -1.4308    2.4854 H   0  0  0  0  0  0  0  0  0  0  0  0
   -3.2266    0.3229    2.1204 H   0  0  0  0  0  0  0  0  0  0  0  0
   -3.8951   -0.3147    0.5911 H   0  0  0  0  0  0  0  0  0  0  0  0
   -2.1531    0.3112   -0.7671 H   0  0  0  0  0  0  0  0  0  0  0  0
    1.0554    0.5010    2.0866 H   0  0  0  0  0  0  0  0  0  0  0  0
   -0.0521    1.8218    2.2293 H   0  0  0  0  0  0  0  0  0  0  0  0
   -0.5603    0.2229    2.7479 H   0  0  0  0  0  0  0  0  0  0  0  0
    0.1256    1.0113   -1.5264 H   0  0  0  0  0  0  0  0  0  0  0  0
    1.3858    1.2400   -0.3040 H   0  0  0  0  0  0  0  0  0  0  0  0
    0.1194    3.2852    0.5507 H   0  0  0  0  0  0  0  0  0  0  0  0
    0.5148    3.3888   -1.1827 H   0  0  0  0  0  0  0  0  0  0  0  0
   -1.8583    4.0522   -0.8652 H   0  0  0  0  0  0  0  0  0  0  0  0
   -1.6883    2.5635   -1.8429 H   0  0  0  0  0  0  0  0  0  0  0  0
   -2.9630    4.0101    1.3465 H   0  0  0  0  0  0  0  0  0  0  0  0
   -1.6088    3.1270    2.0069 H   0  0  0  0  0  0  0  0  0  0  0  0
   -3.2611    2.4989    2.2370 H   0  0  0  0  0  0  0  0  0  0  0  0
    2.9916    1.2285    1.2069 H   0  0  0  0  0  0  0  0  0  0  0  0
    4.7427    0.9739    1.4082 H   0  0  0  0  0  0  0  0  0  0  0  0
  1 25  1  0  0  0  0
  1 26  1  0  0  0  0
  1 27  1  0  0  0  0
  2  1  1  0  0  0  0
  2 28  1  6  0  0  0
  3  2  1  0  0  0  0
  3 29  1  0  0  0  0
  3 30  1  0  0  0  0
  4  3  1  0  0  0  0
  4 31  1  0  0  0  0
  4 32  1  0  0  0  0
  5  4  1  0  0  0  0
  5 33  1  6  0  0  0
  6  5  1  0  0  0  0
  7  6  2  0  0  0  0
  7 34  1  0  0  0  0
  7 35  1  0  0  0  0
  8  6  1  0  0  0  0
  8 36  1  0  0  0  0
  8 37  1  0  0  0  0
  9  8  1  0  0  0  0
  9 38  1  0  0  0  0
  9 39  1  0  0  0  0
 10  9  1  0  0  0  0
 10 40  1  6  0  0  0
 11 10  1  0  0  0  0
 11  5  1  0  0  0  0
 11 12  1  1  0  0  0
 12 41  1  0  0  0  0
 12 42  1  0  0  0  0
 12 43  1  0  0  0  0
 13 11  1  0  0  0  0
 13 44  1  0  0  0  0
 13 45  1  0  0  0  0
 14 13  1  0  0  0  0
 14 46  1  0  0  0  0
 14 47  1  0  0  0  0
 15 14  1  0  0  0  0
 15 48  1  0  0  0  0
 15 49  1  0  0  0  0
 16 15  1  0  0  0  0
 16 10  1  0  0  0  0
 16 17  1  1  0  0  0
 17 50  1  0  0  0  0
 17 51  1  0  0  0  0
 17 52  1  0  0  0  0
 18 16  1  0  0  0  0
 19 18  1  0  0  0  0
 20 18  2  0  0  0  0
 21  2  1  0  0  0  0
 21 53  1  0  0  0  0
 21 54  1  0  0  0  0
 22 21  1  0  0  0  0
 23 22  1  0  0  0  0
 24 22  2  0  0  0  0
M  END
>  <MOL Chiral Flag>
0

>  <energy>
38.254233951465523

$$$$
> 496_AKC_S0074-02762013000100010
>480.sdf
 OpenBabel10062214293D

 51 54  0  0  0  0  0  0  0  0999 V2000
   -0.4154    2.0237    1.7366 C   0  0  0  0  0  0  0  0  0  0  0  0
    0.3729    1.2145    0.6617 C   0  0  1  0  0  0  0  0  0  0  0  0
    1.3180    2.2922    0.0212 C   0  0  0  0  0  0  0  0  0  0  0  0
    2.4609    1.7239   -0.8175 C   0  0  0  0  0  0  0  0  0  0  0  0
    3.3535    0.8697    0.0882 C   0  0  0  0  0  0  0  0  0  0  0  0
    2.6064   -0.3692    0.6469 C   0  0  2  0  0  0  0  0  0  0  0  0
    2.4538   -1.3840   -0.5251 C   0  0  0  0  0  0  0  0  0  0  0  0
    1.2679    0.1228    1.3919 C   0  0  2  0  0  0  0  0  0  0  0  0
    0.3733   -1.0253    1.9484 C   0  0  0  0  0  0  0  0  0  0  0  0
   -0.4926   -1.7116    0.8737 C   0  0  0  0  0  0  0  0  0  0  0  0
   -1.4105   -0.7423    0.1023 C   0  0  1  0  0  0  0  0  0  0  0  0
   -2.6638   -0.3138    0.8936 C   0  0  0  0  0  0  0  0  0  0  0  0
   -3.5247    0.3285   -0.1953 C   0  0  1  0  0  0  0  0  0  0  0  0
   -2.9082    1.6819   -0.6137 C   0  0  0  0  0  0  0  0  0  0  0  0
   -1.5067    1.4797   -1.2363 C   0  0  0  0  0  0  0  0  0  0  0  0
   -0.5783    0.5201   -0.4202 C   0  0  1  0  0  0  0  0  0  0  0  0
   -3.3528   -0.6926   -1.2753 C   0  0  0  0  0  0  0  0  0  0  0  0
   -4.2142   -0.8789   -2.2796 C   0  0  0  0  0  0  0  0  0  0  0  0
   -2.1003   -1.4947   -1.0811 C   0  0  0  0  0  0  0  0  0  0  0  0
    3.5285   -1.0223    1.6896 C   0  0  0  0  0  0  0  0  0  0  0  0
    3.9634   -2.2916    1.5429 O   0  0  0  0  0  0  0  0  0  0  0  0
    3.8840   -0.3896    2.6729 O   0  0  0  0  0  0  0  0  0  0  0  0
   -1.0171    2.8300    1.2769 H   0  0  0  0  0  0  0  0  0  0  0  0
   -1.0296    1.4328    2.4178 H   0  0  0  0  0  0  0  0  0  0  0  0
    0.2873    2.5320    2.4323 H   0  0  0  0  0  0  0  0  0  0  0  0
    0.7547    3.0404   -0.5663 H   0  0  0  0  0  0  0  0  0  0  0  0
    1.8166    2.8782    0.8275 H   0  0  0  0  0  0  0  0  0  0  0  0
    2.0899    1.1641   -1.6980 H   0  0  0  0  0  0  0  0  0  0  0  0
    3.0669    2.5735   -1.2012 H   0  0  0  0  0  0  0  0  0  0  0  0
    4.2652    0.5568   -0.4678 H   0  0  0  0  0  0  0  0  0  0  0  0
    3.7013    1.5175    0.9247 H   0  0  0  0  0  0  0  0  0  0  0  0
    2.1343   -2.3813   -0.1731 H   0  0  0  0  0  0  0  0  0  0  0  0
    1.8108   -1.0551   -1.3526 H   0  0  0  0  0  0  0  0  0  0  0  0
    3.4484   -1.5764   -0.9841 H   0  0  0  0  0  0  0  0  0  0  0  0
    1.6792    0.6584    2.2776 H   0  0  0  0  0  0  0  0  0  0  0  0
    1.0010   -1.7791    2.4687 H   0  0  0  0  0  0  0  0  0  0  0  0
   -0.3181   -0.6205    2.7136 H   0  0  0  0  0  0  0  0  0  0  0  0
    0.1287   -2.2227    0.1365 H   0  0  0  0  0  0  0  0  0  0  0  0
   -1.0998   -2.5148    1.3455 H   0  0  0  0  0  0  0  0  0  0  0  0
   -3.1854   -1.2301    1.2623 H   0  0  0  0  0  0  0  0  0  0  0  0
   -2.5636    0.3155    1.7799 H   0  0  0  0  0  0  0  0  0  0  0  0
   -4.5663    0.4353    0.1792 H   0  0  0  0  0  0  0  0  0  0  0  0
   -2.8803    2.3435    0.2723 H   0  0  0  0  0  0  0  0  0  0  0  0
   -3.5556    2.1762   -1.3700 H   0  0  0  0  0  0  0  0  0  0  0  0
   -1.6869    0.9824   -2.2146 H   0  0  0  0  0  0  0  0  0  0  0  0
   -1.0424    2.4406   -1.5189 H   0  0  0  0  0  0  0  0  0  0  0  0
    0.1277    0.1373   -1.1667 H   0  0  0  0  0  0  0  0  0  0  0  0
   -4.0284   -1.6444   -3.0263 H   0  0  0  0  0  0  0  0  0  0  0  0
   -5.1064   -0.2659   -2.3583 H   0  0  0  0  0  0  0  0  0  0  0  0
   -2.4248   -2.5234   -0.8068 H   0  0  0  0  0  0  0  0  0  0  0  0
   -1.4340   -1.5429   -1.9694 H   0  0  0  0  0  0  0  0  0  0  0  0
  1 23  1  0  0  0  0
  1 24  1  0  0  0  0
  1 25  1  0  0  0  0
  2  1  1  1  0  0  0
  3  2  1  0  0  0  0
  3 26  1  0  0  0  0
  3 27  1  0  0  0  0
  4  3  1  0  0  0  0
  4 28  1  0  0  0  0
  4 29  1  0  0  0  0
  5  4  1  0  0  0  0
  5 30  1  0  0  0  0
  5 31  1  0  0  0  0
  6  5  1  0  0  0  0
  6  7  1  6  0  0  0
  7 32  1  0  0  0  0
  7 33  1  0  0  0  0
  7 34  1  0  0  0  0
  8  6  1  0  0  0  0
  8  2  1  0  0  0  0
  8 35  1  1  0  0  0
  9  8  1  0  0  0  0
  9 36  1  0  0  0  0
  9 37  1  0  0  0  0
 10  9  1  0  0  0  0
 10 38  1  0  0  0  0
 10 39  1  0  0  0  0
 11 10  1  1  0  0  0
 12 11  1  0  0  0  0
 12 40  1  0  0  0  0
 12 41  1  0  0  0  0
 13 12  1  0  0  0  0
 13 42  1  1  0  0  0
 14 13  1  0  0  0  0
 14 43  1  0  0  0  0
 14 44  1  0  0  0  0
 15 14  1  0  0  0  0
 15 45  1  0  0  0  0
 15 46  1  0  0  0  0
 16 15  1  0  0  0  0
 16  2  1  0  0  0  0
 16 11  1  0  0  0  0
 16 47  1  6  0  0  0
 17 13  1  0  0  0  0
 18 17  2  0  0  0  0
 18 48  1  0  0  0  0
 18 49  1  0  0  0  0
 19 17  1  0  0  0  0
 19 11  1  0  0  0  0
 19 50  1  0  0  0  0
 19 51  1  0  0  0  0
 20  6  1  0  0  0  0
 21 20  1  0  0  0  0
 22 20  2  0  0  0  0
M  END
>  <MOL Chiral Flag>
0

>  <energy>
215.19246022869581

$$$$
> 497_AKC_journal.pone.0051864
>481.sdf
 OpenBabel10062214293D

 70 72  0  0  0  0  0  0  0  0999 V2000
   -6.6683    0.7776   -2.1363 C   0  0  0  0  0  0  0  0  0  0  0  0
   -5.7804   -0.3655   -1.6483 C   0  0  0  0  0  0  0  0  0  0  0  0
   -5.0808   -0.0279   -0.3890 N   0  0  0  0  0  0  0  0  0  0  0  0
   -5.8229   -0.1033    0.8834 C   0  0  0  0  0  0  0  0  0  0  0  0
   -7.1633   -0.8601    0.8318 C   0  0  0  0  0  0  0  0  0  0  0  0
   -3.6277    0.1194   -0.3804 C   0  0  0  0  0  0  0  0  0  0  0  0
   -2.9132    0.2814   -1.5853 C   0  0  0  0  0  0  0  0  0  0  0  0
   -1.5336    0.2034   -1.6140 C   0  0  0  0  0  0  0  0  0  0  0  0
   -0.7921   -0.0306   -0.4490 C   0  0  0  0  0  0  0  0  0  0  0  0
   -1.4555   -0.0316    0.7830 C   0  0  0  0  0  0  0  0  0  0  0  0
   -2.8614    0.0409    0.8246 C   0  0  0  0  0  0  0  0  0  0  0  0
    0.6714   -0.3291   -0.5834 C   0  0  0  0  0  0  0  0  0  0  0  0
    1.0758   -1.2342   -1.5554 C   0  0  0  0  0  0  0  0  0  0  0  0
    0.0952   -2.1579   -2.2829 C   0  0  0  0  0  0  0  0  0  0  0  0
    0.5647   -3.6126   -2.1324 C   0  0  0  0  0  0  0  0  0  0  0  0
    1.9945   -3.7765   -2.6818 C   0  0  0  0  0  0  0  0  0  0  0  0
    2.4522   -5.2335   -2.5965 C   0  0  0  0  0  0  0  0  0  0  0  0
    2.9617   -2.8601   -1.9041 C   0  0  0  0  0  0  0  0  0  0  0  0
    2.5164   -1.4002   -2.0200 C   0  0  0  0  0  0  0  0  0  0  0  0
    1.6627    0.3832    0.2899 C   0  0  0  0  0  0  0  0  0  0  0  0
    2.7716   -0.2967    0.8015 C   0  0  0  0  0  0  0  0  0  0  0  0
    3.7399    0.3602    1.5471 C   0  0  0  0  0  0  0  0  0  0  0  0
    3.6494    1.7464    1.8414 C   0  0  0  0  0  0  0  0  0  0  0  0
    2.4812    2.4101    1.3629 C   0  0  0  0  0  0  0  0  0  0  0  0
    1.5074    1.7329    0.6104 C   0  0  0  0  0  0  0  0  0  0  0  0
    4.7423    2.3963    2.5872 N   0  0  0  0  0  0  0  0  0  0  0  0
    4.9776    3.8441    2.7781 C   0  0  0  0  0  0  0  0  0  0  0  0
    4.0183    4.8989    2.2503 C   0  0  0  0  0  0  0  0  0  0  0  0
    5.8029    1.5586    3.1671 C   0  0  0  0  0  0  0  0  0  0  0  0
    5.2911    0.7402    4.3562 C   0  0  0  0  0  0  0  0  0  0  0  0
   -7.4165    1.0791   -1.3800 H   0  0  0  0  0  0  0  0  0  0  0  0
   -7.2084    0.4497   -3.0510 H   0  0  0  0  0  0  0  0  0  0  0  0
   -6.0476    1.6618   -2.3890 H   0  0  0  0  0  0  0  0  0  0  0  0
   -5.1084   -0.6386   -2.4756 H   0  0  0  0  0  0  0  0  0  0  0  0
   -6.3634   -1.2978   -1.5325 H   0  0  0  0  0  0  0  0  0  0  0  0
   -5.2639   -0.7167    1.6130 H   0  0  0  0  0  0  0  0  0  0  0  0
   -5.9610    0.9201    1.2928 H   0  0  0  0  0  0  0  0  0  0  0  0
   -7.6112   -0.8942    1.8457 H   0  0  0  0  0  0  0  0  0  0  0  0
   -6.9885   -1.9135    0.5170 H   0  0  0  0  0  0  0  0  0  0  0  0
   -7.9027   -0.3948    0.1558 H   0  0  0  0  0  0  0  0  0  0  0  0
   -3.3963    0.4253   -2.5356 H   0  0  0  0  0  0  0  0  0  0  0  0
   -1.0330    0.2701   -2.5715 H   0  0  0  0  0  0  0  0  0  0  0  0
   -0.9022   -0.1746    1.7042 H   0  0  0  0  0  0  0  0  0  0  0  0
   -3.3209   -0.0347    1.7947 H   0  0  0  0  0  0  0  0  0  0  0  0
    0.0645   -1.8907   -3.3600 H   0  0  0  0  0  0  0  0  0  0  0  0
   -0.9363   -2.1447   -1.8819 H   0  0  0  0  0  0  0  0  0  0  0  0
    0.5371   -3.9050   -1.0573 H   0  0  0  0  0  0  0  0  0  0  0  0
   -0.1351   -4.2748   -2.6877 H   0  0  0  0  0  0  0  0  0  0  0  0
    1.9952   -3.4829   -3.7560 H   0  0  0  0  0  0  0  0  0  0  0  0
    2.4773   -5.5783   -1.5411 H   0  0  0  0  0  0  0  0  0  0  0  0
    3.4688   -5.3334   -3.0334 H   0  0  0  0  0  0  0  0  0  0  0  0
    1.7615   -5.8843   -3.1738 H   0  0  0  0  0  0  0  0  0  0  0  0
    2.9933   -3.1617   -0.8350 H   0  0  0  0  0  0  0  0  0  0  0  0
    3.9859   -2.9534   -2.3255 H   0  0  0  0  0  0  0  0  0  0  0  0
    3.2495   -0.7248   -1.5491 H   0  0  0  0  0  0  0  0  0  0  0  0
    2.5374   -1.1228   -3.0962 H   0  0  0  0  0  0  0  0  0  0  0  0
    2.8997   -1.3532    0.6172 H   0  0  0  0  0  0  0  0  0  0  0  0
    4.5708   -0.2441    1.8671 H   0  0  0  0  0  0  0  0  0  0  0  0
    2.2715    3.4320    1.5282 H   0  0  0  0  0  0  0  0  0  0  0  0
    0.6489    2.2813    0.2424 H   0  0  0  0  0  0  0  0  0  0  0  0
    5.9619    4.0811    2.3144 H   0  0  0  0  0  0  0  0  0  0  0  0
    5.0686    4.0352    3.8703 H   0  0  0  0  0  0  0  0  0  0  0  0
    4.4426    5.9014    2.4717 H   0  0  0  0  0  0  0  0  0  0  0  0
    3.9126    4.8288    1.1470 H   0  0  0  0  0  0  0  0  0  0  0  0
    3.0556    4.8611    2.8005 H   0  0  0  0  0  0  0  0  0  0  0  0
    6.6326    2.1832    3.5696 H   0  0  0  0  0  0  0  0  0  0  0  0
    6.2783    0.9264    2.3877 H   0  0  0  0  0  0  0  0  0  0  0  0
    4.9230    1.4274    5.1463 H   0  0  0  0  0  0  0  0  0  0  0  0
    6.1243    0.1344    4.7709 H   0  0  0  0  0  0  0  0  0  0  0  0
    4.4668    0.0530    4.0860 H   0  0  0  0  0  0  0  0  0  0  0  0
  1 31  1  0  0  0  0
  1 32  1  0  0  0  0
  1 33  1  0  0  0  0
  2  1  1  0  0  0  0
  2 34  1  0  0  0  0
  2 35  1  0  0  0  0
  3  2  1  0  0  0  0
  4  3  1  0  0  0  0
  4 36  1  0  0  0  0
  4 37  1  0  0  0  0
  5  4  1  0  0  0  0
  5 38  1  0  0  0  0
  5 39  1  0  0  0  0
  5 40  1  0  0  0  0
  6  3  1  0  0  0  0
  7  6  2  0  0  0  0
  7 41  1  0  0  0  0
  8  7  1  0  0  0  0
  8 42  1  0  0  0  0
  9  8  2  0  0  0  0
 10  9  1  0  0  0  0
 10 43  1  0  0  0  0
 11 10  2  0  0  0  0
 11  6  1  0  0  0  0
 11 44  1  0  0  0  0
 12  9  1  0  0  0  0
 13 12  2  0  0  0  0
 14 13  1  0  0  0  0
 14 45  1  0  0  0  0
 14 46  1  0  0  0  0
 15 14  1  0  0  0  0
 15 47  1  0  0  0  0
 15 48  1  0  0  0  0
 16 15  1  0  0  0  0
 16 49  1  0  0  0  0
 17 16  1  0  0  0  0
 17 50  1  0  0  0  0
 17 51  1  0  0  0  0
 17 52  1  0  0  0  0
 18 16  1  0  0  0  0
 18 53  1  0  0  0  0
 18 54  1  0  0  0  0
 19 18  1  0  0  0  0
 19 13  1  0  0  0  0
 19 55  1  0  0  0  0
 19 56  1  0  0  0  0
 20 12  1  0  0  0  0
 21 20  2  0  0  0  0
 21 57  1  0  0  0  0
 22 21  1  0  0  0  0
 22 58  1  0  0  0  0
 23 22  2  0  0  0  0
 24 23  1  0  0  0  0
 24 59  1  0  0  0  0
 25 24  2  0  0  0  0
 25 20  1  0  0  0  0
 25 60  1  0  0  0  0
 26 23  1  0  0  0  0
 27 26  1  0  0  0  0
 27 61  1  0  0  0  0
 27 62  1  0  0  0  0
 28 27  1  0  0  0  0
 28 63  1  0  0  0  0
 28 64  1  0  0  0  0
 28 65  1  0  0  0  0
 29 26  1  0  0  0  0
 29 66  1  0  0  0  0
 29 67  1  0  0  0  0
 30 29  1  0  0  0  0
 30 68  1  0  0  0  0
 30 69  1  0  0  0  0
 30 70  1  0  0  0  0
M  END
>  <MOL Chiral Flag>
0

>  <energy>
68.027251390559442

$$$$
> 498_AKC_journal.pone.0051864
>482.sdf
 OpenBabel10062214303D

 88 91  0  0  0  0  0  0  0  0999 V2000
   -3.3066   -7.2631   -2.4537 C   0  0  0  0  0  0  0  0  0  0  0  0
   -3.5486   -5.8884   -3.0820 C   0  0  0  0  0  0  0  0  0  0  0  0
   -3.8136   -4.8770   -2.0489 N   0  0  0  0  0  0  0  0  0  0  0  0
   -5.0637   -5.0199   -1.2963 C   0  0  0  0  0  0  0  0  0  0  0  0
   -4.8191   -5.4294    0.1603 C   0  0  0  0  0  0  0  0  0  0  0  0
   -2.9192   -3.7491   -1.8003 C   0  0  0  0  0  0  0  0  0  0  0  0
   -3.2630   -2.7399   -0.8639 C   0  0  0  0  0  0  0  0  0  0  0  0
   -2.4077   -1.6651   -0.6001 C   0  0  0  0  0  0  0  0  0  0  0  0
   -1.1754   -1.5438   -1.2631 C   0  0  0  0  0  0  0  0  0  0  0  0
   -0.8453   -2.5188   -2.2221 C   0  0  0  0  0  0  0  0  0  0  0  0
   -1.6841   -3.6010   -2.4793 C   0  0  0  0  0  0  0  0  0  0  0  0
   -0.2409   -0.3696   -1.0079 C   0  0  0  0  0  0  0  0  0  0  0  0
   -0.9119    0.9238   -0.6084 C   0  0  0  0  0  0  0  0  0  0  0  0
   -2.1354    1.3130   -1.1798 C   0  0  0  0  0  0  0  0  0  0  0  0
   -2.8120    2.4487   -0.7242 C   0  0  0  0  0  0  0  0  0  0  0  0
   -2.2897    3.2403    0.3258 C   0  0  0  0  0  0  0  0  0  0  0  0
   -1.0594    2.8406    0.8980 C   0  0  0  0  0  0  0  0  0  0  0  0
   -0.3921    1.6994    0.4449 C   0  0  0  0  0  0  0  0  0  0  0  0
   -3.0148    4.3981    0.8211 N   0  0  0  0  0  0  0  0  0  0  0  0
   -2.3484    5.4530    1.5895 C   0  0  0  0  0  0  0  0  0  0  0  0
   -2.8424    5.4864    3.0363 C   0  0  0  0  0  0  0  0  0  0  0  0
   -4.4434    4.5656    0.5425 C   0  0  0  0  0  0  0  0  0  0  0  0
   -5.2741    3.4758    1.2259 C   0  0  0  0  0  0  0  0  0  0  0  0
    1.1484   -0.5528   -1.0473 C   0  0  0  0  0  0  0  0  0  0  0  0
    1.6381   -1.9404   -0.7852 C   0  0  0  0  0  0  0  0  0  0  0  0
    2.9158   -2.2676   -0.7781 C   0  0  0  0  0  0  0  0  0  0  0  0
    3.9554   -1.2892   -1.1580 C   0  0  0  0  0  0  0  0  0  0  0  0
    3.6276    0.2078   -0.9777 C   0  0  0  0  0  0  0  0  0  0  0  0
    4.5848    1.3208   -0.7065 C   0  0  0  0  0  0  0  0  0  0  0  0
    4.0914    2.6325   -0.9634 C   0  0  0  0  0  0  0  0  0  0  0  0
    2.7968    2.8837   -1.3444 C   0  0  0  0  0  0  0  0  0  0  0  0
    1.8741    1.8724   -1.3855 C   0  0  0  0  0  0  0  0  0  0  0  0
    2.2247    0.5399   -1.1164 C   0  0  0  0  0  0  0  0  0  0  0  0
    5.9567    1.2432   -0.0954 N   0  3  0  0  0  0  0  0  0  0  0  0
    5.9856    2.1237    1.0991 C   0  0  0  0  0  0  0  0  0  0  0  0
    6.9679    1.7949   -1.0256 C   0  0  0  0  0  0  0  0  0  0  0  0
    6.3769   -0.1049    0.3733 C   0  0  0  0  0  0  0  0  0  0  0  0
    5.0117   -1.7516   -1.8133 N   0  3  0  0  0  0  0  0  0  0  0  0
    5.8854   -0.9025   -2.5986 C   0  0  0  0  0  0  0  0  0  0  0  0
    5.2784   -3.1886   -1.9161 C   0  0  0  0  0  0  0  0  0  0  0  0
   -2.4337   -7.2160   -1.7675 H   0  0  0  0  0  0  0  0  0  0  0  0
   -3.0938   -8.0084   -3.2485 H   0  0  0  0  0  0  0  0  0  0  0  0
   -4.1932   -7.6130   -1.8874 H   0  0  0  0  0  0  0  0  0  0  0  0
   -2.6783   -5.6800   -3.7138 H   0  0  0  0  0  0  0  0  0  0  0  0
   -4.4098   -5.9379   -3.7823 H   0  0  0  0  0  0  0  0  0  0  0  0
   -5.6956   -5.8206   -1.7404 H   0  0  0  0  0  0  0  0  0  0  0  0
   -5.6649   -4.0893   -1.3724 H   0  0  0  0  0  0  0  0  0  0  0  0
   -4.2893   -6.4031    0.1987 H   0  0  0  0  0  0  0  0  0  0  0  0
   -4.2164   -4.6940    0.7241 H   0  0  0  0  0  0  0  0  0  0  0  0
   -5.7971   -5.5426    0.6738 H   0  0  0  0  0  0  0  0  0  0  0  0
   -4.1937   -2.7649   -0.3221 H   0  0  0  0  0  0  0  0  0  0  0  0
   -2.7111   -0.9336    0.1372 H   0  0  0  0  0  0  0  0  0  0  0  0
    0.0752   -2.4412   -2.7873 H   0  0  0  0  0  0  0  0  0  0  0  0
   -1.3282   -4.2957   -3.2137 H   0  0  0  0  0  0  0  0  0  0  0  0
   -2.5771    0.7280   -1.9766 H   0  0  0  0  0  0  0  0  0  0  0  0
   -3.7488    2.6945   -1.1993 H   0  0  0  0  0  0  0  0  0  0  0  0
   -0.6186    3.3699    1.7269 H   0  0  0  0  0  0  0  0  0  0  0  0
    0.5229    1.4020    0.9414 H   0  0  0  0  0  0  0  0  0  0  0  0
   -2.5384    6.4340    1.1023 H   0  0  0  0  0  0  0  0  0  0  0  0
   -1.2497    5.3472    1.6028 H   0  0  0  0  0  0  0  0  0  0  0  0
   -2.3229    6.2981    3.5879 H   0  0  0  0  0  0  0  0  0  0  0  0
   -3.9338    5.6781    3.0885 H   0  0  0  0  0  0  0  0  0  0  0  0
   -2.6209    4.5183    3.5334 H   0  0  0  0  0  0  0  0  0  0  0  0
   -4.6301    4.5854   -0.5504 H   0  0  0  0  0  0  0  0  0  0  0  0
   -4.8074    5.5424    0.9301 H   0  0  0  0  0  0  0  0  0  0  0  0
   -5.0060    2.4643    0.8613 H   0  0  0  0  0  0  0  0  0  0  0  0
   -6.3519    3.6457    1.0205 H   0  0  0  0  0  0  0  0  0  0  0  0
   -5.1145    3.5090    2.3246 H   0  0  0  0  0  0  0  0  0  0  0  0
    0.9465   -2.7345   -0.5305 H   0  0  0  0  0  0  0  0  0  0  0  0
    3.1536   -3.3103   -0.5976 H   0  0  0  0  0  0  0  0  0  0  0  0
    4.7203    3.5014   -0.8642 H   0  0  0  0  0  0  0  0  0  0  0  0
    2.4846    3.9011   -1.5467 H   0  0  0  0  0  0  0  0  0  0  0  0
    0.8758    2.1574   -1.6497 H   0  0  0  0  0  0  0  0  0  0  0  0
    5.7898    3.1937    0.8956 H   0  0  0  0  0  0  0  0  0  0  0  0
    5.2383    1.7859    1.8527 H   0  0  0  0  0  0  0  0  0  0  0  0
    6.9880    2.1160    1.5881 H   0  0  0  0  0  0  0  0  0  0  0  0
    7.0948    1.2348   -1.9570 H   0  0  0  0  0  0  0  0  0  0  0  0
    6.7528    2.8419   -1.3238 H   0  0  0  0  0  0  0  0  0  0  0  0
    7.9765    1.8081   -0.5521 H   0  0  0  0  0  0  0  0  0  0  0  0
    5.6139   -0.8698    0.3870 H   0  0  0  0  0  0  0  0  0  0  0  0
    6.6626   -0.1264    1.4507 H   0  0  0  0  0  0  0  0  0  0  0  0
    7.2865   -0.4842   -0.1380 H   0  0  0  0  0  0  0  0  0  0  0  0
    5.5036    0.1222   -2.7052 H   0  0  0  0  0  0  0  0  0  0  0  0
    5.8854   -1.2700   -3.6472 H   0  0  0  0  0  0  0  0  0  0  0  0
    6.9319   -0.9765   -2.2451 H   0  0  0  0  0  0  0  0  0  0  0  0
    5.4488   -3.6177   -0.9047 H   0  0  0  0  0  0  0  0  0  0  0  0
    4.4389   -3.7117   -2.4231 H   0  0  0  0  0  0  0  0  0  0  0  0
    6.1919   -3.3978   -2.5146 H   0  0  0  0  0  0  0  0  0  0  0  0
  1 41  1  0  0  0  0
  1 42  1  0  0  0  0
  1 43  1  0  0  0  0
  2  1  1  0  0  0  0
  2 44  1  0  0  0  0
  2 45  1  0  0  0  0
  3  2  1  0  0  0  0
  4  3  1  0  0  0  0
  4 46  1  0  0  0  0
  4 47  1  0  0  0  0
  5  4  1  0  0  0  0
  5 48  1  0  0  0  0
  5 49  1  0  0  0  0
  5 50  1  0  0  0  0
  6  3  1  0  0  0  0
  7  6  2  0  0  0  0
  7 51  1  0  0  0  0
  8  7  1  0  0  0  0
  8 52  1  0  0  0  0
  9  8  2  0  0  0  0
 10  9  1  0  0  0  0
 10 53  1  0  0  0  0
 11 10  2  0  0  0  0
 11  6  1  0  0  0  0
 11 54  1  0  0  0  0
 12  9  1  0  0  0  0
 13 12  1  0  0  0  0
 14 13  2  0  0  0  0
 14 55  1  0  0  0  0
 15 14  1  0  0  0  0
 15 56  1  0  0  0  0
 16 15  2  0  0  0  0
 17 16  1  0  0  0  0
 17 57  1  0  0  0  0
 18 17  2  0  0  0  0
 18 13  1  0  0  0  0
 18 58  1  0  0  0  0
 19 16  1  0  0  0  0
 20 19  1  0  0  0  0
 20 59  1  0  0  0  0
 20 60  1  0  0  0  0
 21 20  1  0  0  0  0
 21 61  1  0  0  0  0
 21 62  1  0  0  0  0
 21 63  1  0  0  0  0
 22 19  1  0  0  0  0
 22 64  1  0  0  0  0
 22 65  1  0  0  0  0
 23 22  1  0  0  0  0
 23 66  1  0  0  0  0
 23 67  1  0  0  0  0
 23 68  1  0  0  0  0
 24 12  2  0  0  0  0
 25 24  1  0  0  0  0
 25 69  1  0  0  0  0
 26 25  2  0  0  0  0
 26 70  1  0  0  0  0
 27 26  1  0  0  0  0
 28 27  1  0  0  0  0
 29 28  2  0  0  0  0
 30 29  1  0  0  0  0
 30 71  1  0  0  0  0
 31 30  2  0  0  0  0
 31 72  1  0  0  0  0
 32 31  1  0  0  0  0
 32 73  1  0  0  0  0
 33 32  2  0  0  0  0
 33 24  1  0  0  0  0
 33 28  1  0  0  0  0
 34 29  1  0  0  0  0
 35 34  1  0  0  0  0
 35 74  1  0  0  0  0
 35 75  1  0  0  0  0
 35 76  1  0  0  0  0
 36 34  1  0  0  0  0
 36 77  1  0  0  0  0
 36 78  1  0  0  0  0
 36 79  1  0  0  0  0
 37 34  1  0  0  0  0
 37 80  1  0  0  0  0
 37 81  1  0  0  0  0
 37 82  1  0  0  0  0
 38 27  2  0  0  0  0
 39 38  1  0  0  0  0
 39 83  1  0  0  0  0
 39 84  1  0  0  0  0
 39 85  1  0  0  0  0
 40 38  1  0  0  0  0
 40 86  1  0  0  0  0
 40 87  1  0  0  0  0
 40 88  1  0  0  0  0
M  CHG  2  34   1  38   1
M  END
>  <MOL Chiral Flag>
0

>  <energy>
270.22793269023941

$$$$
> 499_AKC_1934578X1300801109
>483.sdf
 OpenBabel10062214313D

 74 78  0  0  0  0  0  0  0  0999 V2000
   -0.7612   -5.7197   -0.2886 C   0  0  0  0  0  0  0  0  0  0  0  0
   -1.6715   -5.3380    0.8903 C   0  0  0  0  0  0  0  0  0  0  0  0
   -1.0161   -5.7873    2.2042 C   0  0  0  0  0  0  0  0  0  0  0  0
   -1.9302   -3.8159    0.8657 C   0  0  0  0  0  0  0  0  0  0  0  0
   -3.0323   -3.3306    1.8273 C   0  0  0  0  0  0  0  0  0  0  0  0
   -3.3098   -1.7953    1.8723 C   0  0  0  0  0  0  0  0  0  0  0  0
   -3.6391   -1.1116    0.5055 C   0  0  1  0  0  0  0  0  0  0  0  0
   -4.5749    0.0807    0.7205 C   0  0  0  0  0  0  0  0  0  0  0  0
   -2.3470   -0.7449   -0.3107 C   0  0  1  0  0  0  0  0  0  0  0  0
   -2.4584   -0.8583   -1.8440 C   0  0  0  0  0  0  0  0  0  0  0  0
   -1.1258   -0.2665   -2.3903 C   0  0  0  0  0  0  0  0  0  0  0  0
   -0.3668    0.1822   -1.1304 C   0  0  2  0  0  0  0  0  0  0  0  0
   -1.4842    0.5552   -0.1276 C   0  0  1  0  0  0  0  0  0  0  0  0
   -2.2396    1.8666   -0.5395 C   0  0  0  0  0  0  0  0  0  0  0  0
   -0.8500    0.7271    1.2749 C   0  0  0  0  0  0  0  0  0  0  0  0
    0.2573    1.8065    1.2581 C   0  0  0  0  0  0  0  0  0  0  0  0
    1.3633    1.4580    0.2205 C   0  0  2  0  0  0  0  0  0  0  0  0
    2.5654    2.4919    0.1106 C   0  0  1  0  0  0  0  0  0  0  0  0
    2.1633    3.9263    0.5901 C   0  0  0  0  0  0  0  0  0  0  0  0
    3.7683    1.9864    0.9598 C   0  0  0  0  0  0  0  0  0  0  0  0
    5.0573    2.7776    0.6809 C   0  0  0  0  0  0  0  0  0  0  0  0
    5.4154    2.7034   -0.8166 C   0  0  2  0  0  0  0  0  0  0  0  0
    6.5878    3.4322   -1.0660 O   0  0  0  0  0  0  0  0  0  0  0  0
    4.2709    3.2746   -1.6769 C   0  0  0  0  0  0  0  0  0  0  0  0
    2.9568    2.5082   -1.4147 C   0  0  1  0  0  0  0  0  0  0  0  0
    3.0933    1.1398   -1.8216 O   0  0  0  0  0  0  0  0  0  0  0  0
    1.9019    0.4887   -1.9316 O   0  0  0  0  0  0  0  0  0  0  0  0
    0.8347    1.1430   -1.2328 C   0  0  1  0  0  0  0  0  0  0  0  0
    0.6373    2.4096   -2.0259 C   0  0  0  0  0  0  0  0  0  0  0  0
    1.7715    3.1016   -2.1736 C   0  0  0  0  0  0  0  0  0  0  0  0
   -1.2416   -5.4409   -1.2518 H   0  0  0  0  0  0  0  0  0  0  0  0
   -0.5854   -6.8164   -0.3042 H   0  0  0  0  0  0  0  0  0  0  0  0
    0.2186   -5.1996   -0.2195 H   0  0  0  0  0  0  0  0  0  0  0  0
   -2.6357   -5.8763    0.7564 H   0  0  0  0  0  0  0  0  0  0  0  0
   -1.6693   -5.5788    3.0738 H   0  0  0  0  0  0  0  0  0  0  0  0
   -0.8285   -6.8820    2.1803 H   0  0  0  0  0  0  0  0  0  0  0  0
   -0.0441   -5.2672    2.3502 H   0  0  0  0  0  0  0  0  0  0  0  0
   -0.9722   -3.2922    1.0791 H   0  0  0  0  0  0  0  0  0  0  0  0
   -2.2835   -3.5815   -0.1613 H   0  0  0  0  0  0  0  0  0  0  0  0
   -2.7907   -3.6385    2.8650 H   0  0  0  0  0  0  0  0  0  0  0  0
   -3.9730   -3.8454    1.5313 H   0  0  0  0  0  0  0  0  0  0  0  0
   -2.4886   -1.2505    2.3797 H   0  0  0  0  0  0  0  0  0  0  0  0
   -4.1981   -1.7168    2.5380 H   0  0  0  0  0  0  0  0  0  0  0  0
   -4.2245   -1.8616   -0.0715 H   0  0  0  0  0  0  0  0  0  0  0  0
   -4.8315    0.5611   -0.2466 H   0  0  0  0  0  0  0  0  0  0  0  0
   -5.5220   -0.2617    1.1898 H   0  0  0  0  0  0  0  0  0  0  0  0
   -4.1211    0.8088    1.4217 H   0  0  0  0  0  0  0  0  0  0  0  0
   -1.6672   -1.5611   -0.0627 H   0  0  0  0  0  0  0  0  0  0  0  0
   -3.3068   -0.2391   -2.2054 H   0  0  0  0  0  0  0  0  0  0  0  0
   -2.6383   -1.9047   -2.1729 H   0  0  0  0  0  0  0  0  0  0  0  0
   -0.5253   -0.9813   -2.9926 H   0  0  0  0  0  0  0  0  0  0  0  0
   -1.3789    0.6081   -3.0256 H   0  0  0  0  0  0  0  0  0  0  0  0
    0.1173   -0.7435   -0.7287 H   0  0  0  0  0  0  0  0  0  0  0  0
   -3.0137    2.1530    0.1893 H   0  0  0  0  0  0  0  0  0  0  0  0
   -1.5720    2.7420   -0.5948 H   0  0  0  0  0  0  0  0  0  0  0  0
   -2.7234    1.8026   -1.5319 H   0  0  0  0  0  0  0  0  0  0  0  0
   -1.6283    0.9916    2.0225 H   0  0  0  0  0  0  0  0  0  0  0  0
   -0.3839   -0.2311    1.5935 H   0  0  0  0  0  0  0  0  0  0  0  0
    0.7088    1.8737    2.2711 H   0  0  0  0  0  0  0  0  0  0  0  0
   -0.1939    2.7919    1.0404 H   0  0  0  0  0  0  0  0  0  0  0  0
    1.7653    0.4744    0.5578 H   0  0  0  0  0  0  0  0  0  0  0  0
    1.9160    3.9238    1.6719 H   0  0  0  0  0  0  0  0  0  0  0  0
    2.9706    4.6687    0.4499 H   0  0  0  0  0  0  0  0  0  0  0  0
    1.2785    4.3155    0.0453 H   0  0  0  0  0  0  0  0  0  0  0  0
    3.9856    0.9258    0.7035 H   0  0  0  0  0  0  0  0  0  0  0  0
    3.5184    2.0226    2.0428 H   0  0  0  0  0  0  0  0  0  0  0  0
    4.9466    3.8362    0.9936 H   0  0  0  0  0  0  0  0  0  0  0  0
    5.8834    2.3419    1.2835 H   0  0  0  0  0  0  0  0  0  0  0  0
    5.5711    1.6379   -1.1103 H   0  0  0  0  0  0  0  0  0  0  0  0
    7.3439    2.8786   -0.7367 H   0  0  0  0  0  0  0  0  0  0  0  0
    4.1435    4.3523   -1.4433 H   0  0  0  0  0  0  0  0  0  0  0  0
    4.5373    3.1946   -2.7535 H   0  0  0  0  0  0  0  0  0  0  0  0
   -0.2889    2.7034   -2.5060 H   0  0  0  0  0  0  0  0  0  0  0  0
    1.8291    4.0075   -2.7683 H   0  0  0  0  0  0  0  0  0  0  0  0
  1 31  1  0  0  0  0
  1 32  1  0  0  0  0
  1 33  1  0  0  0  0
  2  1  1  0  0  0  0
  2 34  1  0  0  0  0
  3  2  1  0  0  0  0
  3 35  1  0  0  0  0
  3 36  1  0  0  0  0
  3 37  1  0  0  0  0
  4  2  1  0  0  0  0
  4 38  1  0  0  0  0
  4 39  1  0  0  0  0
  5  4  1  0  0  0  0
  5 40  1  0  0  0  0
  5 41  1  0  0  0  0
  6  5  1  0  0  0  0
  6 42  1  0  0  0  0
  6 43  1  0  0  0  0
  7  6  1  0  0  0  0
  7 44  1  6  0  0  0
  8  7  1  0  0  0  0
  8 45  1  0  0  0  0
  8 46  1  0  0  0  0
  8 47  1  0  0  0  0
  9  7  1  0  0  0  0
  9 48  1  1  0  0  0
 10  9  1  0  0  0  0
 10 49  1  0  0  0  0
 10 50  1  0  0  0  0
 11 10  1  0  0  0  0
 11 51  1  0  0  0  0
 11 52  1  0  0  0  0
 12 11  1  0  0  0  0
 12 53  1  1  0  0  0
 13 12  1  0  0  0  0
 13  9  1  0  0  0  0
 13 14  1  6  0  0  0
 14 54  1  0  0  0  0
 14 55  1  0  0  0  0
 14 56  1  0  0  0  0
 15 13  1  0  0  0  0
 15 57  1  0  0  0  0
 15 58  1  0  0  0  0
 16 15  1  0  0  0  0
 16 59  1  0  0  0  0
 16 60  1  0  0  0  0
 17 16  1  0  0  0  0
 17 61  1  1  0  0  0
 18 17  1  0  0  0  0
 18 19  1  1  0  0  0
 19 62  1  0  0  0  0
 19 63  1  0  0  0  0
 19 64  1  0  0  0  0
 20 18  1  0  0  0  0
 20 65  1  0  0  0  0
 20 66  1  0  0  0  0
 21 20  1  0  0  0  0
 21 67  1  0  0  0  0
 21 68  1  0  0  0  0
 22 21  1  0  0  0  0
 22 69  1  6  0  0  0
 23 22  1  0  0  0  0
 23 70  1  0  0  0  0
 24 22  1  0  0  0  0
 24 71  1  0  0  0  0
 24 72  1  0  0  0  0
 25 24  1  6  0  0  0
 25 18  1  0  0  0  0
 26 25  1  0  0  0  0
 27 26  1  0  0  0  0
 28 27  1  6  0  0  0
 28 12  1  0  0  0  0
 28 17  1  0  0  0  0
 29 28  1  0  0  0  0
 29 73  1  0  0  0  0
 30 29  2  0  0  0  0
 30 25  1  0  0  0  0
 30 74  1  0  0  0  0
M  END
>  <MOL Chiral Flag>
0

>  <energy>
168.70231668083937

$$$$
> 500_AKC_journal.pntd.0002494
>484.sdf
 OpenBabel10102215493D

 40 42  0  0  0  0  0  0  0  0999 V2000
    1.6615    2.1723    1.0179 C   0  0  0  0  0  0  0  0  0  0  0  0
    0.9011    0.8510    1.2718 C   0  0  1  0  0  0  0  0  0  0  0  0
   -0.5598    1.2250    1.6027 C   0  0  0  0  0  0  0  0  0  0  0  0
   -1.3937    0.1087    2.2320 C   0  0  0  0  0  0  0  0  0  0  0  0
   -2.0193   -0.9064    1.2649 C   0  0  2  0  0  0  0  0  0  0  0  0
   -1.0623   -1.7691    0.3567 C   0  0  1  0  0  0  0  0  0  0  0  0
   -1.4674   -1.5566   -0.9567 O   0  0  0  0  0  0  0  0  0  0  0  0
   -2.4888   -0.7060   -1.0461 C   0  0  0  0  0  0  0  0  0  0  0  0
   -3.0007   -0.3854   -2.1071 O   0  0  0  0  0  0  0  0  0  0  0  0
   -2.9212   -0.2768    0.2460 C   0  0  0  0  0  0  0  0  0  0  0  0
   -3.9691    0.5209    0.4923 C   0  0  0  0  0  0  0  0  0  0  0  0
    0.4904   -1.6467    0.5074 C   0  0  2  0  0  0  0  0  0  0  0  0
    1.0961   -2.7758   -0.3868 C   0  0  0  0  0  0  0  0  0  0  0  0
    0.8124   -1.9691    1.8420 O   0  0  0  0  0  0  0  0  0  0  0  0
    1.1187   -0.2246    0.1349 C   0  0  1  0  0  0  0  0  0  0  0  0
    0.7108    0.2935   -1.2882 C   0  0  0  0  0  0  0  0  0  0  0  0
    1.9737    0.8952   -1.9115 C   0  0  0  0  0  0  0  0  0  0  0  0
    2.9825    0.1686   -1.1136 C   0  0  0  0  0  0  0  0  0  0  0  0
    4.1822    0.2398   -1.3241 O   0  0  0  0  0  0  0  0  0  0  0  0
    2.4871   -0.3926    0.0011 O   0  0  0  0  0  0  0  0  0  0  0  0
    1.5835    2.8398    1.9030 H   0  0  0  0  0  0  0  0  0  0  0  0
    1.2303    2.7220    0.1578 H   0  0  0  0  0  0  0  0  0  0  0  0
    2.7445    1.9962    0.8576 H   0  0  0  0  0  0  0  0  0  0  0  0
    1.3525    0.4403    2.2020 H   0  0  0  0  0  0  0  0  0  0  0  0
   -0.5008    1.9997    2.4008 H   0  0  0  0  0  0  0  0  0  0  0  0
   -1.0845    1.6943    0.7436 H   0  0  0  0  0  0  0  0  0  0  0  0
   -0.8122   -0.3990    3.0304 H   0  0  0  0  0  0  0  0  0  0  0  0
   -2.2494    0.5973    2.7474 H   0  0  0  0  0  0  0  0  0  0  0  0
   -2.6442   -1.5914    1.8821 H   0  0  0  0  0  0  0  0  0  0  0  0
   -1.3168   -2.8282    0.5936 H   0  0  0  0  0  0  0  0  0  0  0  0
   -4.5667    0.9142   -0.3241 H   0  0  0  0  0  0  0  0  0  0  0  0
   -4.2380    0.7822    1.5099 H   0  0  0  0  0  0  0  0  0  0  0  0
    2.2014   -2.8196   -0.2924 H   0  0  0  0  0  0  0  0  0  0  0  0
    0.7136   -3.7687   -0.0657 H   0  0  0  0  0  0  0  0  0  0  0  0
    0.8495   -2.6675   -1.4606 H   0  0  0  0  0  0  0  0  0  0  0  0
    1.8013   -2.0054    1.9279 H   0  0  0  0  0  0  0  0  0  0  0  0
    0.5566   -0.5967   -1.9257 H   0  0  0  0  0  0  0  0  0  0  0  0
   -0.2201    0.8887   -1.3810 H   0  0  0  0  0  0  0  0  0  0  0  0
    2.1058    1.9779   -1.7235 H   0  0  0  0  0  0  0  0  0  0  0  0
    2.0126    0.6982   -3.0054 H   0  0  0  0  0  0  0  0  0  0  0  0
  1 21  1  0  0  0  0
  1 22  1  0  0  0  0
  1 23  1  0  0  0  0
  2  1  1  0  0  0  0
  2 24  1  1  0  0  0
  3  2  1  0  0  0  0
  3 25  1  0  0  0  0
  3 26  1  0  0  0  0
  4  3  1  0  0  0  0
  4 27  1  0  0  0  0
  4 28  1  0  0  0  0
  5  4  1  0  0  0  0
  5 29  1  1  0  0  0
  6  5  1  0  0  0  0
  6 30  1  1  0  0  0
  7  6  1  0  0  0  0
  8  7  1  0  0  0  0
  9  8  2  0  0  0  0
 10  8  1  0  0  0  0
 10  5  1  0  0  0  0
 11 10  2  0  0  0  0
 11 31  1  0  0  0  0
 11 32  1  0  0  0  0
 12  6  1  0  0  0  0
 12 13  1  6  0  0  0
 13 33  1  0  0  0  0
 13 34  1  0  0  0  0
 13 35  1  0  0  0  0
 14 12  1  0  0  0  0
 14 36  1  0  0  0  0
 15 12  1  0  0  0  0
 15  2  1  0  0  0  0
 15 16  1  6  0  0  0
 16 37  1  0  0  0  0
 16 38  1  0  0  0  0
 17 16  1  0  0  0  0
 17 39  1  0  0  0  0
 17 40  1  0  0  0  0
 18 17  1  0  0  0  0
 19 18  2  0  0  0  0
 20 18  1  0  0  0  0
 20 15  1  0  0  0  0
M  END
>  <MOL Chiral Flag>
0

>  <energy>
75.906671681938093

$$$$
> 501_AKC_journal.pntd.0002494
>485.sdf
 OpenBabel10102215523D

 41 43  0  0  0  0  0  0  0  0999 V2000
    0.8187   -3.2086   -0.7731 C   0  0  0  0  0  0  0  0  0  0  0  0
    0.9134   -1.8228   -0.0953 C   0  0  1  0  0  0  0  0  0  0  0  0
    2.1097   -1.0685   -0.7351 C   0  0  0  0  0  0  0  0  0  0  0  0
    2.6045    0.0626    0.1581 C   0  0  2  0  0  0  0  0  0  0  0  0
    1.7320    1.3432    0.2090 C   0  0  1  0  0  0  0  0  0  0  0  0
    0.4600    1.1416    1.0467 C   0  0  0  0  0  0  0  0  0  0  0  0
   -0.6969    0.4031    0.2934 C   0  0  1  0  0  0  0  0  0  0  0  0
   -0.4790   -1.1058   -0.1594 C   0  0  2  0  0  0  0  0  0  0  0  0
   -1.5453   -1.9004    0.6366 C   0  0  0  0  0  0  0  0  0  0  0  0
   -2.6942   -0.9278    0.8286 C   0  0  1  0  0  0  0  0  0  0  0  0
   -1.9132    0.3077    1.2684 C   0  0  2  0  0  0  0  0  0  0  0  0
   -2.7138    1.4609    1.3248 O   0  0  0  0  0  0  0  0  0  0  0  0
   -3.3656   -0.7384   -0.3894 O   0  0  0  0  0  0  0  0  0  0  0  0
   -1.1013    1.2458   -0.9630 C   0  0  0  0  0  0  0  0  0  0  0  0
    2.7664    2.3190    0.6862 C   0  0  0  0  0  0  0  0  0  0  0  0
    2.5586    3.5524    1.1629 C   0  0  0  0  0  0  0  0  0  0  0  0
    4.0481    1.7327    0.3833 C   0  0  0  0  0  0  0  0  0  0  0  0
    5.1303    2.2897    0.4785 O   0  0  0  0  0  0  0  0  0  0  0  0
    3.8909    0.4992   -0.1083 O   0  0  0  0  0  0  0  0  0  0  0  0
    1.7851   -3.7509   -0.6919 H   0  0  0  0  0  0  0  0  0  0  0  0
    0.5646   -3.1016   -1.8496 H   0  0  0  0  0  0  0  0  0  0  0  0
    0.0641   -3.8571   -0.2869 H   0  0  0  0  0  0  0  0  0  0  0  0
    1.1709   -2.0111    0.9708 H   0  0  0  0  0  0  0  0  0  0  0  0
    2.9649   -1.7804   -0.7615 H   0  0  0  0  0  0  0  0  0  0  0  0
    1.9122   -0.7418   -1.7787 H   0  0  0  0  0  0  0  0  0  0  0  0
    2.6838   -0.3458    1.1954 H   0  0  0  0  0  0  0  0  0  0  0  0
    1.5011    1.7305   -0.8003 H   0  0  0  0  0  0  0  0  0  0  0  0
    0.0686    2.1486    1.3028 H   0  0  0  0  0  0  0  0  0  0  0  0
    0.7149    0.6422    2.0070 H   0  0  0  0  0  0  0  0  0  0  0  0
   -0.8113   -1.1587   -1.2218 H   0  0  0  0  0  0  0  0  0  0  0  0
   -1.1347   -2.1323    1.6471 H   0  0  0  0  0  0  0  0  0  0  0  0
   -1.8641   -2.8561    0.1710 H   0  0  0  0  0  0  0  0  0  0  0  0
   -3.4190   -1.2922    1.5926 H   0  0  0  0  0  0  0  0  0  0  0  0
   -1.5491    0.0531    2.2960 H   0  0  0  0  0  0  0  0  0  0  0  0
   -2.2583    2.0958    1.9360 H   0  0  0  0  0  0  0  0  0  0  0  0
   -4.1551   -0.1702   -0.1922 H   0  0  0  0  0  0  0  0  0  0  0  0
   -2.0085    0.8630   -1.4653 H   0  0  0  0  0  0  0  0  0  0  0  0
   -1.3023    2.3030   -0.6871 H   0  0  0  0  0  0  0  0  0  0  0  0
   -0.3182    1.2275   -1.7451 H   0  0  0  0  0  0  0  0  0  0  0  0
    1.5523    3.9326    1.2971 H   0  0  0  0  0  0  0  0  0  0  0  0
    3.3980    4.1909    1.4193 H   0  0  0  0  0  0  0  0  0  0  0  0
  1 20  1  0  0  0  0
  1 21  1  0  0  0  0
  1 22  1  0  0  0  0
  2  1  1  0  0  0  0
  2 23  1  1  0  0  0
  3  2  1  0  0  0  0
  3 24  1  0  0  0  0
  3 25  1  0  0  0  0
  4  3  1  0  0  0  0
  4 26  1  1  0  0  0
  5  4  1  0  0  0  0
  5 27  1  6  0  0  0
  6  5  1  0  0  0  0
  6 28  1  0  0  0  0
  6 29  1  0  0  0  0
  7  6  1  0  0  0  0
  7 14  1  6  0  0  0
  8  7  1  0  0  0  0
  8  2  1  0  0  0  0
  8 30  1  6  0  0  0
  9  8  1  0  0  0  0
  9 31  1  0  0  0  0
  9 32  1  0  0  0  0
 10  9  1  0  0  0  0
 10 33  1  1  0  0  0
 11 10  1  0  0  0  0
 11  7  1  0  0  0  0
 11 34  1  1  0  0  0
 12 11  1  0  0  0  0
 12 35  1  0  0  0  0
 13 10  1  0  0  0  0
 13 36  1  0  0  0  0
 14 37  1  0  0  0  0
 14 38  1  0  0  0  0
 14 39  1  0  0  0  0
 15  5  1  0  0  0  0
 16 15  2  0  0  0  0
 16 40  1  0  0  0  0
 16 41  1  0  0  0  0
 17 15  1  0  0  0  0
 18 17  2  0  0  0  0
 19 17  1  0  0  0  0
 19  4  1  0  0  0  0
M  END
>  <MOL Chiral Flag>
0

>  <energy>
87.759285694580697

$$$$
> 502_AKC_S0717-97072013000200014
>486.sdf
 OpenBabel10062214323D

 67 70  0  0  0  0  0  0  0  0999 V2000
    9.0622   -3.8988   -3.1809 C   0  0  0  0  0  0  0  0  0  0  0  0
    8.3681   -5.2099   -2.9788 C   0  0  0  0  0  0  0  0  0  0  0  0
    7.0433   -5.2159   -2.6748 N   0  0  0  0  0  0  0  0  0  0  0  0
    6.3567   -6.3692   -2.4459 C   0  0  0  0  0  0  0  0  0  0  0  0
    4.9958   -6.3105   -2.1052 C   0  0  0  0  0  0  0  0  0  0  0  0
    4.4118   -5.0869   -2.0782 O   0  0  0  0  0  0  0  0  0  0  0  0
    3.5801   -4.5114   -1.1355 C   0  0  0  0  0  0  0  0  0  0  0  0
    2.0901   -4.9237   -1.1522 C   0  0  0  0  0  0  0  0  0  0  0  0
    1.3021   -3.8201   -0.4068 C   0  0  0  0  0  0  0  0  0  0  0  0
   -0.2173   -4.0226   -0.2356 C   0  0  0  0  0  0  0  0  0  0  0  0
   -0.8152   -2.7109    0.3332 C   0  0  0  0  0  0  0  0  0  0  0  0
   -2.3114   -2.7564    0.7064 C   0  0  0  0  0  0  0  0  0  0  0  0
   -2.7701   -1.3553    1.1822 C   0  0  0  0  0  0  0  0  0  0  0  0
   -4.2274   -1.2980    1.6875 C   0  0  0  0  0  0  0  0  0  0  0  0
   -4.6049    0.1455    2.0822 C   0  0  0  0  0  0  0  0  0  0  0  0
   -5.8984    0.2216    2.5799 O   0  0  0  0  0  0  0  0  0  0  0  0
   -6.9732    0.8446    2.0107 C   0  0  0  0  0  0  0  0  0  0  0  0
   -8.0525    1.2151    2.8299 C   0  0  0  0  0  0  0  0  0  0  0  0
   -7.9639    1.0379    4.1750 N   0  0  0  0  0  0  0  0  0  0  0  0
   -8.9508    1.4288    5.0216 C   0  0  0  0  0  0  0  0  0  0  0  0
   -8.7180    1.3266    6.4952 C   0  0  0  0  0  0  0  0  0  0  0  0
  -10.1380    1.9765    4.5103 C   0  0  0  0  0  0  0  0  0  0  0  0
  -10.2677    2.1648    3.1296 C   0  0  0  0  0  0  0  0  0  0  0  0
   -9.2076    1.8145    2.2797 C   0  0  0  0  0  0  0  0  0  0  0  0
   -9.2674    2.0679    0.9024 C   0  0  0  0  0  0  0  0  0  0  0  0
   -8.1804    1.7392    0.0876 C   0  0  0  0  0  0  0  0  0  0  0  0
   -7.0440    1.1253    0.6289 C   0  0  0  0  0  0  0  0  0  0  0  0
    4.3008   -7.5014   -1.8341 C   0  0  0  0  0  0  0  0  0  0  0  0
    4.9639   -8.7356   -1.9233 C   0  0  0  0  0  0  0  0  0  0  0  0
    6.3194   -8.7916   -2.2711 C   0  0  0  0  0  0  0  0  0  0  0  0
    7.0240   -7.6085   -2.5267 C   0  0  0  0  0  0  0  0  0  0  0  0
    8.3871   -7.6264   -2.8583 C   0  0  0  0  0  0  0  0  0  0  0  0
    9.0634   -6.4234   -3.0824 C   0  0  0  0  0  0  0  0  0  0  0  0
    8.9767   -3.2946   -2.2523 H   0  0  0  0  0  0  0  0  0  0  0  0
   10.1395   -4.0328   -3.4143 H   0  0  0  0  0  0  0  0  0  0  0  0
    8.5805   -3.3462   -4.0140 H   0  0  0  0  0  0  0  0  0  0  0  0
    4.0173   -4.5996   -0.1170 H   0  0  0  0  0  0  0  0  0  0  0  0
    3.6158   -3.4324   -1.3959 H   0  0  0  0  0  0  0  0  0  0  0  0
    1.7172   -4.9695   -2.1980 H   0  0  0  0  0  0  0  0  0  0  0  0
    1.9556   -5.9125   -0.6677 H   0  0  0  0  0  0  0  0  0  0  0  0
    1.7416   -3.6805    0.6060 H   0  0  0  0  0  0  0  0  0  0  0  0
    1.4521   -2.8812   -0.9859 H   0  0  0  0  0  0  0  0  0  0  0  0
   -0.6951   -4.2455   -1.2143 H   0  0  0  0  0  0  0  0  0  0  0  0
   -0.3931   -4.8752    0.4556 H   0  0  0  0  0  0  0  0  0  0  0  0
   -0.6618   -1.9133   -0.4285 H   0  0  0  0  0  0  0  0  0  0  0  0
   -0.2522   -2.4299    1.2503 H   0  0  0  0  0  0  0  0  0  0  0  0
   -2.4527   -3.4990    1.5208 H   0  0  0  0  0  0  0  0  0  0  0  0
   -2.9185   -3.0639   -0.1726 H   0  0  0  0  0  0  0  0  0  0  0  0
   -2.1067   -1.0169    2.0085 H   0  0  0  0  0  0  0  0  0  0  0  0
   -2.6580   -0.6465    0.3316 H   0  0  0  0  0  0  0  0  0  0  0  0
   -4.9159   -1.6453    0.8883 H   0  0  0  0  0  0  0  0  0  0  0  0
   -4.3368   -1.9660    2.5705 H   0  0  0  0  0  0  0  0  0  0  0  0
   -4.4572    0.8242    1.2196 H   0  0  0  0  0  0  0  0  0  0  0  0
   -3.9210    0.4990    2.8837 H   0  0  0  0  0  0  0  0  0  0  0  0
   -8.7343    2.3487    6.9322 H   0  0  0  0  0  0  0  0  0  0  0  0
   -7.7102    0.8969    6.6837 H   0  0  0  0  0  0  0  0  0  0  0  0
   -9.4811    0.6947    6.9904 H   0  0  0  0  0  0  0  0  0  0  0  0
  -10.9387    2.2832    5.1737 H   0  0  0  0  0  0  0  0  0  0  0  0
  -11.1739    2.6103    2.7326 H   0  0  0  0  0  0  0  0  0  0  0  0
  -10.1402    2.5394    0.4645 H   0  0  0  0  0  0  0  0  0  0  0  0
   -8.2190    1.9578   -0.9720 H   0  0  0  0  0  0  0  0  0  0  0  0
   -6.2328    0.8685   -0.0347 H   0  0  0  0  0  0  0  0  0  0  0  0
    3.2541   -7.4874   -1.5793 H   0  0  0  0  0  0  0  0  0  0  0  0
    4.4251   -9.6535   -1.7267 H   0  0  0  0  0  0  0  0  0  0  0  0
    6.8177   -9.7524   -2.3349 H   0  0  0  0  0  0  0  0  0  0  0  0
    8.9271   -8.5629   -2.9320 H   0  0  0  0  0  0  0  0  0  0  0  0
   10.1189   -6.4358   -3.3254 H   0  0  0  0  0  0  0  0  0  0  0  0
  1 34  1  0  0  0  0
  1 35  1  0  0  0  0
  1 36  1  0  0  0  0
  2  1  1  0  0  0  0
  3  2  2  0  0  0  0
  4  3  1  0  0  0  0
  5  4  2  0  0  0  0
  6  5  1  0  0  0  0
  7  6  1  0  0  0  0
  7 37  1  0  0  0  0
  7 38  1  0  0  0  0
  8  7  1  0  0  0  0
  8 39  1  0  0  0  0
  8 40  1  0  0  0  0
  9  8  1  0  0  0  0
  9 41  1  0  0  0  0
  9 42  1  0  0  0  0
 10  9  1  0  0  0  0
 10 43  1  0  0  0  0
 10 44  1  0  0  0  0
 11 10  1  0  0  0  0
 11 45  1  0  0  0  0
 11 46  1  0  0  0  0
 12 11  1  0  0  0  0
 12 47  1  0  0  0  0
 12 48  1  0  0  0  0
 13 12  1  0  0  0  0
 13 49  1  0  0  0  0
 13 50  1  0  0  0  0
 14 13  1  0  0  0  0
 14 51  1  0  0  0  0
 14 52  1  0  0  0  0
 15 14  1  0  0  0  0
 15 53  1  0  0  0  0
 15 54  1  0  0  0  0
 16 15  1  0  0  0  0
 17 16  1  0  0  0  0
 18 17  2  0  0  0  0
 19 18  1  0  0  0  0
 20 19  2  0  0  0  0
 21 20  1  0  0  0  0
 21 55  1  0  0  0  0
 21 56  1  0  0  0  0
 21 57  1  0  0  0  0
 22 20  1  0  0  0  0
 22 58  1  0  0  0  0
 23 22  2  0  0  0  0
 23 59  1  0  0  0  0
 24 23  1  0  0  0  0
 24 18  1  0  0  0  0
 25 24  2  0  0  0  0
 25 60  1  0  0  0  0
 26 25  1  0  0  0  0
 26 61  1  0  0  0  0
 27 26  2  0  0  0  0
 27 17  1  0  0  0  0
 27 62  1  0  0  0  0
 28  5  1  0  0  0  0
 28 63  1  0  0  0  0
 29 28  2  0  0  0  0
 29 64  1  0  0  0  0
 30 29  1  0  0  0  0
 30 65  1  0  0  0  0
 31 30  2  0  0  0  0
 31  4  1  0  0  0  0
 32 31  1  0  0  0  0
 32 66  1  0  0  0  0
 33 32  2  0  0  0  0
 33  2  1  0  0  0  0
 33 67  1  0  0  0  0
M  END
>  <MOL Chiral Flag>
0

>  <energy>
139.73005841370355

$$$$
> 503_AKC_0103-5053.20130166
>487.sdf
 OpenBabel10062214333D

 68 69  0  0  0  0  0  0  0  0999 V2000
   -4.4702   -1.2351   -1.5165 C   0  0  0  0  0  0  0  0  0  0  0  0
   -3.1869   -2.0236   -1.5012 C   0  0  0  0  0  0  0  0  0  0  0  0
   -2.9199   -3.0446   -2.6148 C   0  0  0  0  0  0  0  0  0  0  0  0
   -2.8274   -4.5264   -2.1696 C   0  0  0  0  0  0  0  0  0  0  0  0
   -3.9196   -5.4044   -2.7630 C   0  0  0  0  0  0  0  0  0  0  0  0
   -4.0301   -5.7330   -4.0822 C   0  0  0  0  0  0  0  0  0  0  0  0
   -3.0426   -5.2646   -5.1316 C   0  0  0  0  0  0  0  0  0  0  0  0
   -5.1467   -6.6132   -4.5361 C   0  0  0  0  0  0  0  0  0  0  0  0
   -6.0460   -7.0961   -3.6559 O   0  0  0  0  0  0  0  0  0  0  0  0
   -5.2534   -6.9080   -5.7171 O   0  0  0  0  0  0  0  0  0  0  0  0
   -2.2326   -1.7874   -0.5648 C   0  0  0  0  0  0  0  0  0  0  0  0
   -2.2963   -0.6916    0.5159 C   0  0  0  0  0  0  0  0  0  0  0  0
   -0.9463   -0.6885    1.2663 C   0  0  0  0  0  0  0  0  0  0  0  0
   -0.5895    0.3466    2.3477 C   0  0  0  0  0  0  0  0  0  0  0  0
   -1.4393    0.4378    3.5953 C   0  0  0  0  0  0  0  0  0  0  0  0
    0.6006    1.0144    2.2275 C   0  0  0  0  0  0  0  0  0  0  0  0
    1.3837    1.5579    3.4161 C   0  0  0  0  0  0  0  0  0  0  0  0
    1.3902    3.0045    4.0207 C   0  0  0  0  0  0  0  0  0  0  0  0
    2.2512    3.0308    5.3688 C   0  0  2  0  0  0  0  0  0  0  0  0
    3.6124    2.3302    5.1601 C   0  0  0  0  0  0  0  0  0  0  0  0
    1.4482    2.2888    6.5081 C   0  0  0  0  0  0  0  0  0  0  0  0
    0.4585    3.2699    7.1448 C   0  0  0  0  0  0  0  0  0  0  0  0
    1.3208    4.2999    7.7980 C   0  0  0  0  0  0  0  0  0  0  0  0
    2.3956    4.8046    7.0516 C   0  0  0  0  0  0  0  0  0  0  0  0
    2.6016    4.3355    5.7821 O   0  0  0  0  0  0  0  0  0  0  0  0
    3.3049    5.6983    7.6686 C   0  0  0  0  0  0  0  0  0  0  0  0
    4.5198    6.1931    6.9340 C   0  0  0  0  0  0  0  0  0  0  0  0
    3.1094    6.0682    9.0132 C   0  0  0  0  0  0  0  0  0  0  0  0
    2.0281    5.5539    9.7457 C   0  0  0  0  0  0  0  0  0  0  0  0
    1.8539    5.8800   11.0421 O   0  0  0  0  0  0  0  0  0  0  0  0
    1.1379    4.6692    9.1343 C   0  0  0  0  0  0  0  0  0  0  0  0
   -4.2538   -0.1521   -1.6152 H   0  0  0  0  0  0  0  0  0  0  0  0
   -5.1184   -1.5388   -2.3656 H   0  0  0  0  0  0  0  0  0  0  0  0
   -5.0333   -1.4190   -0.5772 H   0  0  0  0  0  0  0  0  0  0  0  0
   -1.9564   -2.7575   -3.0905 H   0  0  0  0  0  0  0  0  0  0  0  0
   -3.6749   -2.9514   -3.4241 H   0  0  0  0  0  0  0  0  0  0  0  0
   -1.8430   -4.9619   -2.4495 H   0  0  0  0  0  0  0  0  0  0  0  0
   -2.8875   -4.5793   -1.0622 H   0  0  0  0  0  0  0  0  0  0  0  0
   -4.6441   -5.8105   -2.0635 H   0  0  0  0  0  0  0  0  0  0  0  0
   -3.5765   -4.6865   -5.9153 H   0  0  0  0  0  0  0  0  0  0  0  0
   -2.5755   -6.1529   -5.6101 H   0  0  0  0  0  0  0  0  0  0  0  0
   -2.2242   -4.6359   -4.7369 H   0  0  0  0  0  0  0  0  0  0  0  0
   -1.3242   -2.3837   -0.6245 H   0  0  0  0  0  0  0  0  0  0  0  0
   -2.4289    0.2925    0.0211 H   0  0  0  0  0  0  0  0  0  0  0  0
   -3.1422   -0.8673    1.2167 H   0  0  0  0  0  0  0  0  0  0  0  0
   -0.1545   -0.6656    0.4873 H   0  0  0  0  0  0  0  0  0  0  0  0
   -0.8709   -1.6790    1.7687 H   0  0  0  0  0  0  0  0  0  0  0  0
   -1.0685    1.1990    4.3137 H   0  0  0  0  0  0  0  0  0  0  0  0
   -2.4702    0.7399    3.3144 H   0  0  0  0  0  0  0  0  0  0  0  0
   -1.4765   -0.5440    4.1089 H   0  0  0  0  0  0  0  0  0  0  0  0
    1.1847    0.8417    1.3269 H   0  0  0  0  0  0  0  0  0  0  0  0
    1.2304    0.8029    4.2018 H   0  0  0  0  0  0  0  0  0  0  0  0
    2.4291    1.3955    3.0843 H   0  0  0  0  0  0  0  0  0  0  0  0
    0.3594    3.3602    4.2198 H   0  0  0  0  0  0  0  0  0  0  0  0
    1.8341    3.6858    3.2611 H   0  0  0  0  0  0  0  0  0  0  0  0
    4.2273    2.4159    6.0815 H   0  0  0  0  0  0  0  0  0  0  0  0
    3.5157    1.2462    4.9538 H   0  0  0  0  0  0  0  0  0  0  0  0
    4.1718    2.8219    4.3336 H   0  0  0  0  0  0  0  0  0  0  0  0
    0.9199    1.3856    6.1620 H   0  0  0  0  0  0  0  0  0  0  0  0
    2.1361    1.9499    7.3165 H   0  0  0  0  0  0  0  0  0  0  0  0
   -0.1846    3.7352    6.3688 H   0  0  0  0  0  0  0  0  0  0  0  0
   -0.1971    2.7714    7.8897 H   0  0  0  0  0  0  0  0  0  0  0  0
    5.1412    5.3262    6.6225 H   0  0  0  0  0  0  0  0  0  0  0  0
    4.2211    6.7769    6.0417 H   0  0  0  0  0  0  0  0  0  0  0  0
    5.1522    6.8390    7.5836 H   0  0  0  0  0  0  0  0  0  0  0  0
    3.8117    6.7325    9.5051 H   0  0  0  0  0  0  0  0  0  0  0  0
    2.4695    6.4614   11.5117 H   0  0  0  0  0  0  0  0  0  0  0  0
    0.3187    4.2536    9.7087 H   0  0  0  0  0  0  0  0  0  0  0  0
  1 32  1  0  0  0  0
  1 33  1  0  0  0  0
  1 34  1  0  0  0  0
  2  1  1  0  0  0  0
  3  2  1  0  0  0  0
  3 35  1  0  0  0  0
  3 36  1  0  0  0  0
  4  3  1  0  0  0  0
  4 37  1  0  0  0  0
  4 38  1  0  0  0  0
  5  4  1  0  0  0  0
  5 39  1  0  0  0  0
  6  5  2  0  0  0  0
  7  6  1  0  0  0  0
  7 40  1  0  0  0  0
  7 41  1  0  0  0  0
  7 42  1  0  0  0  0
  8  6  1  0  0  0  0
  9  8  1  0  0  0  0
 10  8  2  0  0  0  0
 11  2  2  0  0  0  0
 11 43  1  0  0  0  0
 12 11  1  0  0  0  0
 12 44  1  0  0  0  0
 12 45  1  0  0  0  0
 13 12  1  0  0  0  0
 13 46  1  0  0  0  0
 13 47  1  0  0  0  0
 14 13  1  0  0  0  0
 15 14  1  0  0  0  0
 15 48  1  0  0  0  0
 15 49  1  0  0  0  0
 15 50  1  0  0  0  0
 16 14  2  0  0  0  0
 16 51  1  0  0  0  0
 17 16  1  0  0  0  0
 17 52  1  0  0  0  0
 17 53  1  0  0  0  0
 18 17  1  0  0  0  0
 18 54  1  0  0  0  0
 18 55  1  0  0  0  0
 19 18  1  6  0  0  0
 20 19  1  0  0  0  0
 20 56  1  0  0  0  0
 20 57  1  0  0  0  0
 20 58  1  0  0  0  0
 21 19  1  0  0  0  0
 21 59  1  0  0  0  0
 21 60  1  0  0  0  0
 22 21  1  0  0  0  0
 22 61  1  0  0  0  0
 22 62  1  0  0  0  0
 23 22  1  0  0  0  0
 24 23  2  0  0  0  0
 25 24  1  0  0  0  0
 25 19  1  0  0  0  0
 26 24  1  0  0  0  0
 27 26  1  0  0  0  0
 27 63  1  0  0  0  0
 27 64  1  0  0  0  0
 27 65  1  0  0  0  0
 28 26  2  0  0  0  0
 28 66  1  0  0  0  0
 29 28  1  0  0  0  0
 30 29  1  0  0  0  0
 30 67  1  0  0  0  0
 31 29  2  0  0  0  0
 31 23  1  0  0  0  0
 31 68  1  0  0  0  0
M  END
>  <MOL Chiral Flag>
0

>  <energy>
50.051170352968427

$$$$
> 504_AKC_j.chemphyslip.2013.05.002
>488.sdf
 OpenBabel10062214403D

 51 50  0  0  0  0  0  0  0  0999 V2000
  -10.8756    0.7218   -0.0533 C   0  0  0  0  0  0  0  0  0  0  0  0
   -9.4082    1.1050    0.1618 C   0  0  0  0  0  0  0  0  0  0  0  0
   -8.8968    0.5541    1.4998 C   0  0  0  0  0  0  0  0  0  0  0  0
   -7.5223    1.0990    1.9249 C   0  0  0  0  0  0  0  0  0  0  0  0
   -6.2951    0.7130    1.0633 C   0  0  0  0  0  0  0  0  0  0  0  0
   -5.0470    1.3548    1.7137 C   0  0  0  0  0  0  0  0  0  0  0  0
   -3.6822    1.1377    1.0165 C   0  0  0  0  0  0  0  0  0  0  0  0
   -2.6224    1.9885    1.7660 C   0  0  0  0  0  0  0  0  0  0  0  0
   -1.1888    2.0227    1.1889 C   0  0  0  0  0  0  0  0  0  0  0  0
   -0.3612    0.7573    1.4604 C   0  0  0  0  0  0  0  0  0  0  0  0
    1.1058    0.9006    0.9708 C   0  0  0  0  0  0  0  0  0  0  0  0
    1.9066   -0.3593    1.3419 C   0  0  0  0  0  0  0  0  0  0  0  0
    3.2967   -0.5106    0.6929 C   0  0  0  0  0  0  0  0  0  0  0  0
    4.4430    0.4200    1.1528 C   0  0  0  0  0  0  0  0  0  0  0  0
    5.7386   -0.0877    0.4796 C   0  0  0  0  0  0  0  0  0  0  0  0
    6.9848    0.6031    0.8385 C   0  0  0  0  0  0  0  0  0  0  0  0
    8.0966    1.0387    1.0230 C   0  0  0  0  0  0  0  0  0  0  0  0
    9.4290    1.5664    1.1800 C   0  0  0  0  0  0  0  0  0  0  0  0
   10.3561    0.8559    1.8509 O   0  0  0  0  0  0  0  0  0  0  0  0
    9.7337    2.6272    0.6623 O   0  0  0  0  0  0  0  0  0  0  0  0
  -11.2365    1.1233   -1.0236 H   0  0  0  0  0  0  0  0  0  0  0  0
  -11.0033   -0.3812   -0.0500 H   0  0  0  0  0  0  0  0  0  0  0  0
  -11.5065    1.1570    0.7538 H   0  0  0  0  0  0  0  0  0  0  0  0
   -8.7901    0.7099   -0.6716 H   0  0  0  0  0  0  0  0  0  0  0  0
   -9.3479    2.2149    0.1621 H   0  0  0  0  0  0  0  0  0  0  0  0
   -8.8915   -0.5571    1.4834 H   0  0  0  0  0  0  0  0  0  0  0  0
   -9.6101    0.8815    2.2899 H   0  0  0  0  0  0  0  0  0  0  0  0
   -7.5986    2.2080    1.9745 H   0  0  0  0  0  0  0  0  0  0  0  0
   -7.3413    0.7244    2.9562 H   0  0  0  0  0  0  0  0  0  0  0  0
   -6.1865   -0.3927    1.0281 H   0  0  0  0  0  0  0  0  0  0  0  0
   -6.4223    1.0975    0.0281 H   0  0  0  0  0  0  0  0  0  0  0  0
   -4.9598    0.9773    2.7567 H   0  0  0  0  0  0  0  0  0  0  0  0
   -5.2360    2.4503    1.7515 H   0  0  0  0  0  0  0  0  0  0  0  0
   -3.7491    1.4892   -0.0362 H   0  0  0  0  0  0  0  0  0  0  0  0
   -3.4107    0.0601    1.0201 H   0  0  0  0  0  0  0  0  0  0  0  0
   -2.5760    1.6857    2.8357 H   0  0  0  0  0  0  0  0  0  0  0  0
   -2.9858    3.0388    1.7308 H   0  0  0  0  0  0  0  0  0  0  0  0
   -0.6613    2.8522    1.7097 H   0  0  0  0  0  0  0  0  0  0  0  0
   -1.2208    2.2634    0.1047 H   0  0  0  0  0  0  0  0  0  0  0  0
   -0.8397   -0.1110    0.9575 H   0  0  0  0  0  0  0  0  0  0  0  0
   -0.3526    0.5719    2.5570 H   0  0  0  0  0  0  0  0  0  0  0  0
    1.5940    1.7895    1.4277 H   0  0  0  0  0  0  0  0  0  0  0  0
    1.0936    1.0283   -0.1333 H   0  0  0  0  0  0  0  0  0  0  0  0
    1.3205   -1.2286    0.9717 H   0  0  0  0  0  0  0  0  0  0  0  0
    1.9898   -0.4497    2.4472 H   0  0  0  0  0  0  0  0  0  0  0  0
    3.6143   -1.5474    0.9420 H   0  0  0  0  0  0  0  0  0  0  0  0
    3.1886   -0.4455   -0.4119 H   0  0  0  0  0  0  0  0  0  0  0  0
    4.2368    1.4750    0.8689 H   0  0  0  0  0  0  0  0  0  0  0  0
    4.5571    0.3574    2.2572 H   0  0  0  0  0  0  0  0  0  0  0  0
    5.6322   -0.0353   -0.6243 H   0  0  0  0  0  0  0  0  0  0  0  0
    5.8945   -1.1513    0.7609 H   0  0  0  0  0  0  0  0  0  0  0  0
  1 21  1  0  0  0  0
  1 22  1  0  0  0  0
  1 23  1  0  0  0  0
  2  1  1  0  0  0  0
  2 24  1  0  0  0  0
  2 25  1  0  0  0  0
  3  2  1  0  0  0  0
  3 26  1  0  0  0  0
  3 27  1  0  0  0  0
  4  3  1  0  0  0  0
  4 28  1  0  0  0  0
  4 29  1  0  0  0  0
  5  4  1  0  0  0  0
  5 30  1  0  0  0  0
  5 31  1  0  0  0  0
  6  5  1  0  0  0  0
  6 32  1  0  0  0  0
  6 33  1  0  0  0  0
  7  6  1  0  0  0  0
  7 34  1  0  0  0  0
  7 35  1  0  0  0  0
  8  7  1  0  0  0  0
  8 36  1  0  0  0  0
  8 37  1  0  0  0  0
  9  8  1  0  0  0  0
  9 38  1  0  0  0  0
  9 39  1  0  0  0  0
 10  9  1  0  0  0  0
 10 40  1  0  0  0  0
 10 41  1  0  0  0  0
 11 10  1  0  0  0  0
 11 42  1  0  0  0  0
 11 43  1  0  0  0  0
 12 11  1  0  0  0  0
 12 44  1  0  0  0  0
 12 45  1  0  0  0  0
 13 12  1  0  0  0  0
 13 46  1  0  0  0  0
 13 47  1  0  0  0  0
 14 13  1  0  0  0  0
 14 48  1  0  0  0  0
 14 49  1  0  0  0  0
 15 14  1  0  0  0  0
 15 50  1  0  0  0  0
 15 51  1  0  0  0  0
 16 15  1  0  0  0  0
 17 16  3  0  0  0  0
 18 17  1  0  0  0  0
 19 18  1  0  0  0  0
 20 18  2  0  0  0  0
M  END
>  <MOL Chiral Flag>
0

>  <energy>
-12.848918927154422

$$$$
> 505_AKC_S0102-695X2013005000022
>489.sdf
 OpenBabel10062214413D

 43 45  0  0  0  0  0  0  0  0999 V2000
    1.9126   -1.6494    2.7110 O   0  0  0  0  0  0  0  0  0  0  0  0
    2.2845   -0.9620    1.7680 C   0  0  0  0  0  0  0  0  0  0  0  0
    1.5087   -1.0132    0.4907 C   0  0  0  0  0  0  0  0  0  0  0  0
    0.4559   -1.8453    0.3551 C   0  0  0  0  0  0  0  0  0  0  0  0
   -0.3319   -1.9158   -0.8956 C   0  0  0  0  0  0  0  0  0  0  0  0
   -1.3314   -2.8076   -1.0300 C   0  0  0  0  0  0  0  0  0  0  0  0
   -2.1154   -2.8816   -2.3132 C   0  0  0  0  0  0  0  0  0  0  0  0
   -3.1306   -4.0385   -2.3658 C   0  0  0  0  0  0  0  0  0  0  0  0
   -4.2837   -3.9531   -1.3896 C   0  0  0  0  0  0  0  0  0  0  0  0
   -4.5509   -5.0290   -0.5067 C   0  0  0  0  0  0  0  0  0  0  0  0
   -5.6709   -4.9388    0.3180 C   0  0  0  0  0  0  0  0  0  0  0  0
   -6.4813   -3.8748    0.3078 C   0  0  0  0  0  0  0  0  0  0  0  0
   -7.4728   -4.0680    1.1780 O   0  0  0  0  0  0  0  0  0  0  0  0
   -7.3003   -5.3230    1.7719 C   0  0  0  0  0  0  0  0  0  0  0  0
   -6.1317   -5.8327    1.1939 O   0  0  0  0  0  0  0  0  0  0  0  0
   -6.2618   -2.7833   -0.5258 C   0  0  0  0  0  0  0  0  0  0  0  0
   -5.1507   -2.8262   -1.3912 C   0  0  0  0  0  0  0  0  0  0  0  0
    3.3978   -0.1784    1.9146 N   0  0  0  0  0  0  0  0  0  0  0  0
    3.9644    0.6584    0.8786 C   0  0  0  0  0  0  0  0  0  0  0  0
    4.9995    1.4848    1.6498 C   0  0  0  0  0  0  0  0  0  0  0  0
    5.4687    0.5050    2.7084 C   0  0  0  0  0  0  0  0  0  0  0  0
    4.1560   -0.1392    3.1451 C   0  0  0  0  0  0  0  0  0  0  0  0
    1.7966   -0.3794   -0.3435 H   0  0  0  0  0  0  0  0  0  0  0  0
    0.1722   -2.4940    1.1787 H   0  0  0  0  0  0  0  0  0  0  0  0
   -0.0910   -1.2470   -1.7195 H   0  0  0  0  0  0  0  0  0  0  0  0
   -1.5632   -3.4919   -0.2180 H   0  0  0  0  0  0  0  0  0  0  0  0
   -2.6255   -1.9120   -2.4952 H   0  0  0  0  0  0  0  0  0  0  0  0
   -1.3931   -3.0497   -3.1418 H   0  0  0  0  0  0  0  0  0  0  0  0
   -2.5843   -4.9993   -2.2389 H   0  0  0  0  0  0  0  0  0  0  0  0
   -3.5730   -4.0433   -3.3851 H   0  0  0  0  0  0  0  0  0  0  0  0
   -3.9263   -5.9129   -0.4851 H   0  0  0  0  0  0  0  0  0  0  0  0
   -8.1657   -5.9813    1.5404 H   0  0  0  0  0  0  0  0  0  0  0  0
   -7.1766   -5.2184    2.8702 H   0  0  0  0  0  0  0  0  0  0  0  0
   -6.9345   -1.9358   -0.5214 H   0  0  0  0  0  0  0  0  0  0  0  0
   -4.9738   -1.9993   -2.0657 H   0  0  0  0  0  0  0  0  0  0  0  0
    3.2300    1.3488    0.4112 H   0  0  0  0  0  0  0  0  0  0  0  0
    4.4355    0.0027    0.1141 H   0  0  0  0  0  0  0  0  0  0  0  0
    4.4672    2.3024    2.1884 H   0  0  0  0  0  0  0  0  0  0  0  0
    5.7985    1.9355    1.0233 H   0  0  0  0  0  0  0  0  0  0  0  0
    6.0693    0.9331    3.5391 H   0  0  0  0  0  0  0  0  0  0  0  0
    6.0801   -0.2677    2.1880 H   0  0  0  0  0  0  0  0  0  0  0  0
    3.5987    0.4808    3.8817 H   0  0  0  0  0  0  0  0  0  0  0  0
    4.3700   -1.1472    3.5631 H   0  0  0  0  0  0  0  0  0  0  0  0
  2  1  2  0  0  0  0
  3  2  1  0  0  0  0
  3 23  1  0  0  0  0
  4  3  2  0  0  0  0
  4 24  1  0  0  0  0
  5  4  1  0  0  0  0
  5 25  1  0  0  0  0
  6  5  2  0  0  0  0
  6 26  1  0  0  0  0
  7  6  1  0  0  0  0
  7 27  1  0  0  0  0
  7 28  1  0  0  0  0
  8  7  1  0  0  0  0
  8 29  1  0  0  0  0
  8 30  1  0  0  0  0
  9  8  1  0  0  0  0
 10  9  2  0  0  0  0
 10 31  1  0  0  0  0
 11 10  1  0  0  0  0
 12 11  2  0  0  0  0
 13 12  1  0  0  0  0
 14 13  1  0  0  0  0
 14 32  1  0  0  0  0
 14 33  1  0  0  0  0
 15 14  1  0  0  0  0
 15 11  1  0  0  0  0
 16 12  1  0  0  0  0
 16 34  1  0  0  0  0
 17 16  2  0  0  0  0
 17  9  1  0  0  0  0
 17 35  1  0  0  0  0
 18  2  1  0  0  0  0
 19 18  1  0  0  0  0
 19 36  1  0  0  0  0
 19 37  1  0  0  0  0
 20 19  1  0  0  0  0
 20 38  1  0  0  0  0
 20 39  1  0  0  0  0
 21 20  1  0  0  0  0
 21 40  1  0  0  0  0
 21 41  1  0  0  0  0
 22 21  1  0  0  0  0
 22 18  1  0  0  0  0
 22 42  1  0  0  0  0
 22 43  1  0  0  0  0
M  END
>  <MOL Chiral Flag>
0

>  <energy>
26.497821355786826

$$$$
> 506_AKC_molecules18011053
>490.sdf
 OpenBabel10062214433D

 74 78  0  0  0  0  0  0  0  0999 V2000
    2.8304    5.8812   -1.0829 C   0  0  0  0  0  0  0  0  0  0  0  0
    1.6803    6.0421   -0.3328 O   0  0  0  0  0  0  0  0  0  0  0  0
    0.4381    5.6156   -0.6950 C   0  0  0  0  0  0  0  0  0  0  0  0
    0.2720    5.0839   -1.7854 O   0  0  0  0  0  0  0  0  0  0  0  0
   -0.7582    6.1964    0.0330 C   0  0  2  0  0  0  0  0  0  0  0  0
   -0.8514    7.6517   -0.4927 C   0  0  0  0  0  0  0  0  0  0  0  0
   -0.5376    6.2686    1.5751 C   0  0  0  0  0  0  0  0  0  0  0  0
   -0.8014    4.9397    2.3158 C   0  0  0  0  0  0  0  0  0  0  0  0
   -2.2509    4.3992    2.0633 C   0  0  2  0  0  0  0  0  0  0  0  0
   -3.2648    5.4659    2.6021 C   0  0  0  0  0  0  0  0  0  0  0  0
   -2.5675    3.1181    2.9226 C   0  0  0  0  0  0  0  0  0  0  0  0
   -2.2533    1.7415    2.3019 C   0  0  0  0  0  0  0  0  0  0  0  0
   -2.7777    1.6020    0.8187 C   0  0  2  0  0  0  0  0  0  0  0  0
   -4.3356    1.7680    0.9020 C   0  0  0  0  0  0  0  0  0  0  0  0
   -2.5013    0.2044    0.1503 C   0  0  0  0  0  0  0  0  0  0  0  0
   -1.9632   -0.7965    0.8912 C   0  0  0  0  0  0  0  0  0  0  0  0
   -1.6344   -2.1209    0.3566 C   0  0  0  0  0  0  0  0  0  0  0  0
   -1.7567   -2.4243   -0.9410 C   0  0  0  0  0  0  0  0  0  0  0  0
   -1.3913   -3.8008   -1.4477 C   0  0  0  0  0  0  0  0  0  0  0  0
   -0.9649   -4.8873   -0.4756 C   0  0  0  0  0  0  0  0  0  0  0  0
   -1.4571   -4.0645   -2.7727 C   0  0  0  0  0  0  0  0  0  0  0  0
   -1.1345   -5.2948   -3.2431 O   0  0  0  0  0  0  0  0  0  0  0  0
   -1.8885   -3.0088   -3.7174 C   0  0  0  0  0  0  0  0  0  0  0  0
   -1.9366   -3.2361   -4.9149 O   0  0  0  0  0  0  0  0  0  0  0  0
   -2.3060   -1.6891   -3.2119 C   0  0  0  0  0  0  0  0  0  0  0  0
   -2.2632   -1.3881   -1.8909 C   0  0  0  0  0  0  0  0  0  0  0  0
   -2.7858   -0.0168   -1.3794 C   0  0  1  0  0  0  0  0  0  0  0  0
   -4.3043   -0.0413   -1.7302 C   0  0  0  0  0  0  0  0  0  0  0  0
   -2.0958    1.1486   -2.1433 C   0  0  0  0  0  0  0  0  0  0  0  0
   -2.4244    2.5517   -1.5476 C   0  0  0  0  0  0  0  0  0  0  0  0
   -2.0173    2.7169   -0.0380 C   0  0  2  0  0  0  0  0  0  0  0  0
   -0.4686    2.4567    0.0233 C   0  0  0  0  0  0  0  0  0  0  0  0
   -2.4755    4.1632    0.5092 C   0  0  2  0  0  0  0  0  0  0  0  0
   -2.1098    5.4697   -0.2922 C   0  0  0  0  0  0  0  0  0  0  0  0
    3.5834    5.3303   -0.4845 H   0  0  0  0  0  0  0  0  0  0  0  0
    3.2394    6.8838   -1.3309 H   0  0  0  0  0  0  0  0  0  0  0  0
    2.6557    5.3339   -2.0332 H   0  0  0  0  0  0  0  0  0  0  0  0
   -1.0145    7.6667   -1.5927 H   0  0  0  0  0  0  0  0  0  0  0  0
    0.0764    8.2224   -0.2675 H   0  0  0  0  0  0  0  0  0  0  0  0
   -1.6982    8.1954   -0.0194 H   0  0  0  0  0  0  0  0  0  0  0  0
    0.4791    6.6495    1.8136 H   0  0  0  0  0  0  0  0  0  0  0  0
   -1.2147    7.0294    2.0066 H   0  0  0  0  0  0  0  0  0  0  0  0
   -0.0088    4.2431    2.0434 H   0  0  0  0  0  0  0  0  0  0  0  0
   -0.6647    5.1241    3.4040 H   0  0  0  0  0  0  0  0  0  0  0  0
   -4.3107    5.1178    2.4581 H   0  0  0  0  0  0  0  0  0  0  0  0
   -3.1086    5.6356    3.6897 H   0  0  0  0  0  0  0  0  0  0  0  0
   -3.2303    6.4523    2.1112 H   0  0  0  0  0  0  0  0  0  0  0  0
   -3.6510    3.0796    3.1403 H   0  0  0  0  0  0  0  0  0  0  0  0
   -2.1289    3.2057    3.9405 H   0  0  0  0  0  0  0  0  0  0  0  0
   -1.1693    1.5528    2.3794 H   0  0  0  0  0  0  0  0  0  0  0  0
   -2.7297    0.9830    2.9620 H   0  0  0  0  0  0  0  0  0  0  0  0
   -4.6975    2.6598    1.4329 H   0  0  0  0  0  0  0  0  0  0  0  0
   -4.7838    0.8951    1.4237 H   0  0  0  0  0  0  0  0  0  0  0  0
   -4.8355    1.9184   -0.0439 H   0  0  0  0  0  0  0  0  0  0  0  0
   -1.7518   -0.6697    1.9410 H   0  0  0  0  0  0  0  0  0  0  0  0
   -1.2618   -2.8509    1.0652 H   0  0  0  0  0  0  0  0  0  0  0  0
   -1.7830   -5.0695    0.2535 H   0  0  0  0  0  0  0  0  0  0  0  0
   -0.0497   -4.5724    0.0665 H   0  0  0  0  0  0  0  0  0  0  0  0
   -0.7417   -5.8581   -0.9640 H   0  0  0  0  0  0  0  0  0  0  0  0
   -1.1814   -5.5154   -4.1833 H   0  0  0  0  0  0  0  0  0  0  0  0
   -2.6675   -0.9678   -3.9364 H   0  0  0  0  0  0  0  0  0  0  0  0
   -4.8400   -0.7728   -1.0884 H   0  0  0  0  0  0  0  0  0  0  0  0
   -4.4787   -0.3404   -2.7831 H   0  0  0  0  0  0  0  0  0  0  0  0
   -4.8152    0.9221   -1.7320 H   0  0  0  0  0  0  0  0  0  0  0  0
   -0.9998    0.9912   -2.1445 H   0  0  0  0  0  0  0  0  0  0  0  0
   -2.3869    1.1454   -3.2146 H   0  0  0  0  0  0  0  0  0  0  0  0
   -3.5032    2.7633   -1.6770 H   0  0  0  0  0  0  0  0  0  0  0  0
   -1.8817    3.2969   -2.1650 H   0  0  0  0  0  0  0  0  0  0  0  0
   -0.2049    1.4187   -0.2473 H   0  0  0  0  0  0  0  0  0  0  0  0
    0.0926    3.0872   -0.6660 H   0  0  0  0  0  0  0  0  0  0  0  0
    0.0061    2.5414    0.9983 H   0  0  0  0  0  0  0  0  0  0  0  0
   -3.5689    4.1181    0.3460 H   0  0  0  0  0  0  0  0  0  0  0  0
   -2.8993    6.1937   -0.0032 H   0  0  0  0  0  0  0  0  0  0  0  0
   -2.2698    5.3566   -1.3835 H   0  0  0  0  0  0  0  0  0  0  0  0
  1 35  1  0  0  0  0
  1 36  1  0  0  0  0
  1 37  1  0  0  0  0
  2  1  1  0  0  0  0
  3  2  1  0  0  0  0
  4  3  2  0  0  0  0
  5  3  1  6  0  0  0
  6  5  1  0  0  0  0
  6 38  1  0  0  0  0
  6 39  1  0  0  0  0
  6 40  1  0  0  0  0
  7  5  1  0  0  0  0
  7 41  1  0  0  0  0
  7 42  1  0  0  0  0
  8  7  1  0  0  0  0
  8 43  1  0  0  0  0
  8 44  1  0  0  0  0
  9  8  1  0  0  0  0
  9 10  1  1  0  0  0
 10 45  1  0  0  0  0
 10 46  1  0  0  0  0
 10 47  1  0  0  0  0
 11  9  1  0  0  0  0
 11 48  1  0  0  0  0
 11 49  1  0  0  0  0
 12 11  1  0  0  0  0
 12 50  1  0  0  0  0
 12 51  1  0  0  0  0
 13 12  1  0  0  0  0
 13 14  1  6  0  0  0
 14 52  1  0  0  0  0
 14 53  1  0  0  0  0
 14 54  1  0  0  0  0
 15 13  1  0  0  0  0
 16 15  2  0  0  0  0
 16 55  1  0  0  0  0
 17 16  1  0  0  0  0
 17 56  1  0  0  0  0
 18 17  2  0  0  0  0
 19 18  1  0  0  0  0
 20 19  1  0  0  0  0
 20 57  1  0  0  0  0
 20 58  1  0  0  0  0
 20 59  1  0  0  0  0
 21 19  2  0  0  0  0
 22 21  1  0  0  0  0
 22 60  1  0  0  0  0
 23 21  1  0  0  0  0
 24 23  2  0  0  0  0
 25 23  1  0  0  0  0
 25 61  1  0  0  0  0
 26 25  2  0  0  0  0
 26 18  1  0  0  0  0
 27 26  1  0  0  0  0
 27 15  1  0  0  0  0
 27 28  1  6  0  0  0
 28 62  1  0  0  0  0
 28 63  1  0  0  0  0
 28 64  1  0  0  0  0
 29 27  1  0  0  0  0
 29 65  1  0  0  0  0
 29 66  1  0  0  0  0
 30 29  1  0  0  0  0
 30 67  1  0  0  0  0
 30 68  1  0  0  0  0
 31 30  1  0  0  0  0
 31 13  1  0  0  0  0
 31 32  1  1  0  0  0
 32 69  1  0  0  0  0
 32 70  1  0  0  0  0
 32 71  1  0  0  0  0
 33 31  1  0  0  0  0
 33  9  1  0  0  0  0
 33 72  1  6  0  0  0
 34 33  1  0  0  0  0
 34  5  1  0  0  0  0
 34 73  1  0  0  0  0
 34 74  1  0  0  0  0
M  END
>  <MOL Chiral Flag>
0

>  <energy>
180.41314046854839

$$$$
> 507_AKC_molecules18011053
>491.sdf
 OpenBabel10062214433D

 67 71  0  0  0  0  0  0  0  0999 V2000
    5.4710    1.4618    0.3594 C   0  0  0  0  0  0  0  0  0  0  0  0
    4.1603    0.6678    0.4786 C   0  0  2  0  0  0  0  0  0  0  0  0
    3.5322    0.8881    1.8762 C   0  0  0  0  0  0  0  0  0  0  0  0
    2.3049   -0.0368    2.1928 C   0  0  2  0  0  0  0  0  0  0  0  0
    2.7075   -1.5515    1.9735 C   0  0  1  0  0  0  0  0  0  0  0  0
    3.8541   -1.9885    2.9400 C   0  0  0  0  0  0  0  0  0  0  0  0
    1.5142   -2.4630    2.3386 C   0  0  0  0  0  0  0  0  0  0  0  0
    0.2110   -2.0607    1.6640 C   0  0  0  0  0  0  0  0  0  0  0  0
   -0.2816   -0.6109    2.0179 C   0  0  2  0  0  0  0  0  0  0  0  0
   -0.5741   -0.5295    3.5610 C   0  0  0  0  0  0  0  0  0  0  0  0
   -1.6320   -0.4327    1.2169 C   0  0  0  0  0  0  0  0  0  0  0  0
   -2.6543   -1.2581    1.5642 C   0  0  0  0  0  0  0  0  0  0  0  0
   -3.8445   -1.4848    0.7510 C   0  0  0  0  0  0  0  0  0  0  0  0
   -3.9570   -0.9995   -0.4885 C   0  0  0  0  0  0  0  0  0  0  0  0
   -5.1308   -1.3855   -1.3558 C   0  0  0  0  0  0  0  0  0  0  0  0
   -6.2172   -2.2986   -0.8129 C   0  0  0  0  0  0  0  0  0  0  0  0
   -5.1962   -0.9352   -2.6291 C   0  0  0  0  0  0  0  0  0  0  0  0
   -6.2320   -1.2914   -3.4275 O   0  0  0  0  0  0  0  0  0  0  0  0
   -4.1291   -0.0542   -3.1578 C   0  0  0  0  0  0  0  0  0  0  0  0
   -4.1825    0.3547   -4.3066 O   0  0  0  0  0  0  0  0  0  0  0  0
   -3.0035    0.3501   -2.2954 C   0  0  0  0  0  0  0  0  0  0  0  0
   -2.8916   -0.0952   -1.0197 C   0  0  0  0  0  0  0  0  0  0  0  0
   -1.7258    0.3921   -0.1099 C   0  0  1  0  0  0  0  0  0  0  0  0
   -2.0056    1.9080    0.0806 C   0  0  0  0  0  0  0  0  0  0  0  0
   -0.3726    0.1774   -0.7970 C   0  0  0  0  0  0  0  0  0  0  0  0
    0.8405    0.6727    0.0322 C   0  0  0  0  0  0  0  0  0  0  0  0
    0.8635    0.4258    1.6017 C   0  0  2  0  0  0  0  0  0  0  0  0
    0.5773    1.7971    2.3177 C   0  0  0  0  0  0  0  0  0  0  0  0
    3.2202   -1.7828    0.5231 C   0  0  0  0  0  0  0  0  0  0  0  0
    4.3672   -0.8261    0.2622 C   0  0  0  0  0  0  0  0  0  0  0  0
    5.4712   -1.2715   -0.0180 O   0  0  0  0  0  0  0  0  0  0  0  0
    6.2088    1.1161    1.1164 H   0  0  0  0  0  0  0  0  0  0  0  0
    5.2806    2.5442    0.5220 H   0  0  0  0  0  0  0  0  0  0  0  0
    5.9107    1.3325   -0.6521 H   0  0  0  0  0  0  0  0  0  0  0  0
    3.4955    1.0679   -0.3002 H   0  0  0  0  0  0  0  0  0  0  0  0
    4.3184    0.6536    2.6235 H   0  0  0  0  0  0  0  0  0  0  0  0
    3.3056    1.9585    2.0452 H   0  0  0  0  0  0  0  0  0  0  0  0
    2.1841    0.0433    3.2921 H   0  0  0  0  0  0  0  0  0  0  0  0
    3.5603   -1.8341    4.0003 H   0  0  0  0  0  0  0  0  0  0  0  0
    4.0802   -3.0694    2.8047 H   0  0  0  0  0  0  0  0  0  0  0  0
    4.8084   -1.4527    2.7755 H   0  0  0  0  0  0  0  0  0  0  0  0
    1.3395   -2.4433    3.4344 H   0  0  0  0  0  0  0  0  0  0  0  0
    1.7539   -3.5183    2.0783 H   0  0  0  0  0  0  0  0  0  0  0  0
   -0.5487   -2.8117    1.9681 H   0  0  0  0  0  0  0  0  0  0  0  0
    0.3484   -2.1887    0.5777 H   0  0  0  0  0  0  0  0  0  0  0  0
   -1.0834    0.4200    3.8247 H   0  0  0  0  0  0  0  0  0  0  0  0
   -1.2246   -1.3440    3.9279 H   0  0  0  0  0  0  0  0  0  0  0  0
    0.3348   -0.6043    4.1836 H   0  0  0  0  0  0  0  0  0  0  0  0
   -2.5907   -1.8848    2.4401 H   0  0  0  0  0  0  0  0  0  0  0  0
   -4.5904   -2.1560    1.1589 H   0  0  0  0  0  0  0  0  0  0  0  0
   -6.6943   -1.8255    0.0708 H   0  0  0  0  0  0  0  0  0  0  0  0
   -7.0206   -2.5195   -1.5448 H   0  0  0  0  0  0  0  0  0  0  0  0
   -5.7716   -3.2714   -0.5150 H   0  0  0  0  0  0  0  0  0  0  0  0
   -6.3003   -0.9958   -4.3455 H   0  0  0  0  0  0  0  0  0  0  0  0
   -2.2680    1.0256   -2.7167 H   0  0  0  0  0  0  0  0  0  0  0  0
   -2.9265    2.0588    0.6837 H   0  0  0  0  0  0  0  0  0  0  0  0
   -1.1849    2.4945    0.4915 H   0  0  0  0  0  0  0  0  0  0  0  0
   -2.1578    2.4148   -0.8948 H   0  0  0  0  0  0  0  0  0  0  0  0
   -0.3063    0.6583   -1.7949 H   0  0  0  0  0  0  0  0  0  0  0  0
   -0.2770   -0.9089   -0.9935 H   0  0  0  0  0  0  0  0  0  0  0  0
    1.0034    1.7547   -0.1640 H   0  0  0  0  0  0  0  0  0  0  0  0
    1.6604    0.1962   -0.4896 H   0  0  0  0  0  0  0  0  0  0  0  0
   -0.4741    2.1041    2.3052 H   0  0  0  0  0  0  0  0  0  0  0  0
    0.7887    1.7466    3.4064 H   0  0  0  0  0  0  0  0  0  0  0  0
    1.2071    2.6219    1.9266 H   0  0  0  0  0  0  0  0  0  0  0  0
    3.5627   -2.8338    0.3978 H   0  0  0  0  0  0  0  0  0  0  0  0
    2.4307   -1.6587   -0.2293 H   0  0  0  0  0  0  0  0  0  0  0  0
  1 32  1  0  0  0  0
  1 33  1  0  0  0  0
  1 34  1  0  0  0  0
  2  1  1  0  0  0  0
  2 35  1  6  0  0  0
  3  2  1  0  0  0  0
  3 36  1  0  0  0  0
  3 37  1  0  0  0  0
  4  3  1  0  0  0  0
  4 38  1  1  0  0  0
  5  4  1  0  0  0  0
  5  6  1  1  0  0  0
  6 39  1  0  0  0  0
  6 40  1  0  0  0  0
  6 41  1  0  0  0  0
  7  5  1  0  0  0  0
  7 42  1  0  0  0  0
  7 43  1  0  0  0  0
  8  7  1  0  0  0  0
  8 44  1  0  0  0  0
  8 45  1  0  0  0  0
  9  8  1  0  0  0  0
  9 10  1  1  0  0  0
 10 46  1  0  0  0  0
 10 47  1  0  0  0  0
 10 48  1  0  0  0  0
 11  9  1  0  0  0  0
 12 11  2  0  0  0  0
 12 49  1  0  0  0  0
 13 12  1  0  0  0  0
 13 50  1  0  0  0  0
 14 13  2  0  0  0  0
 15 14  1  0  0  0  0
 16 15  1  0  0  0  0
 16 51  1  0  0  0  0
 16 52  1  0  0  0  0
 16 53  1  0  0  0  0
 17 15  2  0  0  0  0
 18 17  1  0  0  0  0
 18 54  1  0  0  0  0
 19 17  1  0  0  0  0
 20 19  2  0  0  0  0
 21 19  1  0  0  0  0
 21 55  1  0  0  0  0
 22 21  2  0  0  0  0
 22 14  1  0  0  0  0
 23 22  1  0  0  0  0
 23 11  1  0  0  0  0
 23 24  1  1  0  0  0
 24 56  1  0  0  0  0
 24 57  1  0  0  0  0
 24 58  1  0  0  0  0
 25 23  1  0  0  0  0
 25 59  1  0  0  0  0
 25 60  1  0  0  0  0
 26 25  1  0  0  0  0
 26 61  1  0  0  0  0
 26 62  1  0  0  0  0
 27 26  1  0  0  0  0
 27  4  1  0  0  0  0
 27  9  1  0  0  0  0
 27 28  1  1  0  0  0
 28 63  1  0  0  0  0
 28 64  1  0  0  0  0
 28 65  1  0  0  0  0
 29  5  1  0  0  0  0
 29 66  1  0  0  0  0
 29 67  1  0  0  0  0
 30 29  1  0  0  0  0
 30  2  1  0  0  0  0
 31 30  2  0  0  0  0
M  END
>  <MOL Chiral Flag>
0

>  <energy>
160.10181354886109

$$$$
> 508_AKC_j.bmcl.2012.10.110
>492.sdf
 OpenBabel10062214443D

 66 69  0  0  0  0  0  0  0  0999 V2000
    6.9235    0.6610   -1.1024 C   0  0  0  0  0  0  0  0  0  0  0  0
    5.6156    0.8830   -1.4810 O   0  0  0  0  0  0  0  0  0  0  0  0
    4.5300    0.1916   -1.0359 C   0  0  0  0  0  0  0  0  0  0  0  0
    4.6508   -0.9660   -0.2444 C   0  0  0  0  0  0  0  0  0  0  0  0
    3.5129   -1.6072    0.2512 C   0  0  0  0  0  0  0  0  0  0  0  0
    2.2291   -1.1226   -0.0449 C   0  0  0  0  0  0  0  0  0  0  0  0
    2.1049    0.0090   -0.8830 C   0  0  0  0  0  0  0  0  0  0  0  0
    3.2573    0.6752   -1.3683 C   0  0  0  0  0  0  0  0  0  0  0  0
    3.1930    1.8154   -2.1107 O   0  0  0  0  0  0  0  0  0  0  0  0
    2.0986    2.3376   -2.7684 C   0  0  0  0  0  0  0  0  0  0  0  0
    1.0017   -1.7811    0.5944 C   0  0  1  0  0  0  0  0  0  0  0  0
    0.1048   -0.7308    1.3299 C   0  0  0  0  0  0  0  0  0  0  0  0
   -1.2016   -0.8842    0.5982 C   0  0  0  0  0  0  0  0  0  0  0  0
   -2.3695    0.0027    0.8322 C   0  0  0  0  0  0  0  0  0  0  0  0
   -3.4667   -0.0376    0.0574 C   0  0  0  0  0  0  0  0  0  0  0  0
   -4.4256    1.1061    0.0772 C   0  0  0  0  0  0  0  0  0  0  0  0
   -5.4095    1.2504    1.0252 C   0  0  0  0  0  0  0  0  0  0  0  0
   -5.6024    0.2658    2.1539 C   0  0  0  0  0  0  0  0  0  0  0  0
   -6.3898    2.4184    0.9915 C   0  0  0  0  0  0  0  0  0  0  0  0
   -6.3915    3.2097   -0.3188 C   0  0  0  0  0  0  0  0  0  0  0  0
   -4.9621    3.4763   -0.7364 C   0  0  0  0  0  0  0  0  0  0  0  0
   -4.2188    2.1474   -1.0395 C   0  0  0  0  0  0  0  0  0  0  0  0
   -4.6832    1.5258   -2.3754 C   0  0  0  0  0  0  0  0  0  0  0  0
   -2.7167    2.5109   -1.1694 C   0  0  0  0  0  0  0  0  0  0  0  0
   -1.1430   -1.7640   -0.3229 N   0  0  0  0  0  0  0  0  0  0  0  0
    0.0851   -2.3507   -0.3749 N   0  0  0  0  0  0  0  0  0  0  0  0
    0.3588   -3.5013   -1.1874 C   0  0  0  0  0  0  0  0  0  0  0  0
   -0.5419   -3.8930   -2.1984 C   0  0  0  0  0  0  0  0  0  0  0  0
   -0.2804   -5.0262   -2.9800 C   0  0  0  0  0  0  0  0  0  0  0  0
    0.8692   -5.7865   -2.7546 C   0  0  0  0  0  0  0  0  0  0  0  0
    1.7627   -5.4164   -1.7503 C   0  0  0  0  0  0  0  0  0  0  0  0
    1.5152   -4.2819   -0.9742 C   0  0  0  0  0  0  0  0  0  0  0  0
    7.2542   -0.3538   -1.4049 H   0  0  0  0  0  0  0  0  0  0  0  0
    7.0278    0.7928   -0.0036 H   0  0  0  0  0  0  0  0  0  0  0  0
    7.5729    1.4092   -1.6030 H   0  0  0  0  0  0  0  0  0  0  0  0
    5.6238   -1.3623    0.0121 H   0  0  0  0  0  0  0  0  0  0  0  0
    3.6366   -2.4764    0.8834 H   0  0  0  0  0  0  0  0  0  0  0  0
    1.1193    0.3939   -1.1013 H   0  0  0  0  0  0  0  0  0  0  0  0
    2.4279    2.6679   -3.7756 H   0  0  0  0  0  0  0  0  0  0  0  0
    1.7264    3.2279   -2.2197 H   0  0  0  0  0  0  0  0  0  0  0  0
    1.2882    1.5983   -2.9134 H   0  0  0  0  0  0  0  0  0  0  0  0
    1.2876   -2.5765    1.3164 H   0  0  0  0  0  0  0  0  0  0  0  0
    0.4609    0.3131    1.1933 H   0  0  0  0  0  0  0  0  0  0  0  0
   -0.0075   -0.9531    2.4111 H   0  0  0  0  0  0  0  0  0  0  0  0
   -2.2690    0.7930    1.5715 H   0  0  0  0  0  0  0  0  0  0  0  0
   -3.5167   -0.7528   -0.7567 H   0  0  0  0  0  0  0  0  0  0  0  0
   -4.8823   -0.5741    2.1460 H   0  0  0  0  0  0  0  0  0  0  0  0
   -5.5145    0.7977    3.1248 H   0  0  0  0  0  0  0  0  0  0  0  0
   -6.6265   -0.1625    2.0856 H   0  0  0  0  0  0  0  0  0  0  0  0
   -6.1332    3.0850    1.8432 H   0  0  0  0  0  0  0  0  0  0  0  0
   -7.4324    2.0619    1.1422 H   0  0  0  0  0  0  0  0  0  0  0  0
   -6.9488    4.1607   -0.1732 H   0  0  0  0  0  0  0  0  0  0  0  0
   -6.9103    2.6431   -1.1175 H   0  0  0  0  0  0  0  0  0  0  0  0
   -4.4689    4.0132    0.1071 H   0  0  0  0  0  0  0  0  0  0  0  0
   -4.9239    4.1440   -1.6247 H   0  0  0  0  0  0  0  0  0  0  0  0
   -5.7483    1.2206   -2.3376 H   0  0  0  0  0  0  0  0  0  0  0  0
   -4.5486    2.2456   -3.2097 H   0  0  0  0  0  0  0  0  0  0  0  0
   -4.0930    0.6156   -2.6148 H   0  0  0  0  0  0  0  0  0  0  0  0
   -2.1015    1.6255   -1.4402 H   0  0  0  0  0  0  0  0  0  0  0  0
   -2.3268    2.9169   -0.2101 H   0  0  0  0  0  0  0  0  0  0  0  0
   -2.5586    3.2695   -1.9643 H   0  0  0  0  0  0  0  0  0  0  0  0
   -1.4404   -3.3208   -2.3870 H   0  0  0  0  0  0  0  0  0  0  0  0
   -0.9717   -5.3182   -3.7600 H   0  0  0  0  0  0  0  0  0  0  0  0
    1.0671   -6.6655   -3.3552 H   0  0  0  0  0  0  0  0  0  0  0  0
    2.6489   -6.0117   -1.5683 H   0  0  0  0  0  0  0  0  0  0  0  0
    2.2201   -4.0335   -0.1982 H   0  0  0  0  0  0  0  0  0  0  0  0
  1 33  1  0  0  0  0
  1 34  1  0  0  0  0
  1 35  1  0  0  0  0
  2  1  1  0  0  0  0
  3  2  1  0  0  0  0
  4  3  2  0  0  0  0
  4 36  1  0  0  0  0
  5  4  1  0  0  0  0
  5 37  1  0  0  0  0
  6  5  2  0  0  0  0
  7  6  1  0  0  0  0
  7 38  1  0  0  0  0
  8  7  2  0  0  0  0
  8  3  1  0  0  0  0
  9  8  1  0  0  0  0
 10  9  1  0  0  0  0
 10 39  1  0  0  0  0
 10 40  1  0  0  0  0
 10 41  1  0  0  0  0
 11  6  1  0  0  0  0
 11 42  1  1  0  0  0
 12 11  1  0  0  0  0
 12 43  1  0  0  0  0
 12 44  1  0  0  0  0
 13 12  1  0  0  0  0
 14 13  1  0  0  0  0
 14 45  1  0  0  0  0
 15 14  2  0  0  0  0
 15 46  1  0  0  0  0
 16 15  1  0  0  0  0
 17 16  2  0  0  0  0
 18 17  1  0  0  0  0
 18 47  1  0  0  0  0
 18 48  1  0  0  0  0
 18 49  1  0  0  0  0
 19 17  1  0  0  0  0
 19 50  1  0  0  0  0
 19 51  1  0  0  0  0
 20 19  1  0  0  0  0
 20 52  1  0  0  0  0
 20 53  1  0  0  0  0
 21 20  1  0  0  0  0
 21 54  1  0  0  0  0
 21 55  1  0  0  0  0
 22 21  1  0  0  0  0
 22 16  1  0  0  0  0
 23 22  1  0  0  0  0
 23 56  1  0  0  0  0
 23 57  1  0  0  0  0
 23 58  1  0  0  0  0
 24 22  1  0  0  0  0
 24 59  1  0  0  0  0
 24 60  1  0  0  0  0
 24 61  1  0  0  0  0
 25 13  2  0  0  0  0
 26 25  1  0  0  0  0
 26 11  1  0  0  0  0
 27 26  1  0  0  0  0
 28 27  2  0  0  0  0
 28 62  1  0  0  0  0
 29 28  1  0  0  0  0
 29 63  1  0  0  0  0
 30 29  2  0  0  0  0
 30 64  1  0  0  0  0
 31 30  1  0  0  0  0
 31 65  1  0  0  0  0
 32 31  2  0  0  0  0
 32 27  1  0  0  0  0
 32 66  1  0  0  0  0
M  END
>  <MOL Chiral Flag>
0

>  <energy>
121.43757362009654

$$$$
> 509_AKC_j.ejmech.2012.10.047
>493.sdf
 OpenBabel10062214453D

 33 34  0  0  0  0  0  0  0  0999 V2000
    2.5740   -3.1450   -2.5302 C   0  0  0  0  0  0  0  0  0  0  0  0
    3.7505   -2.8056   -1.8910 O   0  0  0  0  0  0  0  0  0  0  0  0
    3.9438   -1.6862   -1.1406 C   0  0  0  0  0  0  0  0  0  0  0  0
    5.2063   -1.4647   -0.5717 C   0  0  0  0  0  0  0  0  0  0  0  0
    6.1985   -2.3538   -0.7870 O   0  0  0  0  0  0  0  0  0  0  0  0
    5.4335   -0.3249    0.2155 C   0  0  0  0  0  0  0  0  0  0  0  0
    4.4075    0.5982    0.4367 C   0  0  0  0  0  0  0  0  0  0  0  0
    3.1413    0.3929   -0.1264 C   0  0  0  0  0  0  0  0  0  0  0  0
    2.0564    1.3752    0.1040 C   0  0  0  0  0  0  0  0  0  0  0  0
    0.8842    1.1487   -0.3749 N   0  0  0  0  0  0  0  0  0  0  0  0
   -0.1623    2.0311   -0.2345 N   0  0  0  0  0  0  0  0  0  0  0  0
   -1.3892    1.6796   -0.6963 C   0  0  0  0  0  0  0  0  0  0  0  0
   -1.5534    0.5726   -1.1896 O   0  0  0  0  0  0  0  0  0  0  0  0
   -2.5292    2.6179   -0.6312 C   0  0  0  0  0  0  0  0  0  0  0  0
   -2.4699    3.8803   -0.1489 N   0  0  0  0  0  0  0  0  0  0  0  0
   -3.6679    4.3817   -0.2895 O   0  0  0  0  0  0  0  0  0  0  0  0
   -4.4934    3.5337   -0.8270 N   0  3  0  0  0  0  0  0  0  0  0  0
   -5.7728    3.7792   -1.0905 O   0  5  0  0  0  0  0  0  0  0  0  0
   -3.8233    2.3984   -1.0621 C   0  0  0  0  0  0  0  0  0  0  0  0
   -4.3966    1.1577   -1.6760 C   0  0  0  0  0  0  0  0  0  0  0  0
    2.9137   -0.7512   -0.9153 C   0  0  0  0  0  0  0  0  0  0  0  0
    2.7024   -4.1280   -3.0276 H   0  0  0  0  0  0  0  0  0  0  0  0
    1.7449   -3.2332   -1.7957 H   0  0  0  0  0  0  0  0  0  0  0  0
    2.3225   -2.3871   -3.3030 H   0  0  0  0  0  0  0  0  0  0  0  0
    7.0838   -2.2304   -0.4163 H   0  0  0  0  0  0  0  0  0  0  0  0
    6.4074   -0.1555    0.6571 H   0  0  0  0  0  0  0  0  0  0  0  0
    4.6002    1.4712    1.0483 H   0  0  0  0  0  0  0  0  0  0  0  0
    2.2534    2.2809    0.6732 H   0  0  0  0  0  0  0  0  0  0  0  0
   -0.0105    2.9584    0.1937 H   0  0  0  0  0  0  0  0  0  0  0  0
   -5.4683    1.2975   -1.9253 H   0  0  0  0  0  0  0  0  0  0  0  0
   -3.8435    0.9103   -2.6062 H   0  0  0  0  0  0  0  0  0  0  0  0
   -4.3046    0.3139   -0.9600 H   0  0  0  0  0  0  0  0  0  0  0  0
    1.9374   -0.9090   -1.3524 H   0  0  0  0  0  0  0  0  0  0  0  0
  1 22  1  0  0  0  0
  1 23  1  0  0  0  0
  1 24  1  0  0  0  0
  2  1  1  0  0  0  0
  3  2  1  0  0  0  0
  4  3  2  0  0  0  0
  5  4  1  0  0  0  0
  5 25  1  0  0  0  0
  6  4  1  0  0  0  0
  6 26  1  0  0  0  0
  7  6  2  0  0  0  0
  7 27  1  0  0  0  0
  8  7  1  0  0  0  0
  9  8  1  0  0  0  0
  9 28  1  0  0  0  0
 10  9  2  0  0  0  0
 11 10  1  0  0  0  0
 11 29  1  0  0  0  0
 12 11  1  0  0  0  0
 13 12  2  0  0  0  0
 14 12  1  0  0  0  0
 15 14  2  0  0  0  0
 16 15  1  0  0  0  0
 17 16  1  0  0  0  0
 18 17  1  0  0  0  0
 19 17  2  0  0  0  0
 19 14  1  0  0  0  0
 20 19  1  0  0  0  0
 20 30  1  0  0  0  0
 20 31  1  0  0  0  0
 20 32  1  0  0  0  0
 21  8  2  0  0  0  0
 21  3  1  0  0  0  0
 21 33  1  0  0  0  0
M  CHG  2  17   1  18  -1
M  END
>  <MOL Chiral Flag>
0

>  <energy>
100.8407277553319

$$$$
> 510_AKC_journal.pntd.0001987
>494.sdf
 OpenBabel10062214453D

 46 48  0  0  0  0  0  0  0  0999 V2000
   -1.8794    5.4558    3.5998 C   0  0  0  0  0  0  0  0  0  0  0  0
   -0.6001    4.9999    3.0244 N   0  3  0  0  0  0  0  0  0  0  0  0
    0.4608    5.1486    4.0420 C   0  0  0  0  0  0  0  0  0  0  0  0
   -0.7425    3.5946    2.5714 C   0  0  0  0  0  0  0  0  0  0  0  0
    0.4522    3.0869    1.7378 C   0  0  0  0  0  0  0  0  0  0  0  0
    0.2620    1.5911    1.4091 C   0  0  0  0  0  0  0  0  0  0  0  0
    1.4323    1.0180    0.7095 N   0  0  0  0  0  0  0  0  0  0  0  0
    2.3565    0.2460    1.5562 C   0  0  0  0  0  0  0  0  0  0  0  0
    2.4242    0.5474    2.9553 C   0  0  0  0  0  0  0  0  0  0  0  0
    3.2525   -0.1454    3.8293 C   0  0  0  0  0  0  0  0  0  0  0  0
    4.0568   -1.1639    3.3632 C   0  0  0  0  0  0  0  0  0  0  0  0
    4.0375   -1.4951    2.0180 C   0  0  0  0  0  0  0  0  0  0  0  0
    3.1998   -0.8167    1.1002 C   0  0  0  0  0  0  0  0  0  0  0  0
    3.2774   -1.2633   -0.3200 C   0  0  0  0  0  0  0  0  0  0  0  0
    3.7198   -0.0914   -1.1461 C   0  0  0  0  0  0  0  0  0  0  0  0
    2.5260    0.6742   -1.6169 C   0  0  0  0  0  0  0  0  0  0  0  0
    2.4317    0.8501   -3.0191 C   0  0  0  0  0  0  0  0  0  0  0  0
    1.3843    1.5443   -3.5959 C   0  0  0  0  0  0  0  0  0  0  0  0
    0.4049    2.0920   -2.7966 C   0  0  0  0  0  0  0  0  0  0  0  0
    0.4506    1.9296   -1.4155 C   0  0  0  0  0  0  0  0  0  0  0  0
    1.4944    1.1965   -0.7577 C   0  0  0  0  0  0  0  0  0  0  0  0
   -1.8070    6.5153    3.9310 H   0  0  0  0  0  0  0  0  0  0  0  0
   -2.1724    4.8308    4.4739 H   0  0  0  0  0  0  0  0  0  0  0  0
   -2.6901    5.4049    2.8403 H   0  0  0  0  0  0  0  0  0  0  0  0
   -0.3787    5.6141    2.2054 H   0  0  0  0  0  0  0  0  0  0  0  0
    0.5022    6.1959    4.4147 H   0  0  0  0  0  0  0  0  0  0  0  0
    1.4626    4.9346    3.6198 H   0  0  0  0  0  0  0  0  0  0  0  0
    0.2821    4.4759    4.9112 H   0  0  0  0  0  0  0  0  0  0  0  0
   -1.6444    3.4968    1.9247 H   0  0  0  0  0  0  0  0  0  0  0  0
   -0.8891    2.9333    3.4564 H   0  0  0  0  0  0  0  0  0  0  0  0
    1.3903    3.1947    2.3116 H   0  0  0  0  0  0  0  0  0  0  0  0
    0.5585    3.6951    0.8157 H   0  0  0  0  0  0  0  0  0  0  0  0
   -0.6833    1.3610    0.8783 H   0  0  0  0  0  0  0  0  0  0  0  0
    0.0524    1.0386    2.3466 H   0  0  0  0  0  0  0  0  0  0  0  0
    1.8440    1.3365    3.4015 H   0  0  0  0  0  0  0  0  0  0  0  0
    3.2686    0.1170    4.8798 H   0  0  0  0  0  0  0  0  0  0  0  0
    4.7024   -1.6992    4.0473 H   0  0  0  0  0  0  0  0  0  0  0  0
    4.6857   -2.2972    1.6867 H   0  0  0  0  0  0  0  0  0  0  0  0
    4.0601   -2.0497   -0.4120 H   0  0  0  0  0  0  0  0  0  0  0  0
    2.3335   -1.7157   -0.6959 H   0  0  0  0  0  0  0  0  0  0  0  0
    4.2731   -0.4915   -2.0256 H   0  0  0  0  0  0  0  0  0  0  0  0
    4.4485    0.5509   -0.6016 H   0  0  0  0  0  0  0  0  0  0  0  0
    3.1876    0.4430   -3.6808 H   0  0  0  0  0  0  0  0  0  0  0  0
    1.3372    1.6632   -4.6713 H   0  0  0  0  0  0  0  0  0  0  0  0
   -0.4089    2.6444   -3.2496 H   0  0  0  0  0  0  0  0  0  0  0  0
   -0.3607    2.3910   -0.8832 H   0  0  0  0  0  0  0  0  0  0  0  0
  1 22  1  0  0  0  0
  1 23  1  0  0  0  0
  1 24  1  0  0  0  0
  2  1  1  0  0  0  0
  2 25  1  0  0  0  0
  3  2  1  0  0  0  0
  3 26  1  0  0  0  0
  3 27  1  0  0  0  0
  3 28  1  0  0  0  0
  4  2  1  0  0  0  0
  4 29  1  0  0  0  0
  4 30  1  0  0  0  0
  5  4  1  0  0  0  0
  5 31  1  0  0  0  0
  5 32  1  0  0  0  0
  6  5  1  0  0  0  0
  6 33  1  0  0  0  0
  6 34  1  0  0  0  0
  7  6  1  0  0  0  0
  8  7  1  0  0  0  0
  9  8  2  0  0  0  0
  9 35  1  0  0  0  0
 10  9  1  0  0  0  0
 10 36  1  0  0  0  0
 11 10  2  0  0  0  0
 11 37  1  0  0  0  0
 12 11  1  0  0  0  0
 12 38  1  0  0  0  0
 13 12  2  0  0  0  0
 13  8  1  0  0  0  0
 14 13  1  0  0  0  0
 14 39  1  0  0  0  0
 14 40  1  0  0  0  0
 15 14  1  0  0  0  0
 15 41  1  0  0  0  0
 15 42  1  0  0  0  0
 16 15  1  0  0  0  0
 17 16  2  0  0  0  0
 17 43  1  0  0  0  0
 18 17  1  0  0  0  0
 18 44  1  0  0  0  0
 19 18  2  0  0  0  0
 19 45  1  0  0  0  0
 20 19  1  0  0  0  0
 20 46  1  0  0  0  0
 21 20  2  0  0  0  0
 21  7  1  0  0  0  0
 21 16  1  0  0  0  0
M  CHG  1   2   1
M  END
>  <MOL Chiral Flag>
0

>  <energy>
63.628461872922955

$$$$
> 511_AKC_j.ejmech.2012.06.021
>495.sdf
 OpenBabel10062214463D

 86 91  0  0  0  0  0  0  0  0999 V2000
   -2.4850   -4.2595   -5.4385 C   0  0  0  0  0  0  0  0  0  0  0  0
   -2.2275   -3.9419   -3.9991 C   0  0  0  0  0  0  0  0  0  0  0  0
   -1.6537   -4.7565   -3.2926 O   0  0  0  0  0  0  0  0  0  0  0  0
   -2.6540   -2.7493   -3.5031 O   0  0  0  0  0  0  0  0  0  0  0  0
   -2.1631   -2.0412   -2.4467 C   0  0  0  0  0  0  0  0  0  0  0  0
   -0.9641   -2.3775   -1.7787 C   0  0  0  0  0  0  0  0  0  0  0  0
   -0.4626   -1.5532   -0.7643 C   0  0  0  0  0  0  0  0  0  0  0  0
   -1.1378   -0.3783   -0.4034 C   0  0  0  0  0  0  0  0  0  0  0  0
   -2.3428   -0.0576   -1.0560 C   0  0  0  0  0  0  0  0  0  0  0  0
   -2.8499   -0.8858   -2.0594 C   0  0  0  0  0  0  0  0  0  0  0  0
   -0.5134    0.5967    0.5793 C   0  0  1  0  0  0  0  0  0  0  0  0
   -0.2961    1.7462   -0.1774 O   0  0  0  0  0  0  0  0  0  0  0  0
   -0.3460    3.0274    0.2672 C   0  0  0  0  0  0  0  0  0  0  0  0
   -0.2085    4.0665   -0.6602 C   0  0  0  0  0  0  0  0  0  0  0  0
   -0.2201    5.4091   -0.2379 C   0  0  0  0  0  0  0  0  0  0  0  0
   -0.1500    6.4872   -1.0783 O   0  0  0  0  0  0  0  0  0  0  0  0
   -0.1373    6.6618   -2.4368 C   0  0  0  0  0  0  0  0  0  0  0  0
   -0.1077    5.5445   -3.4416 C   0  0  0  0  0  0  0  0  0  0  0  0
   -0.1529    7.8052   -2.8649 O   0  0  0  0  0  0  0  0  0  0  0  0
   -0.3179    5.6735    1.1383 C   0  0  0  0  0  0  0  0  0  0  0  0
   -0.4636    4.6343    2.0787 C   0  0  0  0  0  0  0  0  0  0  0  0
   -0.5881    4.9237    3.3901 O   0  0  0  0  0  0  0  0  0  0  0  0
   -0.5167    3.3005    1.6355 C   0  0  0  0  0  0  0  0  0  0  0  0
   -0.8081    2.1393    2.5256 C   0  0  0  0  0  0  0  0  0  0  0  0
   -0.7522    2.2199    3.7429 O   0  0  0  0  0  0  0  0  0  0  0  0
   -1.3768    0.9238    1.8294 C   0  0  2  0  0  0  0  0  0  0  0  0
   -1.8498   -0.2957    2.6614 C   0  0  0  0  0  0  0  0  0  0  0  0
   -1.0690   -0.9616    3.6801 C   0  0  0  0  0  0  0  0  0  0  0  0
    0.1428   -0.4973    4.0803 O   0  0  0  0  0  0  0  0  0  0  0  0
    0.8363   -1.0699    5.0919 C   0  0  0  0  0  0  0  0  0  0  0  0
    0.3512   -2.2433    5.6770 C   0  0  0  0  0  0  0  0  0  0  0  0
   -0.8495   -2.7690    5.3078 C   0  0  0  0  0  0  0  0  0  0  0  0
   -1.2162   -3.7850    5.8709 O   0  0  0  0  0  0  0  0  0  0  0  0
   -1.6280   -2.1268    4.3315 C   0  0  0  0  0  0  0  0  0  0  0  0
   -2.9338   -2.5786    3.9873 C   0  0  0  0  0  0  0  0  0  0  0  0
   -3.5642   -3.6373    4.5605 O   0  0  0  0  0  0  0  0  0  0  0  0
   -3.6592   -1.9029    3.0410 C   0  0  0  0  0  0  0  0  0  0  0  0
   -3.1589   -0.7900    2.3703 C   0  0  0  0  0  0  0  0  0  0  0  0
   -3.9504   -0.1575    1.4551 O   0  0  0  0  0  0  0  0  0  0  0  0
   -4.9791   -0.7078    0.7483 C   0  0  0  0  0  0  0  0  0  0  0  0
   -6.0440    0.1761    0.1889 C   0  0  0  0  0  0  0  0  0  0  0  0
   -5.0201   -1.9110    0.5305 O   0  0  0  0  0  0  0  0  0  0  0  0
    2.0983   -0.4977    5.6934 C   0  0  0  0  0  0  0  0  0  0  0  0
    2.3554   -0.7314    7.0690 C   0  0  0  0  0  0  0  0  0  0  0  0
    3.5062   -0.2751    7.6862 C   0  0  0  0  0  0  0  0  0  0  0  0
    4.4714    0.4152    6.9579 C   0  0  0  0  0  0  0  0  0  0  0  0
    5.6136    0.8616    7.5518 O   0  0  0  0  0  0  0  0  0  0  0  0
    6.2622    0.3018    8.6146 C   0  0  0  0  0  0  0  0  0  0  0  0
    6.3904   -1.1943    8.7783 C   0  0  0  0  0  0  0  0  0  0  0  0
    6.8535    1.0306    9.3954 O   0  0  0  0  0  0  0  0  0  0  0  0
    4.2469    0.6861    5.5954 C   0  0  0  0  0  0  0  0  0  0  0  0
    5.2441    1.3038    4.9145 O   0  0  0  0  0  0  0  0  0  0  0  0
    5.2175    1.6684    3.6149 C   0  0  0  0  0  0  0  0  0  0  0  0
    6.3203    1.2117    2.7192 C   0  0  0  0  0  0  0  0  0  0  0  0
    4.3046    2.3509    3.1749 O   0  0  0  0  0  0  0  0  0  0  0  0
    3.0436    0.2446    4.9627 C   0  0  0  0  0  0  0  0  0  0  0  0
   -2.0784   -5.2584   -5.7047 H   0  0  0  0  0  0  0  0  0  0  0  0
   -1.9859   -3.4951   -6.0722 H   0  0  0  0  0  0  0  0  0  0  0  0
   -3.5751   -4.2420   -5.6427 H   0  0  0  0  0  0  0  0  0  0  0  0
   -0.3848   -3.2423   -2.0562 H   0  0  0  0  0  0  0  0  0  0  0  0
    0.4788   -1.8076   -0.2952 H   0  0  0  0  0  0  0  0  0  0  0  0
   -2.8734    0.8546   -0.8151 H   0  0  0  0  0  0  0  0  0  0  0  0
   -3.7660   -0.6074   -2.5670 H   0  0  0  0  0  0  0  0  0  0  0  0
    0.4695    0.2084    0.9237 H   0  0  0  0  0  0  0  0  0  0  0  0
   -0.1089    3.7884   -1.6880 H   0  0  0  0  0  0  0  0  0  0  0  0
   -1.0156    4.9127   -3.3535 H   0  0  0  0  0  0  0  0  0  0  0  0
   -0.0981    5.9556   -4.4754 H   0  0  0  0  0  0  0  0  0  0  0  0
    0.8207    4.9497   -3.3200 H   0  0  0  0  0  0  0  0  0  0  0  0
   -0.3099    6.7027    1.4764 H   0  0  0  0  0  0  0  0  0  0  0  0
   -0.5432    5.8345    3.7148 H   0  0  0  0  0  0  0  0  0  0  0  0
   -2.2852    1.3656    1.3753 H   0  0  0  0  0  0  0  0  0  0  0  0
    0.9077   -2.7636    6.4441 H   0  0  0  0  0  0  0  0  0  0  0  0
   -3.2667   -4.1972    5.2800 H   0  0  0  0  0  0  0  0  0  0  0  0
   -4.6607   -2.2548    2.8411 H   0  0  0  0  0  0  0  0  0  0  0  0
   -6.7942   -0.4234   -0.3706 H   0  0  0  0  0  0  0  0  0  0  0  0
   -5.5918    0.9227   -0.4946 H   0  0  0  0  0  0  0  0  0  0  0  0
   -6.5580    0.6996    1.0223 H   0  0  0  0  0  0  0  0  0  0  0  0
    1.6505   -1.2568    7.6958 H   0  0  0  0  0  0  0  0  0  0  0  0
    3.6358   -0.4621    8.7430 H   0  0  0  0  0  0  0  0  0  0  0  0
    6.8992   -1.6135    7.8859 H   0  0  0  0  0  0  0  0  0  0  0  0
    7.0075   -1.4333    9.6722 H   0  0  0  0  0  0  0  0  0  0  0  0
    5.4202   -1.7064    8.9057 H   0  0  0  0  0  0  0  0  0  0  0  0
    6.8691    2.0772    2.2989 H   0  0  0  0  0  0  0  0  0  0  0  0
    5.8878    0.6004    1.8999 H   0  0  0  0  0  0  0  0  0  0  0  0
    7.0287    0.5736    3.2925 H   0  0  0  0  0  0  0  0  0  0  0  0
    2.8719    0.4245    3.9112 H   0  0  0  0  0  0  0  0  0  0  0  0
  1 57  1  0  0  0  0
  1 58  1  0  0  0  0
  1 59  1  0  0  0  0
  2  1  1  0  0  0  0
  3  2  2  0  0  0  0
  4  2  1  0  0  0  0
  5  4  1  0  0  0  0
  6  5  2  0  0  0  0
  6 60  1  0  0  0  0
  7  6  1  0  0  0  0
  7 61  1  0  0  0  0
  8  7  2  0  0  0  0
  9  8  1  0  0  0  0
  9 62  1  0  0  0  0
 10  9  2  0  0  0  0
 10  5  1  0  0  0  0
 10 63  1  0  0  0  0
 11  8  1  0  0  0  0
 11 64  1  1  0  0  0
 12 11  1  0  0  0  0
 13 12  1  0  0  0  0
 14 13  2  0  0  0  0
 14 65  1  0  0  0  0
 15 14  1  0  0  0  0
 16 15  1  0  0  0  0
 17 16  1  0  0  0  0
 18 17  1  0  0  0  0
 18 66  1  0  0  0  0
 18 67  1  0  0  0  0
 18 68  1  0  0  0  0
 19 17  2  0  0  0  0
 20 15  2  0  0  0  0
 20 69  1  0  0  0  0
 21 20  1  0  0  0  0
 22 21  1  0  0  0  0
 22 70  1  0  0  0  0
 23 21  2  0  0  0  0
 23 13  1  0  0  0  0
 24 23  1  0  0  0  0
 25 24  2  0  0  0  0
 26 24  1  0  0  0  0
 26 11  1  0  0  0  0
 26 71  1  6  0  0  0
 27 26  1  0  0  0  0
 28 27  2  0  0  0  0
 29 28  1  0  0  0  0
 30 29  1  0  0  0  0
 31 30  2  0  0  0  0
 31 72  1  0  0  0  0
 32 31  1  0  0  0  0
 33 32  2  0  0  0  0
 34 32  1  0  0  0  0
 34 28  1  0  0  0  0
 35 34  2  0  0  0  0
 36 35  1  0  0  0  0
 36 73  1  0  0  0  0
 37 35  1  0  0  0  0
 37 74  1  0  0  0  0
 38 37  2  0  0  0  0
 38 27  1  0  0  0  0
 39 38  1  0  0  0  0
 40 39  1  0  0  0  0
 41 40  1  0  0  0  0
 41 75  1  0  0  0  0
 41 76  1  0  0  0  0
 41 77  1  0  0  0  0
 42 40  2  0  0  0  0
 43 30  1  0  0  0  0
 44 43  2  0  0  0  0
 44 78  1  0  0  0  0
 45 44  1  0  0  0  0
 45 79  1  0  0  0  0
 46 45  2  0  0  0  0
 47 46  1  0  0  0  0
 48 47  1  0  0  0  0
 49 48  1  0  0  0  0
 49 80  1  0  0  0  0
 49 81  1  0  0  0  0
 49 82  1  0  0  0  0
 50 48  2  0  0  0  0
 51 46  1  0  0  0  0
 52 51  1  0  0  0  0
 53 52  1  0  0  0  0
 54 53  1  0  0  0  0
 54 83  1  0  0  0  0
 54 84  1  0  0  0  0
 54 85  1  0  0  0  0
 55 53  2  0  0  0  0
 56 51  2  0  0  0  0
 56 43  1  0  0  0  0
 56 86  1  0  0  0  0
M  END
>  <MOL Chiral Flag>
0

>  <energy>
226.90875096516365

$$$$
> 512_AKC_j.ejmech.2012.10.048
>496.sdf
 OpenBabel10062214463D

 50 53  0  0  0  0  0  0  0  0999 V2000
   -5.4470   -1.4770   -0.0233 C   0  0  0  0  0  0  0  0  0  0  0  0
   -4.4102   -2.5701   -0.3408 C   0  0  0  0  0  0  0  0  0  0  0  0
   -4.8988   -3.9176    0.2288 C   0  0  0  0  0  0  0  0  0  0  0  0
   -4.2612   -2.7005   -1.8709 C   0  0  0  0  0  0  0  0  0  0  0  0
   -3.0653   -2.1734    0.2532 C   0  0  0  0  0  0  0  0  0  0  0  0
   -2.5844   -2.7979    1.1898 O   0  0  0  0  0  0  0  0  0  0  0  0
   -2.3416   -1.2139   -0.3768 O   0  0  0  0  0  0  0  0  0  0  0  0
   -1.1954   -0.6239    0.0398 C   0  0  0  0  0  0  0  0  0  0  0  0
   -0.2780   -0.2292   -0.9314 C   0  0  0  0  0  0  0  0  0  0  0  0
    0.8918    0.4344   -0.5769 C   0  0  0  0  0  0  0  0  0  0  0  0
    1.1621    0.7469    0.7672 C   0  0  0  0  0  0  0  0  0  0  0  0
    0.2471    0.3252    1.7543 C   0  0  0  0  0  0  0  0  0  0  0  0
   -0.9217   -0.3627    1.3946 C   0  0  0  0  0  0  0  0  0  0  0  0
    2.3558    1.5919    1.0826 C   0  0  0  0  0  0  0  0  0  0  0  0
    3.5727    1.6223    0.3918 C   0  0  0  0  0  0  0  0  0  0  0  0
    4.3374    2.6274    0.8744 N   0  0  0  0  0  0  0  0  0  0  0  0
    3.5935    3.1878    1.8432 C   0  0  0  0  0  0  0  0  0  0  0  0
    3.9655    4.2905    2.6089 C   0  0  0  0  0  0  0  0  0  0  0  0
    3.0418    4.7880    3.5357 C   0  0  0  0  0  0  0  0  0  0  0  0
    1.7796    4.1834    3.6633 C   0  0  0  0  0  0  0  0  0  0  0  0
    1.4583    3.0732    2.8677 C   0  0  0  0  0  0  0  0  0  0  0  0
    2.3895    2.5985    1.9924 N   0  0  0  0  0  0  0  0  0  0  0  0
    4.0374    0.7328   -0.6870 C   0  0  0  0  0  0  0  0  0  0  0  0
    4.0802   -0.6590   -0.4993 C   0  0  0  0  0  0  0  0  0  0  0  0
    4.5551   -1.4891   -1.5217 C   0  0  0  0  0  0  0  0  0  0  0  0
    4.9555   -0.9379   -2.7428 C   0  0  0  0  0  0  0  0  0  0  0  0
    4.8998    0.4450   -2.9376 C   0  0  0  0  0  0  0  0  0  0  0  0
    4.4606    1.2806   -1.9065 C   0  0  0  0  0  0  0  0  0  0  0  0
   -6.4343   -1.7330   -0.4668 H   0  0  0  0  0  0  0  0  0  0  0  0
   -5.1285   -0.4924   -0.4281 H   0  0  0  0  0  0  0  0  0  0  0  0
   -5.5794   -1.3758    1.0761 H   0  0  0  0  0  0  0  0  0  0  0  0
   -4.1618   -4.7191    0.0019 H   0  0  0  0  0  0  0  0  0  0  0  0
   -5.8708   -4.2059   -0.2270 H   0  0  0  0  0  0  0  0  0  0  0  0
   -5.0314   -3.8612    1.3300 H   0  0  0  0  0  0  0  0  0  0  0  0
   -5.2254   -2.9905   -2.3405 H   0  0  0  0  0  0  0  0  0  0  0  0
   -3.4953   -3.4627   -2.1290 H   0  0  0  0  0  0  0  0  0  0  0  0
   -3.9494   -1.7309   -2.3197 H   0  0  0  0  0  0  0  0  0  0  0  0
   -0.4835   -0.4255   -1.9763 H   0  0  0  0  0  0  0  0  0  0  0  0
    1.5532    0.7541   -1.3676 H   0  0  0  0  0  0  0  0  0  0  0  0
    0.4270    0.5230    2.8001 H   0  0  0  0  0  0  0  0  0  0  0  0
   -1.6225   -0.6530    2.1664 H   0  0  0  0  0  0  0  0  0  0  0  0
    4.9331    4.7583    2.4805 H   0  0  0  0  0  0  0  0  0  0  0  0
    3.2923    5.6493    4.1408 H   0  0  0  0  0  0  0  0  0  0  0  0
    1.0546    4.5789    4.3623 H   0  0  0  0  0  0  0  0  0  0  0  0
    0.4768    2.6410    2.9542 H   0  0  0  0  0  0  0  0  0  0  0  0
    3.7802   -1.0947    0.4460 H   0  0  0  0  0  0  0  0  0  0  0  0
    4.6145   -2.5592   -1.3681 H   0  0  0  0  0  0  0  0  0  0  0  0
    5.3109   -1.5814   -3.5375 H   0  0  0  0  0  0  0  0  0  0  0  0
    5.1999    0.8703   -3.8865 H   0  0  0  0  0  0  0  0  0  0  0  0
    4.4199    2.3509   -2.0664 H   0  0  0  0  0  0  0  0  0  0  0  0
  1 29  1  0  0  0  0
  1 30  1  0  0  0  0
  1 31  1  0  0  0  0
  2  1  1  0  0  0  0
  3  2  1  0  0  0  0
  3 32  1  0  0  0  0
  3 33  1  0  0  0  0
  3 34  1  0  0  0  0
  4  2  1  0  0  0  0
  4 35  1  0  0  0  0
  4 36  1  0  0  0  0
  4 37  1  0  0  0  0
  5  2  1  0  0  0  0
  6  5  2  0  0  0  0
  7  5  1  0  0  0  0
  8  7  1  0  0  0  0
  9  8  2  0  0  0  0
  9 38  1  0  0  0  0
 10  9  1  0  0  0  0
 10 39  1  0  0  0  0
 11 10  2  0  0  0  0
 12 11  1  0  0  0  0
 12 40  1  0  0  0  0
 13 12  2  0  0  0  0
 13  8  1  0  0  0  0
 13 41  1  0  0  0  0
 14 11  1  0  0  0  0
 15 14  2  0  0  0  0
 16 15  1  0  0  0  0
 17 16  2  0  0  0  0
 18 17  1  0  0  0  0
 18 42  1  0  0  0  0
 19 18  2  0  0  0  0
 19 43  1  0  0  0  0
 20 19  1  0  0  0  0
 20 44  1  0  0  0  0
 21 20  2  0  0  0  0
 21 45  1  0  0  0  0
 22 21  1  0  0  0  0
 22 14  1  0  0  0  0
 22 17  1  0  0  0  0
 23 15  1  0  0  0  0
 24 23  2  0  0  0  0
 24 46  1  0  0  0  0
 25 24  1  0  0  0  0
 25 47  1  0  0  0  0
 26 25  2  0  0  0  0
 26 48  1  0  0  0  0
 27 26  1  0  0  0  0
 27 49  1  0  0  0  0
 28 27  2  0  0  0  0
 28 23  1  0  0  0  0
 28 50  1  0  0  0  0
M  END
>  <MOL Chiral Flag>
0

>  <energy>
101.06553216261828

$$$$
> 513_AKC_s00044-011-9886-8
>497.sdf
 OpenBabel10062214473D

 52 55  0  0  0  0  0  0  0  0999 V2000
    0.3524    4.7520   -0.8208 C   0  0  0  0  0  0  0  0  0  0  0  0
   -0.9287    4.6208   -1.5824 C   0  0  0  0  0  0  0  0  0  0  0  0
   -1.5318    3.4031   -1.7102 N   0  0  0  0  0  0  0  0  0  0  0  0
   -2.6962    3.2352   -2.4000 C   0  0  0  0  0  0  0  0  0  0  0  0
   -3.3179    1.9533   -2.5324 C   0  0  0  0  0  0  0  0  0  0  0  0
   -2.8376    0.8000   -1.9792 O   0  0  0  0  0  0  0  0  0  0  0  0
   -1.7906    0.6815   -1.0927 C   0  0  0  0  0  0  0  0  0  0  0  0
   -1.6339   -0.7726   -0.6259 C   0  0  0  0  0  0  0  0  0  0  0  0
   -0.5744   -0.8081    0.4739 C   0  0  0  0  0  0  0  0  0  0  0  0
   -0.2873   -2.0939    0.8992 O   0  0  0  0  0  0  0  0  0  0  0  0
    0.2584   -2.3346    2.1216 C   0  0  0  0  0  0  0  0  0  0  0  0
   -0.3797   -1.8683    3.2852 C   0  0  0  0  0  0  0  0  0  0  0  0
    0.1802   -2.1046    4.5422 C   0  0  0  0  0  0  0  0  0  0  0  0
   -0.6229   -1.5060    5.9824 Cl  0  0  0  0  0  0  0  0  0  0  0  0
    1.3773   -2.8158    4.6518 C   0  0  0  0  0  0  0  0  0  0  0  0
    2.0125   -3.3024    3.5056 C   0  0  0  0  0  0  0  0  0  0  0  0
    1.4672   -3.0635    2.2375 C   0  0  0  0  0  0  0  0  0  0  0  0
    2.1182   -3.5275    1.1400 O   0  0  0  0  0  0  0  0  0  0  0  0
    2.3832   -2.7656    0.0476 C   0  0  0  0  0  0  0  0  0  0  0  0
    2.7128   -1.4026    0.1833 C   0  0  0  0  0  0  0  0  0  0  0  0
    2.9592   -0.6208   -0.9465 C   0  0  0  0  0  0  0  0  0  0  0  0
    2.8833   -1.1896   -2.2199 C   0  0  0  0  0  0  0  0  0  0  0  0
    3.1702   -0.1990   -3.6381 Cl  0  0  0  0  0  0  0  0  0  0  0  0
    2.5763   -2.5475   -2.3624 C   0  0  0  0  0  0  0  0  0  0  0  0
    2.3340   -3.3382   -1.2320 C   0  0  0  0  0  0  0  0  0  0  0  0
    1.9349   -5.0371   -1.4315 Cl  0  0  0  0  0  0  0  0  0  0  0  0
   -4.5084    1.8543   -3.2639 C   0  0  0  0  0  0  0  0  0  0  0  0
   -5.0924    2.9774   -3.8502 C   0  0  0  0  0  0  0  0  0  0  0  0
   -4.4954    4.2284   -3.7221 C   0  0  0  0  0  0  0  0  0  0  0  0
   -3.3028    4.3664   -3.0055 C   0  0  0  0  0  0  0  0  0  0  0  0
   -2.6967    5.6225   -2.8785 C   0  0  0  0  0  0  0  0  0  0  0  0
   -1.5081    5.7507   -2.1673 C   0  0  0  0  0  0  0  0  0  0  0  0
    0.6796    3.7687   -0.4230 H   0  0  0  0  0  0  0  0  0  0  0  0
    0.2134    5.4547    0.0283 H   0  0  0  0  0  0  0  0  0  0  0  0
    1.1458    5.1491   -1.4897 H   0  0  0  0  0  0  0  0  0  0  0  0
   -2.0080    1.3159   -0.2054 H   0  0  0  0  0  0  0  0  0  0  0  0
   -0.8407    1.0044   -1.5736 H   0  0  0  0  0  0  0  0  0  0  0  0
   -2.5947   -1.1482   -0.2097 H   0  0  0  0  0  0  0  0  0  0  0  0
   -1.3404   -1.4147   -1.4859 H   0  0  0  0  0  0  0  0  0  0  0  0
    0.3557   -0.3567    0.0832 H   0  0  0  0  0  0  0  0  0  0  0  0
   -0.9269   -0.1744    1.3137 H   0  0  0  0  0  0  0  0  0  0  0  0
   -1.3150   -1.3280    3.2150 H   0  0  0  0  0  0  0  0  0  0  0  0
    1.8158   -2.9908    5.6258 H   0  0  0  0  0  0  0  0  0  0  0  0
    2.9430   -3.8473    3.6010 H   0  0  0  0  0  0  0  0  0  0  0  0
    2.7690   -0.9471    1.1644 H   0  0  0  0  0  0  0  0  0  0  0  0
    3.1998    0.4285   -0.8305 H   0  0  0  0  0  0  0  0  0  0  0  0
    2.5197   -2.9863   -3.3501 H   0  0  0  0  0  0  0  0  0  0  0  0
   -4.9920    0.8915   -3.3711 H   0  0  0  0  0  0  0  0  0  0  0  0
   -6.0156    2.8766   -4.4052 H   0  0  0  0  0  0  0  0  0  0  0  0
   -4.9635    5.0902   -4.1833 H   0  0  0  0  0  0  0  0  0  0  0  0
   -3.1432    6.5000   -3.3314 H   0  0  0  0  0  0  0  0  0  0  0  0
   -1.0387    6.7228   -2.0720 H   0  0  0  0  0  0  0  0  0  0  0  0
  1 33  1  0  0  0  0
  1 34  1  0  0  0  0
  1 35  1  0  0  0  0
  2  1  1  0  0  0  0
  3  2  2  0  0  0  0
  4  3  1  0  0  0  0
  5  4  2  0  0  0  0
  6  5  1  0  0  0  0
  7  6  1  0  0  0  0
  7 36  1  0  0  0  0
  7 37  1  0  0  0  0
  8  7  1  0  0  0  0
  8 38  1  0  0  0  0
  8 39  1  0  0  0  0
  9  8  1  0  0  0  0
  9 40  1  0  0  0  0
  9 41  1  0  0  0  0
 10  9  1  0  0  0  0
 11 10  1  0  0  0  0
 12 11  2  0  0  0  0
 12 42  1  0  0  0  0
 13 12  1  0  0  0  0
 14 13  1  0  0  0  0
 15 13  2  0  0  0  0
 15 43  1  0  0  0  0
 16 15  1  0  0  0  0
 16 44  1  0  0  0  0
 17 16  2  0  0  0  0
 17 11  1  0  0  0  0
 18 17  1  0  0  0  0
 19 18  1  0  0  0  0
 20 19  2  0  0  0  0
 20 45  1  0  0  0  0
 21 20  1  0  0  0  0
 21 46  1  0  0  0  0
 22 21  2  0  0  0  0
 23 22  1  0  0  0  0
 24 22  1  0  0  0  0
 24 47  1  0  0  0  0
 25 24  2  0  0  0  0
 25 19  1  0  0  0  0
 26 25  1  0  0  0  0
 27  5  1  0  0  0  0
 27 48  1  0  0  0  0
 28 27  2  0  0  0  0
 28 49  1  0  0  0  0
 29 28  1  0  0  0  0
 29 50  1  0  0  0  0
 30 29  2  0  0  0  0
 30  4  1  0  0  0  0
 31 30  1  0  0  0  0
 31 51  1  0  0  0  0
 32 31  2  0  0  0  0
 32  2  1  0  0  0  0
 32 52  1  0  0  0  0
M  END
>  <MOL Chiral Flag>
0

>  <energy>
112.44989831514978

$$$$
> 514_AKC_S0100-736X2012001100015
>498.sdf
 OpenBabel10062214473D

 32 34  0  0  0  0  0  0  0  0999 V2000
   -0.2065   -5.4801   -0.0978 O   0  0  0  0  0  0  0  0  0  0  0  0
   -0.7362   -4.2503   -0.2566 C   0  0  0  0  0  0  0  0  0  0  0  0
    0.0210   -3.1116    0.0312 C   0  0  0  0  0  0  0  0  0  0  0  0
   -0.5244   -1.8394   -0.1404 C   0  0  0  0  0  0  0  0  0  0  0  0
   -1.8501   -1.6848   -0.6067 C   0  0  0  0  0  0  0  0  0  0  0  0
   -2.6188   -2.8418   -0.8926 C   0  0  0  0  0  0  0  0  0  0  0  0
   -3.8882   -2.7361   -1.3410 O   0  0  0  0  0  0  0  0  0  0  0  0
   -2.0493   -4.1150   -0.7147 C   0  0  0  0  0  0  0  0  0  0  0  0
   -2.3425   -0.3702   -0.7727 C   0  0  0  0  0  0  0  0  0  0  0  0
   -3.4797   -0.1693   -1.1641 O   0  0  0  0  0  0  0  0  0  0  0  0
   -1.5050    0.7182   -0.4919 C   0  0  0  0  0  0  0  0  0  0  0  0
   -1.9692    1.9792   -0.6551 O   0  0  0  0  0  0  0  0  0  0  0  0
   -0.1957    0.4662   -0.0344 C   0  0  0  0  0  0  0  0  0  0  0  0
    0.2271   -0.7807    0.1276 O   0  0  0  0  0  0  0  0  0  0  0  0
    0.7618    1.5459    0.2258 C   0  0  0  0  0  0  0  0  0  0  0  0
    1.0648    1.9229    1.5396 C   0  0  0  0  0  0  0  0  0  0  0  0
    2.0133    2.9235    1.7849 C   0  0  0  0  0  0  0  0  0  0  0  0
    2.2787    3.2801    3.0594 O   0  0  0  0  0  0  0  0  0  0  0  0
    2.6796    3.5356    0.7046 C   0  0  0  0  0  0  0  0  0  0  0  0
    3.6103    4.4854    0.9336 O   0  0  0  0  0  0  0  0  0  0  0  0
    2.3765    3.1474   -0.6095 C   0  0  0  0  0  0  0  0  0  0  0  0
    1.4174    2.1619   -0.8472 C   0  0  0  0  0  0  0  0  0  0  0  0
    0.7017   -5.6044    0.2143 H   0  0  0  0  0  0  0  0  0  0  0  0
    1.0404   -3.2122    0.3831 H   0  0  0  0  0  0  0  0  0  0  0  0
   -4.4236   -3.5162   -1.5465 H   0  0  0  0  0  0  0  0  0  0  0  0
   -2.6287   -5.0027   -0.9369 H   0  0  0  0  0  0  0  0  0  0  0  0
   -1.4411    2.7618   -0.4450 H   0  0  0  0  0  0  0  0  0  0  0  0
    0.5609    1.4439    2.3709 H   0  0  0  0  0  0  0  0  0  0  0  0
    2.9203    3.9699    3.2796 H   0  0  0  0  0  0  0  0  0  0  0  0
    4.0941    4.9089    0.2099 H   0  0  0  0  0  0  0  0  0  0  0  0
    2.8896    3.6044   -1.4463 H   0  0  0  0  0  0  0  0  0  0  0  0
    1.2011    1.8597   -1.8650 H   0  0  0  0  0  0  0  0  0  0  0  0
  1 23  1  0  0  0  0
  2  1  1  0  0  0  0
  3  2  2  0  0  0  0
  3 24  1  0  0  0  0
  4  3  1  0  0  0  0
  5  4  2  0  0  0  0
  6  5  1  0  0  0  0
  7  6  1  0  0  0  0
  7 25  1  0  0  0  0
  8  6  2  0  0  0  0
  8  2  1  0  0  0  0
  8 26  1  0  0  0  0
  9  5  1  0  0  0  0
 10  9  2  0  0  0  0
 11  9  1  0  0  0  0
 12 11  1  0  0  0  0
 12 27  1  0  0  0  0
 13 11  2  0  0  0  0
 14 13  1  0  0  0  0
 14  4  1  0  0  0  0
 15 13  1  0  0  0  0
 16 15  2  0  0  0  0
 16 28  1  0  0  0  0
 17 16  1  0  0  0  0
 18 17  1  0  0  0  0
 18 29  1  0  0  0  0
 19 17  2  0  0  0  0
 20 19  1  0  0  0  0
 20 30  1  0  0  0  0
 21 19  1  0  0  0  0
 21 31  1  0  0  0  0
 22 21  2  0  0  0  0
 22 15  1  0  0  0  0
 22 32  1  0  0  0  0
M  END
>  <MOL Chiral Flag>
0

>  <energy>
63.971425027842251

$$$$
> 515_AKC_j.exppara.2012.08.019
>499.sdf
 OpenBabel10062214473D

 41 41  0  0  0  0  0  0  0  0999 V2000
   -4.9204   -9.3185   -2.9421 C   0  0  0  0  0  0  0  0  0  0  0  0
   -4.2747   -8.0225   -3.4253 C   0  0  0  0  0  0  0  0  0  0  0  0
   -3.1923   -7.5390   -2.4488 C   0  0  0  0  0  0  0  0  0  0  0  0
   -2.5605   -6.2291   -2.9356 C   0  0  0  0  0  0  0  0  0  0  0  0
   -1.4931   -5.7054   -1.9576 C   0  0  0  0  0  0  0  0  0  0  0  0
   -0.8689   -4.4173   -2.5062 C   0  0  0  0  0  0  0  0  0  0  0  0
    0.1713   -3.8047   -1.5977 C   0  0  0  0  0  0  0  0  0  0  0  0
    0.8444   -2.7285   -2.0315 C   0  0  0  0  0  0  0  0  0  0  0  0
    1.9058   -2.0153   -1.2208 C   0  0  0  0  0  0  0  0  0  0  0  0
    2.5405   -0.9408   -2.1253 C   0  0  0  0  0  0  0  0  0  0  0  0
    3.5921   -0.0153   -1.5550 C   0  0  0  0  0  0  0  0  0  0  0  0
    3.9727   -0.0037   -0.1990 C   0  0  0  0  0  0  0  0  0  0  0  0
    4.9415    0.9091    0.2493 C   0  0  0  0  0  0  0  0  0  0  0  0
    5.5387    1.8046   -0.6467 C   0  0  0  0  0  0  0  0  0  0  0  0
    6.4659    2.6804   -0.2041 O   0  0  0  0  0  0  0  0  0  0  0  0
    5.1683    1.7877   -1.9954 C   0  0  0  0  0  0  0  0  0  0  0  0
    4.2013    0.8877   -2.4426 C   0  0  0  0  0  0  0  0  0  0  0  0
   -5.3973   -9.1653   -1.9506 H   0  0  0  0  0  0  0  0  0  0  0  0
   -5.7013   -9.6386   -3.6643 H   0  0  0  0  0  0  0  0  0  0  0  0
   -4.1597  -10.1237   -2.8616 H   0  0  0  0  0  0  0  0  0  0  0  0
   -3.8272   -8.1971   -4.4284 H   0  0  0  0  0  0  0  0  0  0  0  0
   -5.0658   -7.2466   -3.5202 H   0  0  0  0  0  0  0  0  0  0  0  0
   -3.6500   -7.3750   -1.4491 H   0  0  0  0  0  0  0  0  0  0  0  0
   -2.4022   -8.3170   -2.3602 H   0  0  0  0  0  0  0  0  0  0  0  0
   -2.0977   -6.4020   -3.9329 H   0  0  0  0  0  0  0  0  0  0  0  0
   -3.3574   -5.4601   -3.0444 H   0  0  0  0  0  0  0  0  0  0  0  0
   -0.6950   -6.4701   -1.8326 H   0  0  0  0  0  0  0  0  0  0  0  0
   -1.9623   -5.5070   -0.9696 H   0  0  0  0  0  0  0  0  0  0  0  0
   -0.3916   -4.6540   -3.4828 H   0  0  0  0  0  0  0  0  0  0  0  0
   -1.6674   -3.6610   -2.6753 H   0  0  0  0  0  0  0  0  0  0  0  0
    0.3790   -4.2311   -0.6196 H   0  0  0  0  0  0  0  0  0  0  0  0
    0.6178   -2.3555   -3.0287 H   0  0  0  0  0  0  0  0  0  0  0  0
    1.4343   -1.5631   -0.3215 H   0  0  0  0  0  0  0  0  0  0  0  0
    2.6934   -2.7332   -0.9029 H   0  0  0  0  0  0  0  0  0  0  0  0
    1.7309   -0.2867   -2.5179 H   0  0  0  0  0  0  0  0  0  0  0  0
    3.0053   -1.4793   -2.9815 H   0  0  0  0  0  0  0  0  0  0  0  0
    3.5223   -0.6809    0.5131 H   0  0  0  0  0  0  0  0  0  0  0  0
    5.2257    0.9237    1.2938 H   0  0  0  0  0  0  0  0  0  0  0  0
    6.8896    3.3152   -0.8003 H   0  0  0  0  0  0  0  0  0  0  0  0
    5.6245    2.4730   -2.6989 H   0  0  0  0  0  0  0  0  0  0  0  0
    3.9227    0.8906   -3.4896 H   0  0  0  0  0  0  0  0  0  0  0  0
  1 18  1  0  0  0  0
  1 19  1  0  0  0  0
  1 20  1  0  0  0  0
  2  1  1  0  0  0  0
  2 21  1  0  0  0  0
  2 22  1  0  0  0  0
  3  2  1  0  0  0  0
  3 23  1  0  0  0  0
  3 24  1  0  0  0  0
  4  3  1  0  0  0  0
  4 25  1  0  0  0  0
  4 26  1  0  0  0  0
  5  4  1  0  0  0  0
  5 27  1  0  0  0  0
  5 28  1  0  0  0  0
  6  5  1  0  0  0  0
  6 29  1  0  0  0  0
  6 30  1  0  0  0  0
  7  6  1  0  0  0  0
  7 31  1  0  0  0  0
  8  7  2  0  0  0  0
  8 32  1  0  0  0  0
  9  8  1  0  0  0  0
  9 33  1  0  0  0  0
  9 34  1  0  0  0  0
 10  9  1  0  0  0  0
 10 35  1  0  0  0  0
 10 36  1  0  0  0  0
 11 10  1  0  0  0  0
 12 11  2  0  0  0  0
 12 37  1  0  0  0  0
 13 12  1  0  0  0  0
 13 38  1  0  0  0  0
 14 13  2  0  0  0  0
 15 14  1  0  0  0  0
 15 39  1  0  0  0  0
 16 14  1  0  0  0  0
 16 40  1  0  0  0  0
 17 16  2  0  0  0  0
 17 11  1  0  0  0  0
 17 41  1  0  0  0  0
M  END
>  <MOL Chiral Flag>
0

>  <energy>
23.516564214228186

$$$$
> 516_AKC_cbdd.12017
>500.sdf
 OpenBabel10062214493D

 92 93  0  0  0  0  0  0  0  0999 V2000
    6.0875   -1.5526   -1.1435 C   0  0  0  0  0  0  0  0  0  0  0  0
    7.1258   -1.6790   -0.2478 O   0  0  0  0  0  0  0  0  0  0  0  0
    8.3787   -1.2454   -0.5265 C   0  0  0  0  0  0  0  0  0  0  0  0
    8.6150   -0.6592   -1.5749 O   0  0  0  0  0  0  0  0  0  0  0  0
    9.5076   -1.5310    0.4073 C   0  0  0  0  0  0  0  0  0  0  0  0
    9.1315   -2.3208    1.6837 C   0  0  0  0  0  0  0  0  0  0  0  0
    8.3311   -1.6283    2.7161 N   0  0  0  0  0  0  0  0  0  0  0  0
    7.2251   -2.3611    3.3678 C   0  0  0  0  0  0  0  0  0  0  0  0
    5.8138   -1.6847    3.5413 C   0  0  0  0  0  0  0  0  0  0  0  0
    4.7426   -1.7895    2.3993 C   0  0  0  0  0  0  0  0  0  0  0  0
    3.2824   -1.5502    2.9620 C   0  0  0  0  0  0  0  0  0  0  0  0
    2.0664   -1.7346    1.9761 C   0  0  0  0  0  0  0  0  0  0  0  0
    0.6582   -1.6726    2.7013 C   0  0  0  0  0  0  0  0  0  0  0  0
   -0.6253   -1.8070    1.7857 C   0  0  0  0  0  0  0  0  0  0  0  0
   -2.0084   -1.8302    2.5656 C   0  0  0  0  0  0  0  0  0  0  0  0
   -3.3105   -1.8840    1.6661 C   0  0  0  0  0  0  0  0  0  0  0  0
   -4.5380   -1.9904    2.4272 O   0  0  0  0  0  0  0  0  0  0  0  0
   -5.6841   -1.5240    1.6807 C   0  0  0  0  0  0  0  0  0  0  0  0
   -7.0830   -1.9262    2.3099 C   0  0  0  0  0  0  0  0  0  0  0  0
   -8.3156   -1.2719    1.5661 C   0  0  0  0  0  0  0  0  0  0  0  0
   -9.7488   -1.4940    2.1262 C   0  0  0  0  0  0  0  0  0  0  0  0
  -10.0400   -1.1841    3.4590 C   0  0  0  0  0  0  0  0  0  0  0  0
  -11.3369   -1.3364    3.9489 C   0  0  0  0  0  0  0  0  0  0  0  0
  -12.3605   -1.7771    3.1099 C   0  0  0  0  0  0  0  0  0  0  0  0
  -12.1266   -2.0546    1.7877 N   0  3  0  0  0  0  0  0  0  0  0  0
  -10.8284   -1.9381    1.2993 C   0  0  0  0  0  0  0  0  0  0  0  0
  -13.2273   -2.5527    0.9344 C   0  0  0  0  0  0  0  0  0  0  0  0
  -14.6186   -2.1364    1.0461 C   0  0  0  0  0  0  0  0  0  0  0  0
  -15.5964   -2.7926    0.2505 C   0  0  0  0  0  0  0  0  0  0  0  0
  -15.2562   -3.8030   -0.6592 C   0  0  0  0  0  0  0  0  0  0  0  0
  -13.9139   -4.1660   -0.7868 C   0  0  0  0  0  0  0  0  0  0  0  0
  -12.9269   -3.5588   -0.0103 C   0  0  0  0  0  0  0  0  0  0  0  0
  -16.2660   -4.4451   -1.4502 N   0  0  0  0  0  0  0  0  0  0  0  0
  -17.4127   -4.1361   -1.3386 O   0  0  0  0  0  0  0  0  0  0  0  0
  -15.9672   -5.3077   -2.2239 O   0  0  0  0  0  0  0  0  0  0  0  0
  -15.0680   -1.0489    1.8763 N   0  0  0  0  0  0  0  0  0  0  0  0
  -14.3075   -0.1920    2.2100 O   0  0  0  0  0  0  0  0  0  0  0  0
  -16.2380   -0.8673    2.0362 O   0  0  0  0  0  0  0  0  0  0  0  0
    8.8150   -0.4692    3.2842 C   0  0  0  0  0  0  0  0  0  0  0  0
    9.7839    0.0928    2.7994 O   0  0  0  0  0  0  0  0  0  0  0  0
    8.2883   -0.0048    4.4533 O   0  0  0  0  0  0  0  0  0  0  0  0
    8.5504    1.2137    5.0838 C   0  0  0  0  0  0  0  0  0  0  0  0
   10.0627    1.4866    5.3026 C   0  0  0  0  0  0  0  0  0  0  0  0
    7.9271    2.3515    4.2611 C   0  0  0  0  0  0  0  0  0  0  0  0
    7.8847    1.1538    6.4661 C   0  0  0  0  0  0  0  0  0  0  0  0
    6.3298   -2.1012   -2.0799 H   0  0  0  0  0  0  0  0  0  0  0  0
    5.9112   -0.4802   -1.3737 H   0  0  0  0  0  0  0  0  0  0  0  0
    5.1703   -1.9894   -0.7035 H   0  0  0  0  0  0  0  0  0  0  0  0
   10.2349   -2.1548   -0.1593 H   0  0  0  0  0  0  0  0  0  0  0  0
   10.0373   -0.5882    0.6336 H   0  0  0  0  0  0  0  0  0  0  0  0
    8.6651   -3.2829    1.3826 H   0  0  0  0  0  0  0  0  0  0  0  0
   10.1017   -2.5901    2.1611 H   0  0  0  0  0  0  0  0  0  0  0  0
    7.5883   -2.5564    4.4030 H   0  0  0  0  0  0  0  0  0  0  0  0
    7.0779   -3.3678    2.9229 H   0  0  0  0  0  0  0  0  0  0  0  0
    5.3725   -2.2854    4.3659 H   0  0  0  0  0  0  0  0  0  0  0  0
    5.8963   -0.6470    3.9266 H   0  0  0  0  0  0  0  0  0  0  0  0
    4.9930   -1.0823    1.5815 H   0  0  0  0  0  0  0  0  0  0  0  0
    4.7705   -2.8245    1.9967 H   0  0  0  0  0  0  0  0  0  0  0  0
    3.2321   -0.5315    3.4031 H   0  0  0  0  0  0  0  0  0  0  0  0
    3.1360   -2.2858    3.7819 H   0  0  0  0  0  0  0  0  0  0  0  0
    2.1562   -2.7281    1.4864 H   0  0  0  0  0  0  0  0  0  0  0  0
    2.1270   -0.9514    1.1907 H   0  0  0  0  0  0  0  0  0  0  0  0
    0.5886   -0.7077    3.2470 H   0  0  0  0  0  0  0  0  0  0  0  0
    0.6362   -2.4939    3.4497 H   0  0  0  0  0  0  0  0  0  0  0  0
   -0.6266   -0.9537    1.0750 H   0  0  0  0  0  0  0  0  0  0  0  0
   -0.5448   -2.7472    1.1989 H   0  0  0  0  0  0  0  0  0  0  0  0
   -2.0058   -2.7190    3.2327 H   0  0  0  0  0  0  0  0  0  0  0  0
   -2.0719   -0.9220    3.2016 H   0  0  0  0  0  0  0  0  0  0  0  0
   -3.2355   -2.7708    1.0005 H   0  0  0  0  0  0  0  0  0  0  0  0
   -3.3077   -0.9627    1.0405 H   0  0  0  0  0  0  0  0  0  0  0  0
   -5.6650   -1.9217    0.6409 H   0  0  0  0  0  0  0  0  0  0  0  0
   -5.6434   -0.4136    1.6475 H   0  0  0  0  0  0  0  0  0  0  0  0
   -7.1903   -3.0321    2.3015 H   0  0  0  0  0  0  0  0  0  0  0  0
   -7.0960   -1.5836    3.3657 H   0  0  0  0  0  0  0  0  0  0  0  0
   -8.1506   -0.1740    1.5966 H   0  0  0  0  0  0  0  0  0  0  0  0
   -8.2947   -1.5814    0.4996 H   0  0  0  0  0  0  0  0  0  0  0  0
   -9.2653   -0.8280    4.1230 H   0  0  0  0  0  0  0  0  0  0  0  0
  -11.5559   -1.1144    4.9862 H   0  0  0  0  0  0  0  0  0  0  0  0
  -13.3452   -1.9141    3.5410 H   0  0  0  0  0  0  0  0  0  0  0  0
  -10.6234   -2.1521    0.2596 H   0  0  0  0  0  0  0  0  0  0  0  0
  -16.6371   -2.4969    0.3246 H   0  0  0  0  0  0  0  0  0  0  0  0
  -13.6252   -4.9423   -1.4833 H   0  0  0  0  0  0  0  0  0  0  0  0
  -11.9151   -3.9139   -0.1254 H   0  0  0  0  0  0  0  0  0  0  0  0
   10.2025    2.4299    5.8763 H   0  0  0  0  0  0  0  0  0  0  0  0
   10.5397    0.6614    5.8723 H   0  0  0  0  0  0  0  0  0  0  0  0
   10.6185    1.6312    4.3554 H   0  0  0  0  0  0  0  0  0  0  0  0
    8.0618    3.3291    4.7717 H   0  0  0  0  0  0  0  0  0  0  0  0
    8.3980    2.4110    3.2572 H   0  0  0  0  0  0  0  0  0  0  0  0
    6.8397    2.1677    4.1250 H   0  0  0  0  0  0  0  0  0  0  0  0
    8.0202    2.1104    7.0163 H   0  0  0  0  0  0  0  0  0  0  0  0
    8.3393    0.3380    7.0712 H   0  0  0  0  0  0  0  0  0  0  0  0
    6.7986    0.9473    6.3683 H   0  0  0  0  0  0  0  0  0  0  0  0
  1 46  1  0  0  0  0
  1 47  1  0  0  0  0
  1 48  1  0  0  0  0
  2  1  1  0  0  0  0
  3  2  1  0  0  0  0
  4  3  2  0  0  0  0
  5  3  1  0  0  0  0
  5 49  1  0  0  0  0
  5 50  1  0  0  0  0
  6  5  1  0  0  0  0
  6 51  1  0  0  0  0
  6 52  1  0  0  0  0
  7  6  1  0  0  0  0
  8  7  1  0  0  0  0
  8 53  1  0  0  0  0
  8 54  1  0  0  0  0
  9  8  1  0  0  0  0
  9 55  1  0  0  0  0
  9 56  1  0  0  0  0
 10  9  1  0  0  0  0
 10 57  1  0  0  0  0
 10 58  1  0  0  0  0
 11 10  1  0  0  0  0
 11 59  1  0  0  0  0
 11 60  1  0  0  0  0
 12 11  1  0  0  0  0
 12 61  1  0  0  0  0
 12 62  1  0  0  0  0
 13 12  1  0  0  0  0
 13 63  1  0  0  0  0
 13 64  1  0  0  0  0
 14 13  1  0  0  0  0
 14 65  1  0  0  0  0
 14 66  1  0  0  0  0
 15 14  1  0  0  0  0
 15 67  1  0  0  0  0
 15 68  1  0  0  0  0
 16 15  1  0  0  0  0
 16 69  1  0  0  0  0
 16 70  1  0  0  0  0
 17 16  1  0  0  0  0
 18 17  1  0  0  0  0
 18 71  1  0  0  0  0
 18 72  1  0  0  0  0
 19 18  1  0  0  0  0
 19 73  1  0  0  0  0
 19 74  1  0  0  0  0
 20 19  1  0  0  0  0
 20 75  1  0  0  0  0
 20 76  1  0  0  0  0
 21 20  1  0  0  0  0
 22 21  2  0  0  0  0
 22 77  1  0  0  0  0
 23 22  1  0  0  0  0
 23 78  1  0  0  0  0
 24 23  2  0  0  0  0
 24 79  1  0  0  0  0
 25 24  1  0  0  0  0
 26 25  2  0  0  0  0
 26 21  1  0  0  0  0
 26 80  1  0  0  0  0
 27 25  1  0  0  0  0
 28 27  2  0  0  0  0
 29 28  1  0  0  0  0
 29 81  1  0  0  0  0
 30 29  2  0  0  0  0
 31 30  1  0  0  0  0
 31 82  1  0  0  0  0
 32 31  2  0  0  0  0
 32 27  1  0  0  0  0
 32 83  1  0  0  0  0
 33 30  1  0  0  0  0
 34 33  2  0  0  0  0
 35 33  2  0  0  0  0
 36 28  1  0  0  0  0
 37 36  2  0  0  0  0
 38 36  2  0  0  0  0
 39  7  1  0  0  0  0
 40 39  2  0  0  0  0
 41 39  1  0  0  0  0
 42 41  1  0  0  0  0
 43 42  1  0  0  0  0
 43 84  1  0  0  0  0
 43 85  1  0  0  0  0
 43 86  1  0  0  0  0
 44 42  1  0  0  0  0
 44 87  1  0  0  0  0
 44 88  1  0  0  0  0
 44 89  1  0  0  0  0
 45 42  1  0  0  0  0
 45 90  1  0  0  0  0
 45 91  1  0  0  0  0
 45 92  1  0  0  0  0
M  CHG  1  25   1
M  END
>  <MOL Chiral Flag>
0

>  <energy>
103.97986274674999

$$$$
> 517_AKC_jm301172v
>501.sdf
 OpenBabel10062214503D

 95101  0  0  0  0  0  0  0  0999 V2000
    8.5308   -8.7815   -3.6067 O   0  0  0  0  0  0  0  0  0  0  0  0
    8.0469   -7.8848   -2.9333 C   0  0  0  0  0  0  0  0  0  0  0  0
    7.1837   -6.9731   -3.5236 C   0  0  0  0  0  0  0  0  0  0  0  0
    6.6109   -5.9452   -2.7450 C   0  0  0  0  0  0  0  0  0  0  0  0
    6.9372   -5.8416   -1.4530 O   0  0  0  0  0  0  0  0  0  0  0  0
    7.7485   -6.7093   -0.8437 C   0  0  0  0  0  0  0  0  0  0  0  0
    8.3268   -7.7788   -1.5683 C   0  0  0  0  0  0  0  0  0  0  0  0
    9.1460   -8.7101   -0.9071 C   0  0  0  0  0  0  0  0  0  0  0  0
    9.3814   -8.5856    0.4626 C   0  0  0  0  0  0  0  0  0  0  0  0
    8.8153   -7.5268    1.1789 C   0  0  0  0  0  0  0  0  0  0  0  0
    8.0048   -6.5882    0.5285 C   0  0  0  0  0  0  0  0  0  0  0  0
    5.5728   -5.0370   -3.3173 C   0  0  0  0  0  0  0  0  0  0  0  0
    5.2505   -3.8129   -2.6951 C   0  0  0  0  0  0  0  0  0  0  0  0
    4.2107   -3.0125   -3.2004 C   0  0  0  0  0  0  0  0  0  0  0  0
    3.4749   -3.4383   -4.3260 C   0  0  0  0  0  0  0  0  0  0  0  0
    2.4232   -2.7465   -4.8310 O   0  0  0  0  0  0  0  0  0  0  0  0
    1.6036   -1.8734   -4.1444 C   0  0  0  0  0  0  0  0  0  0  0  0
    0.8377   -2.6099   -3.0389 C   0  0  0  0  0  0  0  0  0  0  0  0
   -0.1474   -1.7457   -2.5229 O   0  0  0  0  0  0  0  0  0  0  0  0
   -0.6521   -2.2157   -1.2883 C   0  0  0  0  0  0  0  0  0  0  0  0
   -2.1313   -1.8008   -1.2042 C   0  0  0  0  0  0  0  0  0  0  0  0
   -2.7995   -2.0294    0.1054 N   0  3  0  0  0  0  0  0  0  0  0  0
   -2.2547   -1.1914    1.2105 C   0  0  0  0  0  0  0  0  0  0  0  0
   -2.5470    0.3027    1.0281 C   0  0  0  0  0  0  0  0  0  0  0  0
   -2.1234    0.9903    2.1882 O   0  0  0  0  0  0  0  0  0  0  0  0
   -2.8434    2.1969    2.3134 C   0  0  0  0  0  0  0  0  0  0  0  0
   -2.4135    2.9025    3.5972 C   0  0  0  0  0  0  0  0  0  0  0  0
   -3.1723    4.0223    3.9089 O   0  0  0  0  0  0  0  0  0  0  0  0
   -3.2487    5.1598    3.1737 C   0  0  0  0  0  0  0  0  0  0  0  0
   -3.8340    5.1825    1.8979 C   0  0  0  0  0  0  0  0  0  0  0  0
   -3.9008    6.3733    1.1698 C   0  0  0  0  0  0  0  0  0  0  0  0
   -3.3942    7.5749    1.7111 C   0  0  0  0  0  0  0  0  0  0  0  0
   -2.8317    7.5427    3.0025 C   0  0  0  0  0  0  0  0  0  0  0  0
   -2.7628    6.3482    3.7224 C   0  0  0  0  0  0  0  0  0  0  0  0
   -3.4418    8.8757    0.9737 C   0  0  0  0  0  0  0  0  0  0  0  0
   -3.8896    8.9784   -0.3614 C   0  0  0  0  0  0  0  0  0  0  0  0
   -3.9019   10.2252   -0.9875 C   0  0  0  0  0  0  0  0  0  0  0  0
   -4.2839   10.3183   -2.1425 O   0  0  0  0  0  0  0  0  0  0  0  0
   -3.4741   11.3554   -0.2775 C   0  0  0  0  0  0  0  0  0  0  0  0
   -3.0405   11.1840    1.0540 C   0  0  0  0  0  0  0  0  0  0  0  0
   -3.0387    9.9769    1.6109 O   0  0  0  0  0  0  0  0  0  0  0  0
   -2.6107   12.2893    1.7963 C   0  0  0  0  0  0  0  0  0  0  0  0
   -2.6087   13.5631    1.2212 C   0  0  0  0  0  0  0  0  0  0  0  0
   -3.0342   13.7384   -0.0988 C   0  0  0  0  0  0  0  0  0  0  0  0
   -3.4663   12.6412   -0.8503 C   0  0  0  0  0  0  0  0  0  0  0  0
   -2.8208   -3.4647    0.4894 C   0  0  0  0  0  0  0  0  0  0  0  0
   -3.8065   -3.7189    1.6185 C   0  0  0  0  0  0  0  0  0  0  0  0
   -5.1766   -3.4707    1.4339 C   0  0  0  0  0  0  0  0  0  0  0  0
   -6.0651   -3.6759    2.4911 C   0  0  0  0  0  0  0  0  0  0  0  0
   -5.6068   -4.1159    3.6928 N   0  0  0  0  0  0  0  0  0  0  0  0
   -4.2872   -4.3709    3.8996 C   0  0  0  0  0  0  0  0  0  0  0  0
   -3.3633   -4.1800    2.8676 C   0  0  0  0  0  0  0  0  0  0  0  0
    3.8104   -4.6361   -4.9466 C   0  0  0  0  0  0  0  0  0  0  0  0
    4.8390   -5.4274   -4.4556 C   0  0  0  0  0  0  0  0  0  0  0  0
    6.9629   -7.0798   -4.5745 H   0  0  0  0  0  0  0  0  0  0  0  0
    9.5880   -9.5402   -1.4460 H   0  0  0  0  0  0  0  0  0  0  0  0
   10.0002   -9.3147    0.9698 H   0  0  0  0  0  0  0  0  0  0  0  0
    9.0000   -7.4397    2.2415 H   0  0  0  0  0  0  0  0  0  0  0  0
    7.5636   -5.7779    1.0950 H   0  0  0  0  0  0  0  0  0  0  0  0
    5.7976   -3.4791   -1.8214 H   0  0  0  0  0  0  0  0  0  0  0  0
    3.9777   -2.0766   -2.7096 H   0  0  0  0  0  0  0  0  0  0  0  0
    0.8630   -1.4810   -4.8740 H   0  0  0  0  0  0  0  0  0  0  0  0
    2.1737   -1.0109   -3.7392 H   0  0  0  0  0  0  0  0  0  0  0  0
    1.5649   -2.9269   -2.2562 H   0  0  0  0  0  0  0  0  0  0  0  0
    0.3404   -3.5023   -3.4813 H   0  0  0  0  0  0  0  0  0  0  0  0
   -0.0547   -1.7416   -0.4861 H   0  0  0  0  0  0  0  0  0  0  0  0
   -0.5965   -3.3257   -1.1847 H   0  0  0  0  0  0  0  0  0  0  0  0
   -2.6835   -2.3467   -2.0031 H   0  0  0  0  0  0  0  0  0  0  0  0
   -2.2093   -0.7285   -1.4757 H   0  0  0  0  0  0  0  0  0  0  0  0
   -3.7930   -1.7381   -0.0485 H   0  0  0  0  0  0  0  0  0  0  0  0
   -1.1687   -1.3622    1.3612 H   0  0  0  0  0  0  0  0  0  0  0  0
   -2.7501   -1.4654    2.1668 H   0  0  0  0  0  0  0  0  0  0  0  0
   -3.6489    0.3895    0.8703 H   0  0  0  0  0  0  0  0  0  0  0  0
   -2.0097    0.7124    0.1486 H   0  0  0  0  0  0  0  0  0  0  0  0
   -3.9351    1.9910    2.4049 H   0  0  0  0  0  0  0  0  0  0  0  0
   -2.6147    2.8495    1.4440 H   0  0  0  0  0  0  0  0  0  0  0  0
   -1.3378    3.1770    3.5375 H   0  0  0  0  0  0  0  0  0  0  0  0
   -2.5355    2.1838    4.4355 H   0  0  0  0  0  0  0  0  0  0  0  0
   -4.2569    4.2896    1.4640 H   0  0  0  0  0  0  0  0  0  0  0  0
   -4.3606    6.3367    0.1962 H   0  0  0  0  0  0  0  0  0  0  0  0
   -2.4382    8.4432    3.4566 H   0  0  0  0  0  0  0  0  0  0  0  0
   -2.3230    6.3446    4.7119 H   0  0  0  0  0  0  0  0  0  0  0  0
   -4.2184    8.1186   -0.9233 H   0  0  0  0  0  0  0  0  0  0  0  0
   -2.2799   12.1604    2.8192 H   0  0  0  0  0  0  0  0  0  0  0  0
   -2.2766   14.4156    1.7994 H   0  0  0  0  0  0  0  0  0  0  0  0
   -3.0300   14.7266   -0.5401 H   0  0  0  0  0  0  0  0  0  0  0  0
   -3.7932   12.7961   -1.8712 H   0  0  0  0  0  0  0  0  0  0  0  0
   -1.7985   -3.7882    0.7885 H   0  0  0  0  0  0  0  0  0  0  0  0
   -3.1338   -4.0952   -0.3725 H   0  0  0  0  0  0  0  0  0  0  0  0
   -5.5531   -3.1170    0.4826 H   0  0  0  0  0  0  0  0  0  0  0  0
   -7.1207   -3.4798    2.3561 H   0  0  0  0  0  0  0  0  0  0  0  0
   -3.9534   -4.7160    4.8690 H   0  0  0  0  0  0  0  0  0  0  0  0
   -2.3136   -4.3760    3.0454 H   0  0  0  0  0  0  0  0  0  0  0  0
    3.2402   -4.9775   -5.8011 H   0  0  0  0  0  0  0  0  0  0  0  0
    5.0150   -6.3688   -4.9489 H   0  0  0  0  0  0  0  0  0  0  0  0
  2  1  2  0  0  0  0
  3  2  1  0  0  0  0
  3 55  1  0  0  0  0
  4  3  2  0  0  0  0
  5  4  1  0  0  0  0
  6  5  1  0  0  0  0
  7  6  2  0  0  0  0
  7  2  1  0  0  0  0
  8  7  1  0  0  0  0
  8 56  1  0  0  0  0
  9  8  2  0  0  0  0
  9 57  1  0  0  0  0
 10  9  1  0  0  0  0
 10 58  1  0  0  0  0
 11 10  2  0  0  0  0
 11  6  1  0  0  0  0
 11 59  1  0  0  0  0
 12  4  1  0  0  0  0
 13 12  2  0  0  0  0
 13 60  1  0  0  0  0
 14 13  1  0  0  0  0
 14 61  1  0  0  0  0
 15 14  2  0  0  0  0
 16 15  1  0  0  0  0
 17 16  1  0  0  0  0
 17 62  1  0  0  0  0
 17 63  1  0  0  0  0
 18 17  1  0  0  0  0
 18 64  1  0  0  0  0
 18 65  1  0  0  0  0
 19 18  1  0  0  0  0
 20 19  1  0  0  0  0
 20 66  1  0  0  0  0
 20 67  1  0  0  0  0
 21 20  1  0  0  0  0
 21 68  1  0  0  0  0
 21 69  1  0  0  0  0
 22 21  1  0  0  0  0
 22 70  1  0  0  0  0
 23 22  1  0  0  0  0
 23 71  1  0  0  0  0
 23 72  1  0  0  0  0
 24 23  1  0  0  0  0
 24 73  1  0  0  0  0
 24 74  1  0  0  0  0
 25 24  1  0  0  0  0
 26 25  1  0  0  0  0
 26 75  1  0  0  0  0
 26 76  1  0  0  0  0
 27 26  1  0  0  0  0
 27 77  1  0  0  0  0
 27 78  1  0  0  0  0
 28 27  1  0  0  0  0
 29 28  1  0  0  0  0
 30 29  2  0  0  0  0
 30 79  1  0  0  0  0
 31 30  1  0  0  0  0
 31 80  1  0  0  0  0
 32 31  2  0  0  0  0
 33 32  1  0  0  0  0
 33 81  1  0  0  0  0
 34 33  2  0  0  0  0
 34 29  1  0  0  0  0
 34 82  1  0  0  0  0
 35 32  1  0  0  0  0
 36 35  2  0  0  0  0
 36 83  1  0  0  0  0
 37 36  1  0  0  0  0
 38 37  2  0  0  0  0
 39 37  1  0  0  0  0
 40 39  2  0  0  0  0
 41 40  1  0  0  0  0
 41 35  1  0  0  0  0
 42 40  1  0  0  0  0
 42 84  1  0  0  0  0
 43 42  2  0  0  0  0
 43 85  1  0  0  0  0
 44 43  1  0  0  0  0
 44 86  1  0  0  0  0
 45 44  2  0  0  0  0
 45 39  1  0  0  0  0
 45 87  1  0  0  0  0
 46 22  1  0  0  0  0
 46 88  1  0  0  0  0
 46 89  1  0  0  0  0
 47 46  1  0  0  0  0
 48 47  2  0  0  0  0
 48 90  1  0  0  0  0
 49 48  1  0  0  0  0
 49 91  1  0  0  0  0
 50 49  2  0  0  0  0
 51 50  1  0  0  0  0
 51 92  1  0  0  0  0
 52 51  2  0  0  0  0
 52 47  1  0  0  0  0
 52 93  1  0  0  0  0
 53 15  1  0  0  0  0
 53 94  1  0  0  0  0
 54 53  2  0  0  0  0
 54 12  1  0  0  0  0
 54 95  1  0  0  0  0
M  CHG  1  22   1
M  END
>  <MOL Chiral Flag>
0

>  <energy>
230.45797373948614

$$$$
> 518_AKC_bpb.b12-00419
>502.sdf
 OpenBabel10042217573D

 20 21  0  0  0  0  0  0  0  0999 V2000
    2.0945   -1.6428    1.4189 O   0  0  0  0  0  0  0  0  0  0  0  0
    1.5366   -0.5982    0.7312 C   0  0  0  0  0  0  0  0  0  0  0  0
    2.3841    0.4746    0.4762 C   0  0  0  0  0  0  0  0  0  0  0  0
    1.9031    1.5860   -0.2075 C   0  0  0  0  0  0  0  0  0  0  0  0
    0.5766    1.6110   -0.6453 C   0  0  0  0  0  0  0  0  0  0  0  0
    0.1319    2.7297   -1.2888 O   0  0  0  0  0  0  0  0  0  0  0  0
   -0.2876    0.5264   -0.4052 C   0  0  0  0  0  0  0  0  0  0  0  0
    0.1975   -0.5764    0.3035 C   0  0  0  0  0  0  0  0  0  0  0  0
   -0.6884   -1.7111    0.6195 C   0  0  0  0  0  0  0  0  0  0  0  0
   -0.2097   -2.7082    1.1550 O   0  0  0  0  0  0  0  0  0  0  0  0
   -2.1294   -1.5901    0.3031 C   0  0  0  0  0  0  0  0  0  0  0  0
   -3.1403   -2.8698    0.8878 Cl  0  0  0  0  0  0  0  0  0  0  0  0
   -2.5947   -0.5528   -0.3987 C   0  0  0  0  0  0  0  0  0  0  0  0
   -4.2722   -0.3783   -0.8052 Cl  0  0  0  0  0  0  0  0  0  0  0  0
   -1.6891    0.5158   -0.9031 C   0  0  0  0  0  0  0  0  0  0  0  0
   -2.0920    1.3365   -1.7177 O   0  0  0  0  0  0  0  0  0  0  0  0
    1.4244   -2.3573    1.5164 H   0  0  0  0  0  0  0  0  0  0  0  0
    3.4161    0.4439    0.8186 H   0  0  0  0  0  0  0  0  0  0  0  0
    2.5721    2.4246   -0.3828 H   0  0  0  0  0  0  0  0  0  0  0  0
    0.8666    3.3364   -1.4760 H   0  0  0  0  0  0  0  0  0  0  0  0
  1 17  1  0  0  0  0
  2  1  1  0  0  0  0
  3  2  2  0  0  0  0
  3 18  1  0  0  0  0
  4  3  1  0  0  0  0
  4 19  1  0  0  0  0
  5  4  2  0  0  0  0
  6  5  1  0  0  0  0
  6 20  1  0  0  0  0
  7  5  1  0  0  0  0
  8  7  2  0  0  0  0
  8  2  1  0  0  0  0
  9  8  1  0  0  0  0
 10  9  2  0  0  0  0
 11  9  1  0  0  0  0
 12 11  1  0  0  0  0
 13 11  2  0  0  0  0
 14 13  1  0  0  0  0
 15 13  1  0  0  0  0
 15  7  1  0  0  0  0
 16 15  2  0  0  0  0
M  END
>  <energy>
38.804203227806987

$$$$
> 519_AKC_j.parint.2012.02.001
>503.sdf
 OpenBabel10062214513D

 53 55  0  0  0  0  0  0  0  0999 V2000
    1.3080    1.3304   -0.0018 H   0  0  0  0  0  0  0  0  0  0  0  0
    1.7896    0.5528    0.6408 C   0  0  2  0  0  0  0  0  0  0  0  0
    1.0991    0.7420    2.0314 C   0  0  0  0  0  0  0  0  0  0  0  0
   -0.1695   -0.1067    2.2204 C   0  0  0  0  0  0  0  0  0  0  0  0
   -0.9134   -0.3532    0.9290 C   0  0  0  0  0  0  0  0  0  0  0  0
   -0.2153   -0.7071   -0.1924 C   0  0  0  0  0  0  0  0  0  0  0  0
   -1.0010   -0.9324   -1.4568 C   0  0  0  0  0  0  0  0  0  0  0  0
   -0.4539   -1.2556   -2.4980 O   0  0  0  0  0  0  0  0  0  0  0  0
   -2.4707   -0.8003   -1.4654 C   0  0  0  0  0  0  0  0  0  0  0  0
   -3.1683   -0.4721   -0.3600 C   0  0  0  0  0  0  0  0  0  0  0  0
   -4.7041   -0.3739   -0.4815 C   0  0  0  0  0  0  0  0  0  0  0  0
   -5.3038   -1.7321   -0.8932 C   0  0  0  0  0  0  0  0  0  0  0  0
   -5.4457    0.1182    0.7716 C   0  0  0  0  0  0  0  0  0  0  0  0
   -2.4006   -0.2157    0.9032 C   0  0  0  0  0  0  0  0  0  0  0  0
   -2.9813    0.0895    1.9333 O   0  0  0  0  0  0  0  0  0  0  0  0
    1.3529   -0.7711   -0.1181 C   0  0  2  0  0  0  0  0  0  0  0  0
    1.7523   -2.1294    0.5322 C   0  0  0  0  0  0  0  0  0  0  0  0
    2.0254   -0.7316   -1.5301 C   0  0  0  0  0  0  0  0  0  0  0  0
    3.5475   -0.5070   -1.4845 C   0  0  0  0  0  0  0  0  0  0  0  0
    3.8574    0.8358   -0.8172 C   0  0  0  0  0  0  0  0  0  0  0  0
    3.3262    0.9277    0.6390 C   0  0  2  0  0  0  0  0  0  0  0  0
    4.1891    0.0215    1.5661 C   0  0  0  0  0  0  0  0  0  0  0  0
    3.5100    2.3853    1.0767 C   0  0  0  0  0  0  0  0  0  0  0  0
    4.1961    2.6639    2.0536 O   0  0  0  0  0  0  0  0  0  0  0  0
    2.9539    3.3790    0.3336 O   0  0  0  0  0  0  0  0  0  0  0  0
    3.2546    4.7133    0.5133 C   0  0  0  0  0  0  0  0  0  0  0  0
    0.8616    1.8238    2.1348 H   0  0  0  0  0  0  0  0  0  0  0  0
    1.7531    0.4799    2.8850 H   0  0  0  0  0  0  0  0  0  0  0  0
    0.1259   -1.0998    2.5898 H   0  0  0  0  0  0  0  0  0  0  0  0
   -0.7932    0.2911    3.0488 H   0  0  0  0  0  0  0  0  0  0  0  0
   -2.9904   -0.9777   -2.4023 H   0  0  0  0  0  0  0  0  0  0  0  0
   -4.9252    0.3648   -1.2838 H   0  0  0  0  0  0  0  0  0  0  0  0
   -5.1048   -2.4972   -0.1122 H   0  0  0  0  0  0  0  0  0  0  0  0
   -4.8834   -2.0928   -1.8539 H   0  0  0  0  0  0  0  0  0  0  0  0
   -6.4026   -1.6434   -1.0336 H   0  0  0  0  0  0  0  0  0  0  0  0
   -5.3249   -0.5949    1.6153 H   0  0  0  0  0  0  0  0  0  0  0  0
   -6.5332    0.2064    0.5599 H   0  0  0  0  0  0  0  0  0  0  0  0
   -5.0861    1.1266    1.0655 H   0  0  0  0  0  0  0  0  0  0  0  0
    1.2864   -2.9539   -0.0498 H   0  0  0  0  0  0  0  0  0  0  0  0
    2.8255   -2.3498    0.5055 H   0  0  0  0  0  0  0  0  0  0  0  0
    1.4438   -2.2680    1.5744 H   0  0  0  0  0  0  0  0  0  0  0  0
    1.8373   -1.6743   -2.0871 H   0  0  0  0  0  0  0  0  0  0  0  0
    1.6003    0.1162   -2.1137 H   0  0  0  0  0  0  0  0  0  0  0  0
    4.0741   -1.3351   -0.9744 H   0  0  0  0  0  0  0  0  0  0  0  0
    3.9328   -0.4780   -2.5267 H   0  0  0  0  0  0  0  0  0  0  0  0
    4.9518    1.0331   -0.8447 H   0  0  0  0  0  0  0  0  0  0  0  0
    3.3696    1.6179   -1.4424 H   0  0  0  0  0  0  0  0  0  0  0  0
    3.8776    0.0907    2.6267 H   0  0  0  0  0  0  0  0  0  0  0  0
    5.2522    0.3437    1.5224 H   0  0  0  0  0  0  0  0  0  0  0  0
    4.1987   -1.0364    1.2899 H   0  0  0  0  0  0  0  0  0  0  0  0
    4.3393    4.8822    0.3337 H   0  0  0  0  0  0  0  0  0  0  0  0
    2.6808    5.3186   -0.2178 H   0  0  0  0  0  0  0  0  0  0  0  0
    2.9909    5.0384    1.5417 H   0  0  0  0  0  0  0  0  0  0  0  0
  2  1  1  6  0  0  0
  3  2  1  0  0  0  0
  3 27  1  0  0  0  0
  3 28  1  0  0  0  0
  4  3  1  0  0  0  0
  4 29  1  0  0  0  0
  4 30  1  0  0  0  0
  5  4  1  0  0  0  0
  6  5  2  0  0  0  0
  7  6  1  0  0  0  0
  8  7  2  0  0  0  0
  9  7  1  0  0  0  0
  9 31  1  0  0  0  0
 10  9  2  0  0  0  0
 11 10  1  0  0  0  0
 11 32  1  0  0  0  0
 12 11  1  0  0  0  0
 12 33  1  0  0  0  0
 12 34  1  0  0  0  0
 12 35  1  0  0  0  0
 13 11  1  0  0  0  0
 13 36  1  0  0  0  0
 13 37  1  0  0  0  0
 13 38  1  0  0  0  0
 14 10  1  0  0  0  0
 14  5  1  0  0  0  0
 15 14  2  0  0  0  0
 16  6  1  0  0  0  0
 16  2  1  0  0  0  0
 16 17  1  1  0  0  0
 17 39  1  0  0  0  0
 17 40  1  0  0  0  0
 17 41  1  0  0  0  0
 18 16  1  0  0  0  0
 18 42  1  0  0  0  0
 18 43  1  0  0  0  0
 19 18  1  0  0  0  0
 19 44  1  0  0  0  0
 19 45  1  0  0  0  0
 20 19  1  0  0  0  0
 20 46  1  0  0  0  0
 20 47  1  0  0  0  0
 21 20  1  0  0  0  0
 21  2  1  0  0  0  0
 21 22  1  1  0  0  0
 22 48  1  0  0  0  0
 22 49  1  0  0  0  0
 22 50  1  0  0  0  0
 23 21  1  0  0  0  0
 24 23  2  0  0  0  0
 25 23  1  0  0  0  0
 26 25  1  0  0  0  0
 26 51  1  0  0  0  0
 26 52  1  0  0  0  0
 26 53  1  0  0  0  0
M  END
>  <MOL Chiral Flag>
0

>  <energy>
74.41002701224545

$$$$
> 520_AKC_j.parint.2012.02.001
>504.sdf
 OpenBabel10062214513D

 47 49  0  0  0  0  0  0  0  0999 V2000
    1.5879   -1.3844   -0.3392 H   0  0  0  0  0  0  0  0  0  0  0  0
    1.7448   -0.2741   -0.4248 C   0  0  2  0  0  0  0  0  0  0  0  0
    0.6380    0.1178   -1.4128 C   0  0  0  0  0  0  0  0  0  0  0  0
   -0.5419   -0.0120   -0.4895 C   0  0  0  0  0  0  0  0  0  0  0  0
   -0.1947    0.0205    0.7925 C   0  0  0  0  0  0  0  0  0  0  0  0
   -1.2228    0.0049    1.8516 C   0  0  0  0  0  0  0  0  0  0  0  0
   -0.8932    0.0677    3.0254 O   0  0  0  0  0  0  0  0  0  0  0  0
   -2.6664   -0.0628    1.4773 C   0  0  0  0  0  0  0  0  0  0  0  0
   -3.9159   -0.0771    2.9491 Br  0  0  0  0  0  0  0  0  0  0  0  0
   -3.0370   -0.0917    0.1519 C   0  0  0  0  0  0  0  0  0  0  0  0
   -4.4994   -0.1236   -0.3267 C   0  0  0  0  0  0  0  0  0  0  0  0
   -5.2440   -1.3984    0.0931 C   0  0  0  0  0  0  0  0  0  0  0  0
   -5.2660    1.1507    0.0571 C   0  0  0  0  0  0  0  0  0  0  0  0
   -1.9570   -0.0686   -0.8983 C   0  0  0  0  0  0  0  0  0  0  0  0
   -2.2359   -0.0782   -2.0873 O   0  0  0  0  0  0  0  0  0  0  0  0
    1.2812    0.2771    0.9544 C   0  0  2  0  0  0  0  0  0  0  0  0
    1.3846    1.8077    1.2091 C   0  0  0  0  0  0  0  0  0  0  0  0
    2.0609   -0.5063    2.0362 C   0  0  0  0  0  0  0  0  0  0  0  0
    3.5910   -0.3250    1.8178 C   0  0  0  0  0  0  0  0  0  0  0  0
    4.0292   -0.8305    0.4191 C   0  0  0  0  0  0  0  0  0  0  0  0
    3.2599   -0.1667   -0.7706 C   0  0  0  0  0  0  0  0  0  0  0  0
    3.5520   -0.9756   -2.0566 C   0  0  0  0  0  0  0  0  0  0  0  0
    3.7478    1.2747   -1.0375 C   0  0  0  0  0  0  0  0  0  0  0  0
    0.6159   -0.6002   -2.2609 H   0  0  0  0  0  0  0  0  0  0  0  0
    0.7064    1.1647   -1.7760 H   0  0  0  0  0  0  0  0  0  0  0  0
   -4.5092   -0.1392   -1.4370 H   0  0  0  0  0  0  0  0  0  0  0  0
   -5.3709   -1.4863    1.1860 H   0  0  0  0  0  0  0  0  0  0  0  0
   -6.2582   -1.4065   -0.3610 H   0  0  0  0  0  0  0  0  0  0  0  0
   -4.6958   -2.2920   -0.2736 H   0  0  0  0  0  0  0  0  0  0  0  0
   -5.3907    1.2689    1.1477 H   0  0  0  0  0  0  0  0  0  0  0  0
   -4.7304    2.0424   -0.3340 H   0  0  0  0  0  0  0  0  0  0  0  0
   -6.2802    1.1335   -0.3956 H   0  0  0  0  0  0  0  0  0  0  0  0
    0.9216    2.3883    0.3824 H   0  0  0  0  0  0  0  0  0  0  0  0
    2.3969    2.1925    1.3783 H   0  0  0  0  0  0  0  0  0  0  0  0
    0.8420    2.0625    2.1451 H   0  0  0  0  0  0  0  0  0  0  0  0
    1.8249   -1.5914    1.9655 H   0  0  0  0  0  0  0  0  0  0  0  0
    1.7714   -0.1676    3.0538 H   0  0  0  0  0  0  0  0  0  0  0  0
    3.8911    0.7328    1.9425 H   0  0  0  0  0  0  0  0  0  0  0  0
    4.1366   -0.9032    2.5940 H   0  0  0  0  0  0  0  0  0  0  0  0
    3.8142   -1.9229    0.4140 H   0  0  0  0  0  0  0  0  0  0  0  0
    5.1274   -0.7151    0.2888 H   0  0  0  0  0  0  0  0  0  0  0  0
    4.6392   -0.9674   -2.2888 H   0  0  0  0  0  0  0  0  0  0  0  0
    3.0100   -0.5473   -2.9268 H   0  0  0  0  0  0  0  0  0  0  0  0
    3.2386   -2.0359   -1.9433 H   0  0  0  0  0  0  0  0  0  0  0  0
    3.7111    1.9345   -0.1667 H   0  0  0  0  0  0  0  0  0  0  0  0
    4.8166    1.2632   -1.3416 H   0  0  0  0  0  0  0  0  0  0  0  0
    3.1627    1.7384   -1.8602 H   0  0  0  0  0  0  0  0  0  0  0  0
  2  1  1  1  0  0  0
  3  2  1  0  0  0  0
  3 24  1  0  0  0  0
  3 25  1  0  0  0  0
  4  3  1  0  0  0  0
  5  4  2  0  0  0  0
  6  5  1  0  0  0  0
  7  6  2  0  0  0  0
  8  6  1  0  0  0  0
  9  8  1  0  0  0  0
 10  8  2  0  0  0  0
 11 10  1  0  0  0  0
 11 26  1  0  0  0  0
 12 11  1  0  0  0  0
 12 27  1  0  0  0  0
 12 28  1  0  0  0  0
 12 29  1  0  0  0  0
 13 11  1  0  0  0  0
 13 30  1  0  0  0  0
 13 31  1  0  0  0  0
 13 32  1  0  0  0  0
 14 10  1  0  0  0  0
 14  4  1  0  0  0  0
 15 14  2  0  0  0  0
 16  5  1  0  0  0  0
 16  2  1  0  0  0  0
 16 17  1  1  0  0  0
 17 33  1  0  0  0  0
 17 34  1  0  0  0  0
 17 35  1  0  0  0  0
 18 16  1  0  0  0  0
 18 36  1  0  0  0  0
 18 37  1  0  0  0  0
 19 18  1  0  0  0  0
 19 38  1  0  0  0  0
 19 39  1  0  0  0  0
 20 19  1  0  0  0  0
 20 40  1  0  0  0  0
 20 41  1  0  0  0  0
 21 20  1  0  0  0  0
 21  2  1  0  0  0  0
 22 21  1  0  0  0  0
 22 42  1  0  0  0  0
 22 43  1  0  0  0  0
 22 44  1  0  0  0  0
 23 21  1  0  0  0  0
 23 45  1  0  0  0  0
 23 46  1  0  0  0  0
 23 47  1  0  0  0  0
M  END
>  <MOL Chiral Flag>
0

>  <energy>
84.471977398432216

$$$$
> 521_AKC_jac/dks159
>505.sdf
 OpenBabel10062214513D

 71 74  0  0  0  0  0  0  0  0999 V2000
    2.9710   -1.2087   -4.3280 C   0  0  0  0  0  0  0  0  0  0  0  0
    3.1636   -0.7600   -3.0371 O   0  0  0  0  0  0  0  0  0  0  0  0
    2.3346   -1.0851   -2.0073 C   0  0  0  0  0  0  0  0  0  0  0  0
    1.3387   -1.7520   -2.2209 O   0  0  0  0  0  0  0  0  0  0  0  0
    2.6692   -0.6402   -0.6196 C   0  0  0  0  0  0  0  0  0  0  0  0
    3.8058    0.0561   -0.3899 C   0  0  0  0  0  0  0  0  0  0  0  0
    4.1963    0.3798    0.8832 O   0  0  0  0  0  0  0  0  0  0  0  0
    3.6849   -0.1730    2.0732 C   0  0  1  0  0  0  0  0  0  0  0  0
    2.9920    0.7907    2.8497 O   0  0  0  0  0  0  0  0  0  0  0  0
    3.5899    2.0737    2.8378 C   0  0  1  0  0  0  0  0  0  0  0  0
    2.7318    2.9102    2.0873 O   0  0  0  0  0  0  0  0  0  0  0  0
    3.2653    4.2108    1.9392 C   0  0  1  0  0  0  0  0  0  0  0  0
    2.3271    4.9622    0.9877 C   0  0  0  0  0  0  0  0  0  0  0  0
    2.8364    6.2293    0.6811 O   0  0  0  0  0  0  0  0  0  0  0  0
    3.3740    4.8933    3.3280 C   0  0  2  0  0  0  0  0  0  0  0  0
    3.9338    6.1773    3.2164 O   0  0  0  0  0  0  0  0  0  0  0  0
    4.2667    4.0334    4.2359 C   0  0  1  0  0  0  0  0  0  0  0  0
    4.3009    4.5824    5.5299 O   0  0  0  0  0  0  0  0  0  0  0  0
    3.7187    2.5972    4.2807 C   0  0  2  0  0  0  0  0  0  0  0  0
    4.6002    1.7785    5.0096 O   0  0  0  0  0  0  0  0  0  0  0  0
    2.7433   -1.3514    1.7298 C   0  0  1  0  0  0  0  0  0  0  0  0
    1.8423   -2.0640    2.7839 C   0  0  1  0  0  0  0  0  0  0  0  0
    1.8158   -1.5039    4.2111 C   0  0  0  0  0  0  0  0  0  0  0  0
    0.4475   -2.1437    2.1118 C   0  0  1  0  0  0  0  0  0  0  0  0
   -0.3102   -1.0014    2.4414 O   0  0  0  0  0  0  0  0  0  0  0  0
    0.8098   -2.1066    0.6178 C   0  0  1  0  0  0  0  0  0  0  0  0
   -0.2902   -1.9073   -0.2016 O   0  0  0  0  0  0  0  0  0  0  0  0
   -1.0028   -2.9480   -0.7112 C   0  0  0  0  0  0  0  0  0  0  0  0
   -0.8580   -4.0541   -0.2361 O   0  0  0  0  0  0  0  0  0  0  0  0
   -1.8548   -2.7034   -1.9048 C   0  0  0  0  0  0  0  0  0  0  0  0
   -2.4816   -3.5454   -2.7772 C   0  0  0  0  0  0  0  0  0  0  0  0
   -2.6053   -5.0480   -2.9182 C   0  0  0  0  0  0  0  0  0  0  0  0
   -2.2287   -6.0208   -1.9632 C   0  0  0  0  0  0  0  0  0  0  0  0
   -2.3828   -7.3854   -2.2258 C   0  0  0  0  0  0  0  0  0  0  0  0
   -2.9216   -7.8183   -3.4386 C   0  0  0  0  0  0  0  0  0  0  0  0
   -3.0713   -9.1338   -3.6952 O   0  0  0  0  0  0  0  0  0  0  0  0
   -3.3121   -6.8787   -4.3891 C   0  0  0  0  0  0  0  0  0  0  0  0
   -3.1590   -5.5130   -4.1335 C   0  0  0  0  0  0  0  0  0  0  0  0
    1.8084   -0.9460    0.5991 C   0  0  2  0  0  0  0  0  0  0  0  0
    3.7626   -0.7895   -4.9820 H   0  0  0  0  0  0  0  0  0  0  0  0
    3.0339   -2.3179   -4.3580 H   0  0  0  0  0  0  0  0  0  0  0  0
    1.9801   -0.8805   -4.7092 H   0  0  0  0  0  0  0  0  0  0  0  0
    4.4524    0.3417   -1.2139 H   0  0  0  0  0  0  0  0  0  0  0  0
    4.5193   -0.5751    2.6877 H   0  0  0  0  0  0  0  0  0  0  0  0
    4.6222    2.0693    2.4061 H   0  0  0  0  0  0  0  0  0  0  0  0
    4.2646    4.1580    1.4462 H   0  0  0  0  0  0  0  0  0  0  0  0
    1.3190    5.0550    1.4508 H   0  0  0  0  0  0  0  0  0  0  0  0
    2.2453    4.3629    0.0511 H   0  0  0  0  0  0  0  0  0  0  0  0
    2.2787    6.5743   -0.0639 H   0  0  0  0  0  0  0  0  0  0  0  0
    2.3590    4.9419    3.7940 H   0  0  0  0  0  0  0  0  0  0  0  0
    3.1828    6.8264    3.2185 H   0  0  0  0  0  0  0  0  0  0  0  0
    5.2917    4.0147    3.7867 H   0  0  0  0  0  0  0  0  0  0  0  0
    5.2514    4.6153    5.8157 H   0  0  0  0  0  0  0  0  0  0  0  0
    2.7029    2.6131    4.7466 H   0  0  0  0  0  0  0  0  0  0  0  0
    4.0906    1.3794    5.7618 H   0  0  0  0  0  0  0  0  0  0  0  0
    3.3906   -2.1579    1.3014 H   0  0  0  0  0  0  0  0  0  0  0  0
    2.2349   -3.1051    2.8539 H   0  0  0  0  0  0  0  0  0  0  0  0
    1.1726   -2.1456    4.8497 H   0  0  0  0  0  0  0  0  0  0  0  0
    1.4078   -0.4731    4.2399 H   0  0  0  0  0  0  0  0  0  0  0  0
    2.8421   -1.5005    4.6343 H   0  0  0  0  0  0  0  0  0  0  0  0
   -0.1148   -3.0484    2.4376 H   0  0  0  0  0  0  0  0  0  0  0  0
   -1.2314   -1.1579    2.1062 H   0  0  0  0  0  0  0  0  0  0  0  0
    1.3526   -3.0395    0.3267 H   0  0  0  0  0  0  0  0  0  0  0  0
   -1.9457   -1.6478   -2.1525 H   0  0  0  0  0  0  0  0  0  0  0  0
   -2.9751   -3.0081   -3.5849 H   0  0  0  0  0  0  0  0  0  0  0  0
   -1.8375   -5.7857   -1.0140 H   0  0  0  0  0  0  0  0  0  0  0  0
   -2.0834   -8.1086   -1.4769 H   0  0  0  0  0  0  0  0  0  0  0  0
   -2.8096   -9.8101   -3.0536 H   0  0  0  0  0  0  0  0  0  0  0  0
   -3.7342   -7.2056   -5.3310 H   0  0  0  0  0  0  0  0  0  0  0  0
   -3.4687   -4.8112   -4.8985 H   0  0  0  0  0  0  0  0  0  0  0  0
    1.2905   -0.0013    0.8898 H   0  0  0  0  0  0  0  0  0  0  0  0
  1 40  1  0  0  0  0
  1 41  1  0  0  0  0
  1 42  1  0  0  0  0
  2  1  1  0  0  0  0
  3  2  1  0  0  0  0
  4  3  2  0  0  0  0
  5  3  1  0  0  0  0
  6  5  2  0  0  0  0
  6 43  1  0  0  0  0
  7  6  1  0  0  0  0
  8  7  1  0  0  0  0
  8 44  1  1  0  0  0
  9  8  1  0  0  0  0
 10  9  1  0  0  0  0
 10 45  1  6  0  0  0
 11 10  1  0  0  0  0
 12 11  1  0  0  0  0
 12 46  1  6  0  0  0
 13 12  1  0  0  0  0
 13 47  1  0  0  0  0
 13 48  1  0  0  0  0
 14 13  1  0  0  0  0
 14 49  1  0  0  0  0
 15 12  1  0  0  0  0
 15 50  1  1  0  0  0
 16 15  1  0  0  0  0
 16 51  1  0  0  0  0
 17 15  1  0  0  0  0
 17 52  1  6  0  0  0
 18 17  1  0  0  0  0
 18 53  1  0  0  0  0
 19 17  1  0  0  0  0
 19 10  1  0  0  0  0
 19 54  1  1  0  0  0
 20 19  1  0  0  0  0
 20 55  1  0  0  0  0
 21  8  1  0  0  0  0
 21 56  1  6  0  0  0
 22 21  1  0  0  0  0
 22 57  1  1  0  0  0
 23 22  1  0  0  0  0
 23 58  1  0  0  0  0
 23 59  1  0  0  0  0
 23 60  1  0  0  0  0
 24 22  1  0  0  0  0
 24 61  1  1  0  0  0
 25 24  1  0  0  0  0
 25 62  1  0  0  0  0
 26 24  1  0  0  0  0
 26 63  1  6  0  0  0
 27 26  1  0  0  0  0
 28 27  1  0  0  0  0
 29 28  2  0  0  0  0
 30 28  1  0  0  0  0
 30 64  1  0  0  0  0
 31 30  2  0  0  0  0
 31 65  1  0  0  0  0
 32 31  1  0  0  0  0
 33 32  2  0  0  0  0
 33 66  1  0  0  0  0
 34 33  1  0  0  0  0
 34 67  1  0  0  0  0
 35 34  2  0  0  0  0
 36 35  1  0  0  0  0
 36 68  1  0  0  0  0
 37 35  1  0  0  0  0
 37 69  1  0  0  0  0
 38 37  2  0  0  0  0
 38 32  1  0  0  0  0
 38 70  1  0  0  0  0
 39 26  1  0  0  0  0
 39  5  1  0  0  0  0
 39 21  1  0  0  0  0
 39 71  1  1  0  0  0
M  END
>  <MOL Chiral Flag>
0

>  <energy>
136.27686237207746

$$$$
> 522_AKC_j.ejmech.2012.04.034
>505.sdf
 OpenBabel10062214513D

 71 74  0  0  0  0  0  0  0  0999 V2000
    2.9710   -1.2087   -4.3280 C   0  0  0  0  0  0  0  0  0  0  0  0
    3.1636   -0.7600   -3.0371 O   0  0  0  0  0  0  0  0  0  0  0  0
    2.3346   -1.0851   -2.0073 C   0  0  0  0  0  0  0  0  0  0  0  0
    1.3387   -1.7520   -2.2209 O   0  0  0  0  0  0  0  0  0  0  0  0
    2.6692   -0.6402   -0.6196 C   0  0  0  0  0  0  0  0  0  0  0  0
    3.8058    0.0561   -0.3899 C   0  0  0  0  0  0  0  0  0  0  0  0
    4.1963    0.3798    0.8832 O   0  0  0  0  0  0  0  0  0  0  0  0
    3.6849   -0.1730    2.0732 C   0  0  1  0  0  0  0  0  0  0  0  0
    2.9920    0.7907    2.8497 O   0  0  0  0  0  0  0  0  0  0  0  0
    3.5899    2.0737    2.8378 C   0  0  1  0  0  0  0  0  0  0  0  0
    2.7318    2.9102    2.0873 O   0  0  0  0  0  0  0  0  0  0  0  0
    3.2653    4.2108    1.9392 C   0  0  1  0  0  0  0  0  0  0  0  0
    2.3271    4.9622    0.9877 C   0  0  0  0  0  0  0  0  0  0  0  0
    2.8364    6.2293    0.6811 O   0  0  0  0  0  0  0  0  0  0  0  0
    3.3740    4.8933    3.3280 C   0  0  2  0  0  0  0  0  0  0  0  0
    3.9338    6.1773    3.2164 O   0  0  0  0  0  0  0  0  0  0  0  0
    4.2667    4.0334    4.2359 C   0  0  1  0  0  0  0  0  0  0  0  0
    4.3009    4.5824    5.5299 O   0  0  0  0  0  0  0  0  0  0  0  0
    3.7187    2.5972    4.2807 C   0  0  2  0  0  0  0  0  0  0  0  0
    4.6002    1.7785    5.0096 O   0  0  0  0  0  0  0  0  0  0  0  0
    2.7433   -1.3514    1.7298 C   0  0  1  0  0  0  0  0  0  0  0  0
    1.8423   -2.0640    2.7839 C   0  0  1  0  0  0  0  0  0  0  0  0
    1.8158   -1.5039    4.2111 C   0  0  0  0  0  0  0  0  0  0  0  0
    0.4475   -2.1437    2.1118 C   0  0  1  0  0  0  0  0  0  0  0  0
   -0.3102   -1.0014    2.4414 O   0  0  0  0  0  0  0  0  0  0  0  0
    0.8098   -2.1066    0.6178 C   0  0  1  0  0  0  0  0  0  0  0  0
   -0.2902   -1.9073   -0.2016 O   0  0  0  0  0  0  0  0  0  0  0  0
   -1.0028   -2.9480   -0.7112 C   0  0  0  0  0  0  0  0  0  0  0  0
   -0.8580   -4.0541   -0.2361 O   0  0  0  0  0  0  0  0  0  0  0  0
   -1.8548   -2.7034   -1.9048 C   0  0  0  0  0  0  0  0  0  0  0  0
   -2.4816   -3.5454   -2.7772 C   0  0  0  0  0  0  0  0  0  0  0  0
   -2.6053   -5.0480   -2.9182 C   0  0  0  0  0  0  0  0  0  0  0  0
   -2.2287   -6.0208   -1.9632 C   0  0  0  0  0  0  0  0  0  0  0  0
   -2.3828   -7.3854   -2.2258 C   0  0  0  0  0  0  0  0  0  0  0  0
   -2.9216   -7.8183   -3.4386 C   0  0  0  0  0  0  0  0  0  0  0  0
   -3.0713   -9.1338   -3.6952 O   0  0  0  0  0  0  0  0  0  0  0  0
   -3.3121   -6.8787   -4.3891 C   0  0  0  0  0  0  0  0  0  0  0  0
   -3.1590   -5.5130   -4.1335 C   0  0  0  0  0  0  0  0  0  0  0  0
    1.8084   -0.9460    0.5991 C   0  0  2  0  0  0  0  0  0  0  0  0
    3.7626   -0.7895   -4.9820 H   0  0  0  0  0  0  0  0  0  0  0  0
    3.0339   -2.3179   -4.3580 H   0  0  0  0  0  0  0  0  0  0  0  0
    1.9801   -0.8805   -4.7092 H   0  0  0  0  0  0  0  0  0  0  0  0
    4.4524    0.3417   -1.2139 H   0  0  0  0  0  0  0  0  0  0  0  0
    4.5193   -0.5751    2.6877 H   0  0  0  0  0  0  0  0  0  0  0  0
    4.6222    2.0693    2.4061 H   0  0  0  0  0  0  0  0  0  0  0  0
    4.2646    4.1580    1.4462 H   0  0  0  0  0  0  0  0  0  0  0  0
    1.3190    5.0550    1.4508 H   0  0  0  0  0  0  0  0  0  0  0  0
    2.2453    4.3629    0.0511 H   0  0  0  0  0  0  0  0  0  0  0  0
    2.2787    6.5743   -0.0639 H   0  0  0  0  0  0  0  0  0  0  0  0
    2.3590    4.9419    3.7940 H   0  0  0  0  0  0  0  0  0  0  0  0
    3.1828    6.8264    3.2185 H   0  0  0  0  0  0  0  0  0  0  0  0
    5.2917    4.0147    3.7867 H   0  0  0  0  0  0  0  0  0  0  0  0
    5.2514    4.6153    5.8157 H   0  0  0  0  0  0  0  0  0  0  0  0
    2.7029    2.6131    4.7466 H   0  0  0  0  0  0  0  0  0  0  0  0
    4.0906    1.3794    5.7618 H   0  0  0  0  0  0  0  0  0  0  0  0
    3.3906   -2.1579    1.3014 H   0  0  0  0  0  0  0  0  0  0  0  0
    2.2349   -3.1051    2.8539 H   0  0  0  0  0  0  0  0  0  0  0  0
    1.1726   -2.1456    4.8497 H   0  0  0  0  0  0  0  0  0  0  0  0
    1.4078   -0.4731    4.2399 H   0  0  0  0  0  0  0  0  0  0  0  0
    2.8421   -1.5005    4.6343 H   0  0  0  0  0  0  0  0  0  0  0  0
   -0.1148   -3.0484    2.4376 H   0  0  0  0  0  0  0  0  0  0  0  0
   -1.2314   -1.1579    2.1062 H   0  0  0  0  0  0  0  0  0  0  0  0
    1.3526   -3.0395    0.3267 H   0  0  0  0  0  0  0  0  0  0  0  0
   -1.9457   -1.6478   -2.1525 H   0  0  0  0  0  0  0  0  0  0  0  0
   -2.9751   -3.0081   -3.5849 H   0  0  0  0  0  0  0  0  0  0  0  0
   -1.8375   -5.7857   -1.0140 H   0  0  0  0  0  0  0  0  0  0  0  0
   -2.0834   -8.1086   -1.4769 H   0  0  0  0  0  0  0  0  0  0  0  0
   -2.8096   -9.8101   -3.0536 H   0  0  0  0  0  0  0  0  0  0  0  0
   -3.7342   -7.2056   -5.3310 H   0  0  0  0  0  0  0  0  0  0  0  0
   -3.4687   -4.8112   -4.8985 H   0  0  0  0  0  0  0  0  0  0  0  0
    1.2905   -0.0013    0.8898 H   0  0  0  0  0  0  0  0  0  0  0  0
  1 40  1  0  0  0  0
  1 41  1  0  0  0  0
  1 42  1  0  0  0  0
  2  1  1  0  0  0  0
  3  2  1  0  0  0  0
  4  3  2  0  0  0  0
  5  3  1  0  0  0  0
  6  5  2  0  0  0  0
  6 43  1  0  0  0  0
  7  6  1  0  0  0  0
  8  7  1  0  0  0  0
  8 44  1  1  0  0  0
  9  8  1  0  0  0  0
 10  9  1  0  0  0  0
 10 45  1  6  0  0  0
 11 10  1  0  0  0  0
 12 11  1  0  0  0  0
 12 46  1  6  0  0  0
 13 12  1  0  0  0  0
 13 47  1  0  0  0  0
 13 48  1  0  0  0  0
 14 13  1  0  0  0  0
 14 49  1  0  0  0  0
 15 12  1  0  0  0  0
 15 50  1  1  0  0  0
 16 15  1  0  0  0  0
 16 51  1  0  0  0  0
 17 15  1  0  0  0  0
 17 52  1  6  0  0  0
 18 17  1  0  0  0  0
 18 53  1  0  0  0  0
 19 17  1  0  0  0  0
 19 10  1  0  0  0  0
 19 54  1  1  0  0  0
 20 19  1  0  0  0  0
 20 55  1  0  0  0  0
 21  8  1  0  0  0  0
 21 56  1  6  0  0  0
 22 21  1  0  0  0  0
 22 57  1  1  0  0  0
 23 22  1  0  0  0  0
 23 58  1  0  0  0  0
 23 59  1  0  0  0  0
 23 60  1  0  0  0  0
 24 22  1  0  0  0  0
 24 61  1  1  0  0  0
 25 24  1  0  0  0  0
 25 62  1  0  0  0  0
 26 24  1  0  0  0  0
 26 63  1  6  0  0  0
 27 26  1  0  0  0  0
 28 27  1  0  0  0  0
 29 28  2  0  0  0  0
 30 28  1  0  0  0  0
 30 64  1  0  0  0  0
 31 30  2  0  0  0  0
 31 65  1  0  0  0  0
 32 31  1  0  0  0  0
 33 32  2  0  0  0  0
 33 66  1  0  0  0  0
 34 33  1  0  0  0  0
 34 67  1  0  0  0  0
 35 34  2  0  0  0  0
 36 35  1  0  0  0  0
 36 68  1  0  0  0  0
 37 35  1  0  0  0  0
 37 69  1  0  0  0  0
 38 37  2  0  0  0  0
 38 32  1  0  0  0  0
 38 70  1  0  0  0  0
 39 26  1  0  0  0  0
 39  5  1  0  0  0  0
 39 21  1  0  0  0  0
 39 71  1  1  0  0  0
M  END
>  <MOL Chiral Flag>
0

>  <energy>
136.27686237207746

$$$$
> 523_AKC_j.ejmech.2012.04.034
>506.sdf
 OpenBabel10062214523D

 54 56  0  0  0  0  0  0  0  0999 V2000
    2.0760    5.3353   -0.9642 C   0  0  0  0  0  0  0  0  0  0  0  0
    1.8768    4.1410   -0.3027 O   0  0  0  0  0  0  0  0  0  0  0  0
    2.4724    2.9774   -0.6737 C   0  0  0  0  0  0  0  0  0  0  0  0
    3.2324    2.9565   -1.6328 O   0  0  0  0  0  0  0  0  0  0  0  0
    2.2140    1.7275    0.0934 C   0  0  0  0  0  0  0  0  0  0  0  0
    1.4464    1.7532    1.2177 C   0  0  0  0  0  0  0  0  0  0  0  0
    1.2705    0.6330    1.9897 O   0  0  0  0  0  0  0  0  0  0  0  0
    2.0025   -0.5392    1.8024 C   0  0  1  0  0  0  0  0  0  0  0  0
    1.4873   -1.6551    2.5124 O   0  0  0  0  0  0  0  0  0  0  0  0
    0.0735   -1.7677    2.5861 C   0  0  1  0  0  0  0  0  0  0  0  0
   -0.3458   -2.7473    1.6463 O   0  0  0  0  0  0  0  0  0  0  0  0
   -1.7466   -2.9794    1.7164 C   0  0  1  0  0  0  0  0  0  0  0  0
   -2.1460   -3.9297    0.5782 C   0  0  0  0  0  0  0  0  0  0  0  0
   -1.4819   -5.1611    0.6885 O   0  0  0  0  0  0  0  0  0  0  0  0
   -2.1244   -3.5617    3.1015 C   0  0  2  0  0  0  0  0  0  0  0  0
   -3.4939   -3.8721    3.1862 O   0  0  0  0  0  0  0  0  0  0  0  0
   -1.7280   -2.5489    4.1839 C   0  0  1  0  0  0  0  0  0  0  0  0
   -1.9857   -3.0916    5.4537 O   0  0  0  0  0  0  0  0  0  0  0  0
   -0.2380   -2.2257    4.0312 C   0  0  2  0  0  0  0  0  0  0  0  0
    0.1164   -1.2232    4.9493 O   0  0  0  0  0  0  0  0  0  0  0  0
    2.1377   -0.7822    0.3026 C   0  0  2  0  0  0  0  0  0  0  0  0
    2.9549   -1.9668   -0.2313 C   0  0  1  0  0  0  0  0  0  0  0  0
    2.2000   -3.2992   -0.2402 C   0  0  0  0  0  0  0  0  0  0  0  0
    3.4458   -1.4690   -1.6275 C   0  0  1  0  0  0  0  0  0  0  0  0
    3.0839   -2.2992   -2.7010 O   0  0  0  0  0  0  0  0  0  0  0  0
    2.9138   -0.0116   -1.7722 C   0  0  1  0  0  0  0  0  0  0  0  0
    1.6140    0.0810   -2.3256 O   0  0  0  0  0  0  0  0  0  0  0  0
    2.8773    0.4171   -0.3029 C   0  0  1  0  0  0  0  0  0  0  0  0
    1.7523    5.2455   -2.0236 H   0  0  0  0  0  0  0  0  0  0  0  0
    1.4759    6.1287   -0.4741 H   0  0  0  0  0  0  0  0  0  0  0  0
    3.1490    5.6220   -0.9242 H   0  0  0  0  0  0  0  0  0  0  0  0
    0.9676    2.6752    1.5306 H   0  0  0  0  0  0  0  0  0  0  0  0
    3.0236   -0.3635    2.2078 H   0  0  0  0  0  0  0  0  0  0  0  0
   -0.4631   -0.8111    2.3918 H   0  0  0  0  0  0  0  0  0  0  0  0
   -2.3040   -2.0296    1.5407 H   0  0  0  0  0  0  0  0  0  0  0  0
   -1.9279   -3.4533   -0.4059 H   0  0  0  0  0  0  0  0  0  0  0  0
   -3.2415   -4.1141    0.5954 H   0  0  0  0  0  0  0  0  0  0  0  0
   -0.6435   -5.0852    0.1622 H   0  0  0  0  0  0  0  0  0  0  0  0
   -1.5510   -4.5029    3.2609 H   0  0  0  0  0  0  0  0  0  0  0  0
   -4.0050   -3.0353    3.0330 H   0  0  0  0  0  0  0  0  0  0  0  0
   -2.3321   -1.6222    4.0302 H   0  0  0  0  0  0  0  0  0  0  0  0
   -2.0917   -2.3282    6.0792 H   0  0  0  0  0  0  0  0  0  0  0  0
    0.3316   -3.1617    4.2467 H   0  0  0  0  0  0  0  0  0  0  0  0
    1.1029   -1.2578    5.0520 H   0  0  0  0  0  0  0  0  0  0  0  0
    1.1050   -0.8395   -0.1160 H   0  0  0  0  0  0  0  0  0  0  0  0
    3.8598   -2.0700    0.4120 H   0  0  0  0  0  0  0  0  0  0  0  0
    1.2807   -3.2221   -0.8598 H   0  0  0  0  0  0  0  0  0  0  0  0
    1.9217   -3.5929    0.7910 H   0  0  0  0  0  0  0  0  0  0  0  0
    2.8497   -4.0969   -0.6575 H   0  0  0  0  0  0  0  0  0  0  0  0
    4.5597   -1.4336   -1.5505 H   0  0  0  0  0  0  0  0  0  0  0  0
    3.5887   -1.9710   -3.4901 H   0  0  0  0  0  0  0  0  0  0  0  0
    3.5905    0.5853   -2.4191 H   0  0  0  0  0  0  0  0  0  0  0  0
    1.2208   -0.8196   -2.4505 H   0  0  0  0  0  0  0  0  0  0  0  0
    3.9295    0.4681    0.0689 H   0  0  0  0  0  0  0  0  0  0  0  0
  1 29  1  0  0  0  0
  1 30  1  0  0  0  0
  1 31  1  0  0  0  0
  2  1  1  0  0  0  0
  3  2  1  0  0  0  0
  4  3  2  0  0  0  0
  5  3  1  0  0  0  0
  6  5  2  0  0  0  0
  6 32  1  0  0  0  0
  7  6  1  0  0  0  0
  8  7  1  0  0  0  0
  8 33  1  1  0  0  0
  9  8  1  0  0  0  0
 10  9  1  0  0  0  0
 10 34  1  6  0  0  0
 11 10  1  0  0  0  0
 12 11  1  0  0  0  0
 12 35  1  6  0  0  0
 13 12  1  0  0  0  0
 13 36  1  0  0  0  0
 13 37  1  0  0  0  0
 14 13  1  0  0  0  0
 14 38  1  0  0  0  0
 15 12  1  0  0  0  0
 15 39  1  1  0  0  0
 16 15  1  0  0  0  0
 16 40  1  0  0  0  0
 17 15  1  0  0  0  0
 17 41  1  6  0  0  0
 18 17  1  0  0  0  0
 18 42  1  0  0  0  0
 19 17  1  0  0  0  0
 19 10  1  0  0  0  0
 19 43  1  1  0  0  0
 20 19  1  0  0  0  0
 20 44  1  0  0  0  0
 21  8  1  0  0  0  0
 21 45  1  6  0  0  0
 22 21  1  0  0  0  0
 22 46  1  1  0  0  0
 23 22  1  0  0  0  0
 23 47  1  0  0  0  0
 23 48  1  0  0  0  0
 23 49  1  0  0  0  0
 24 22  1  0  0  0  0
 24 50  1  1  0  0  0
 25 24  1  0  0  0  0
 25 51  1  0  0  0  0
 26 24  1  0  0  0  0
 26 52  1  6  0  0  0
 27 26  1  0  0  0  0
 27 53  1  0  0  0  0
 28 26  1  0  0  0  0
 28  5  1  0  0  0  0
 28 21  1  0  0  0  0
 28 54  1  1  0  0  0
M  END
>  <MOL Chiral Flag>
0

>  <energy>
129.93836130335944

$$$$
> 524_AKC_j.ejmech.2012.04.029
>507.sdf
 OpenBabel10062214523D

 20 21  0  0  0  0  0  0  0  0999 V2000
    3.5291    1.0890   -0.5992 O   0  0  0  0  0  0  0  0  0  0  0  0
    2.3410    1.0471   -0.3280 C   0  0  0  0  0  0  0  0  0  0  0  0
    1.6593   -0.1453   -0.4107 N   0  0  0  0  0  0  0  0  0  0  0  0
    0.3163   -0.2375   -0.1140 C   0  0  0  0  0  0  0  0  0  0  0  0
   -0.3658    0.9514    0.2813 C   0  0  0  0  0  0  0  0  0  0  0  0
   -1.7300    0.9275    0.5842 C   0  0  0  0  0  0  0  0  0  0  0  0
   -2.4456   -0.2550    0.4978 C   0  0  0  0  0  0  0  0  0  0  0  0
   -1.8158   -1.4318    0.1110 C   0  0  0  0  0  0  0  0  0  0  0  0
   -0.4354   -1.4719   -0.1984 C   0  0  0  0  0  0  0  0  0  0  0  0
    0.1243   -2.7489   -0.5777 N   0  0  0  0  0  0  0  0  0  0  0  0
   -0.5965   -3.6881   -0.7364 O   0  0  0  0  0  0  0  0  0  0  0  0
    1.2991   -2.9131   -0.6778 O   0  0  0  0  0  0  0  0  0  0  0  0
    0.3318    2.1619    0.3636 C   0  0  0  0  0  0  0  0  0  0  0  0
    1.6839    2.2097    0.0597 C   0  0  0  0  0  0  0  0  0  0  0  0
    2.2222   -0.9568   -0.7178 H   0  0  0  0  0  0  0  0  0  0  0  0
   -2.2439    1.8331    0.8857 H   0  0  0  0  0  0  0  0  0  0  0  0
   -3.5023   -0.2627    0.7335 H   0  0  0  0  0  0  0  0  0  0  0  0
   -2.4157   -2.3315    0.0611 H   0  0  0  0  0  0  0  0  0  0  0  0
   -0.1751    3.0729    0.6605 H   0  0  0  0  0  0  0  0  0  0  0  0
    2.2192    3.1496    0.1217 H   0  0  0  0  0  0  0  0  0  0  0  0
  2  1  2  0  0  0  0
  3  2  1  0  0  0  0
  3 15  1  0  0  0  0
  4  3  1  0  0  0  0
  5  4  2  0  0  0  0
  6  5  1  0  0  0  0
  6 16  1  0  0  0  0
  7  6  2  0  0  0  0
  7 17  1  0  0  0  0
  8  7  1  0  0  0  0
  8 18  1  0  0  0  0
  9  8  2  0  0  0  0
  9  4  1  0  0  0  0
 10  9  1  0  0  0  0
 11 10  2  0  0  0  0
 12 10  2  0  0  0  0
 13  5  1  0  0  0  0
 13 19  1  0  0  0  0
 14 13  2  0  0  0  0
 14  2  1  0  0  0  0
 14 20  1  0  0  0  0
M  END
>  <MOL Chiral Flag>
0

>  <energy>
33.366467853402717

$$$$
> 525_AKC_s00436-012-2818-9
>508.sdf
 OpenBabel10062214533D

 30 33  0  0  0  0  0  0  0  0999 V2000
    0.2585    0.5300    2.1854 C   0  0  0  0  0  0  0  0  0  0  0  0
    0.5031    0.1518    0.7811 N   0  0  0  0  0  0  0  0  0  0  0  0
   -0.5812   -0.0200   -0.0537 C   0  0  0  0  0  0  0  0  0  0  0  0
   -1.9561    0.1164    0.1534 C   0  0  0  0  0  0  0  0  0  0  0  0
   -2.7522    0.4740    1.2541 C   0  0  0  0  0  0  0  0  0  0  0  0
   -4.1493    0.5316    1.0825 C   0  0  0  0  0  0  0  0  0  0  0  0
   -5.2660    1.0364    2.5473 Br  0  0  0  0  0  0  0  0  0  0  0  0
   -4.7306    0.2271   -0.1667 C   0  0  0  0  0  0  0  0  0  0  0  0
   -3.9219   -0.1349   -1.2535 C   0  0  0  0  0  0  0  0  0  0  0  0
   -2.5453   -0.1777   -1.0634 C   0  0  0  0  0  0  0  0  0  0  0  0
   -1.6270   -0.4853   -2.0004 N   0  0  0  0  0  0  0  0  0  0  0  0
   -0.4374   -0.3798   -1.3740 C   0  0  0  0  0  0  0  0  0  0  0  0
    0.7964   -0.5807   -1.9443 C   0  0  0  0  0  0  0  0  0  0  0  0
    1.9272   -0.4039   -1.1407 C   0  0  0  0  0  0  0  0  0  0  0  0
    1.7819   -0.0365    0.2426 C   0  0  0  0  0  0  0  0  0  0  0  0
    2.9748    0.1256    1.0010 C   0  0  0  0  0  0  0  0  0  0  0  0
    4.2297   -0.0579    0.4114 C   0  0  0  0  0  0  0  0  0  0  0  0
    4.3417   -0.4072   -0.9317 C   0  0  0  0  0  0  0  0  0  0  0  0
    6.0660   -0.6421   -1.7198 Br  0  0  0  0  0  0  0  0  0  0  0  0
    3.1982   -0.5829   -1.7035 C   0  0  0  0  0  0  0  0  0  0  0  0
   -0.3359   -0.2656    2.6834 H   0  0  0  0  0  0  0  0  0  0  0  0
   -0.2777    1.5005    2.2192 H   0  0  0  0  0  0  0  0  0  0  0  0
    1.1470    0.6712    2.8111 H   0  0  0  0  0  0  0  0  0  0  0  0
   -2.3396    0.7137    2.2177 H   0  0  0  0  0  0  0  0  0  0  0  0
   -5.8045    0.2758   -0.2916 H   0  0  0  0  0  0  0  0  0  0  0  0
   -4.3575   -0.3668   -2.2169 H   0  0  0  0  0  0  0  0  0  0  0  0
    0.8794   -0.8565   -2.9891 H   0  0  0  0  0  0  0  0  0  0  0  0
    2.9810    0.3955    2.0388 H   0  0  0  0  0  0  0  0  0  0  0  0
    5.1244    0.0765    1.0063 H   0  0  0  0  0  0  0  0  0  0  0  0
    3.3003   -0.8545   -2.7479 H   0  0  0  0  0  0  0  0  0  0  0  0
  1 21  1  0  0  0  0
  1 22  1  0  0  0  0
  1 23  1  0  0  0  0
  2  1  1  0  0  0  0
  3  2  1  0  0  0  0
  4  3  2  0  0  0  0
  5  4  1  0  0  0  0
  5 24  1  0  0  0  0
  6  5  2  0  0  0  0
  7  6  1  0  0  0  0
  8  6  1  0  0  0  0
  8 25  1  0  0  0  0
  9  8  2  0  0  0  0
  9 26  1  0  0  0  0
 10  9  1  0  0  0  0
 10  4  1  0  0  0  0
 11 10  2  0  0  0  0
 12 11  1  0  0  0  0
 12  3  1  0  0  0  0
 13 12  2  0  0  0  0
 13 27  1  0  0  0  0
 14 13  1  0  0  0  0
 15 14  2  0  0  0  0
 15  2  1  0  0  0  0
 16 15  1  0  0  0  0
 16 28  1  0  0  0  0
 17 16  2  0  0  0  0
 17 29  1  0  0  0  0
 18 17  1  0  0  0  0
 19 18  1  0  0  0  0
 20 18  2  0  0  0  0
 20 14  1  0  0  0  0
 20 30  1  0  0  0  0
M  END
>  <MOL Chiral Flag>
0

>  <energy>
57.842231512145617

$$$$
> 526_AKC_S0074-02762012000300012
>509.sdf
 OpenBabel10062214533D

 54 56  0  0  0  0  0  0  0  0999 V2000
   -5.5785   -0.4507   -0.2410 C   0  0  0  0  0  0  0  0  0  0  0  0
   -4.8800    0.9139   -0.1614 C   0  0  0  0  0  0  0  0  0  0  0  0
   -5.1957    1.7779   -1.3893 C   0  0  0  0  0  0  0  0  0  0  0  0
   -3.3798    0.7439    0.0687 C   0  0  0  0  0  0  0  0  0  0  0  0
   -2.5316    0.1242   -0.8791 C   0  0  0  0  0  0  0  0  0  0  0  0
   -3.0611   -0.3098   -2.0468 O   0  0  0  0  0  0  0  0  0  0  0  0
   -1.1470   -0.0481   -0.5963 C   0  0  0  0  0  0  0  0  0  0  0  0
   -0.6260    0.3723    0.6659 C   0  0  0  0  0  0  0  0  0  0  0  0
   -1.4926    1.0211    1.5685 C   0  0  0  0  0  0  0  0  0  0  0  0
   -2.8372    1.1998    1.2739 C   0  0  0  0  0  0  0  0  0  0  0  0
    0.8666    0.1645    1.0274 C   0  0  1  0  0  0  0  0  0  0  0  0
    1.4816    1.5567    0.6630 C   0  0  0  0  0  0  0  0  0  0  0  0
    1.1120   -0.0570    2.5602 C   0  0  0  0  0  0  0  0  0  0  0  0
    2.5943   -0.3349    2.8906 C   0  0  0  0  0  0  0  0  0  0  0  0
    3.1162   -1.5831    2.1681 C   0  0  0  0  0  0  0  0  0  0  0  0
    2.9580   -1.5038    0.6187 C   0  0  0  0  0  0  0  0  0  0  0  0
    3.3896   -2.8892    0.0452 C   0  0  0  0  0  0  0  0  0  0  0  0
    4.0152   -0.5184    0.0408 C   0  0  0  0  0  0  0  0  0  0  0  0
    1.4193   -1.1466    0.2638 C   0  0  1  0  0  0  0  0  0  0  0  0
    0.5313   -2.3998    0.6527 C   0  0  0  0  0  0  0  0  0  0  0  0
    1.2175   -0.8875   -1.2520 C   0  0  0  0  0  0  0  0  0  0  0  0
   -0.2665   -0.7462   -1.6264 C   0  0  0  0  0  0  0  0  0  0  0  0
   -6.6771   -0.3136   -0.3283 H   0  0  0  0  0  0  0  0  0  0  0  0
   -5.2334   -1.0452   -1.1107 H   0  0  0  0  0  0  0  0  0  0  0  0
   -5.3767   -1.0300    0.6861 H   0  0  0  0  0  0  0  0  0  0  0  0
   -5.3236    1.4391    0.7142 H   0  0  0  0  0  0  0  0  0  0  0  0
   -4.7192    2.7752   -1.2845 H   0  0  0  0  0  0  0  0  0  0  0  0
   -6.2942    1.9249   -1.4716 H   0  0  0  0  0  0  0  0  0  0  0  0
   -4.8475    1.3112   -2.3318 H   0  0  0  0  0  0  0  0  0  0  0  0
   -2.5579   -0.7487   -2.7441 H   0  0  0  0  0  0  0  0  0  0  0  0
   -1.1418    1.3879    2.5187 H   0  0  0  0  0  0  0  0  0  0  0  0
   -3.4677    1.6860    2.0083 H   0  0  0  0  0  0  0  0  0  0  0  0
    2.5203    1.7271    0.9455 H   0  0  0  0  0  0  0  0  0  0  0  0
    1.3579    1.8165   -0.4069 H   0  0  0  0  0  0  0  0  0  0  0  0
    0.9506    2.3561    1.2254 H   0  0  0  0  0  0  0  0  0  0  0  0
    0.4985   -0.9026    2.9320 H   0  0  0  0  0  0  0  0  0  0  0  0
    0.8178    0.8324    3.1535 H   0  0  0  0  0  0  0  0  0  0  0  0
    3.2253    0.5380    2.6384 H   0  0  0  0  0  0  0  0  0  0  0  0
    2.6948   -0.4906    3.9867 H   0  0  0  0  0  0  0  0  0  0  0  0
    2.5614   -2.4528    2.5730 H   0  0  0  0  0  0  0  0  0  0  0  0
    4.1800   -1.7548    2.4440 H   0  0  0  0  0  0  0  0  0  0  0  0
    2.8069   -3.7311    0.4674 H   0  0  0  0  0  0  0  0  0  0  0  0
    3.3152   -2.9201   -1.0608 H   0  0  0  0  0  0  0  0  0  0  0  0
    4.4459   -3.1150    0.3093 H   0  0  0  0  0  0  0  0  0  0  0  0
    3.9524   -0.4579   -1.0649 H   0  0  0  0  0  0  0  0  0  0  0  0
    5.0406   -0.8740    0.2842 H   0  0  0  0  0  0  0  0  0  0  0  0
    4.0026    0.4897    0.4479 H   0  0  0  0  0  0  0  0  0  0  0  0
    0.7529   -3.2700    0.0035 H   0  0  0  0  0  0  0  0  0  0  0  0
    0.6385   -2.7243    1.7006 H   0  0  0  0  0  0  0  0  0  0  0  0
   -0.5557   -2.2415    0.5351 H   0  0  0  0  0  0  0  0  0  0  0  0
    1.7526    0.0366   -1.5382 H   0  0  0  0  0  0  0  0  0  0  0  0
    1.6430   -1.6882   -1.8907 H   0  0  0  0  0  0  0  0  0  0  0  0
   -0.6865   -1.7690   -1.7430 H   0  0  0  0  0  0  0  0  0  0  0  0
   -0.3188   -0.2462   -2.6179 H   0  0  0  0  0  0  0  0  0  0  0  0
  1 23  1  0  0  0  0
  1 24  1  0  0  0  0
  1 25  1  0  0  0  0
  2  1  1  0  0  0  0
  2 26  1  0  0  0  0
  3  2  1  0  0  0  0
  3 27  1  0  0  0  0
  3 28  1  0  0  0  0
  3 29  1  0  0  0  0
  4  2  1  0  0  0  0
  5  4  2  0  0  0  0
  6  5  1  0  0  0  0
  6 30  1  0  0  0  0
  7  5  1  0  0  0  0
  8  7  2  0  0  0  0
  9  8  1  0  0  0  0
  9 31  1  0  0  0  0
 10  9  2  0  0  0  0
 10  4  1  0  0  0  0
 10 32  1  0  0  0  0
 11  8  1  0  0  0  0
 11 12  1  6  0  0  0
 12 33  1  0  0  0  0
 12 34  1  0  0  0  0
 12 35  1  0  0  0  0
 13 11  1  0  0  0  0
 13 36  1  0  0  0  0
 13 37  1  0  0  0  0
 14 13  1  0  0  0  0
 14 38  1  0  0  0  0
 14 39  1  0  0  0  0
 15 14  1  0  0  0  0
 15 40  1  0  0  0  0
 15 41  1  0  0  0  0
 16 15  1  0  0  0  0
 17 16  1  0  0  0  0
 17 42  1  0  0  0  0
 17 43  1  0  0  0  0
 17 44  1  0  0  0  0
 18 16  1  0  0  0  0
 18 45  1  0  0  0  0
 18 46  1  0  0  0  0
 18 47  1  0  0  0  0
 19 16  1  0  0  0  0
 19 11  1  0  0  0  0
 19 20  1  1  0  0  0
 20 48  1  0  0  0  0
 20 49  1  0  0  0  0
 20 50  1  0  0  0  0
 21 19  1  0  0  0  0
 21 51  1  0  0  0  0
 21 52  1  0  0  0  0
 22 21  1  0  0  0  0
 22  7  1  0  0  0  0
 22 53  1  0  0  0  0
 22 54  1  0  0  0  0
M  END
>  <MOL Chiral Flag>
0

>  <energy>
93.803907359306478

$$$$
> 527_AKC_s-0031-1298459
>510.sdf
 OpenBabel10062214543D

 46 46  0  0  0  0  0  0  0  0999 V2000
    3.1624   -1.0376    3.3912 C   0  0  0  0  0  0  0  0  0  0  0  0
    3.0620    0.3095    3.1129 O   0  0  0  0  0  0  0  0  0  0  0  0
    2.6815    0.8459    1.9227 C   0  0  0  0  0  0  0  0  0  0  0  0
    2.3453    0.0535    0.8029 C   0  0  0  0  0  0  0  0  0  0  0  0
    1.9861    0.6573   -0.4172 C   0  0  0  0  0  0  0  0  0  0  0  0
    1.6998   -0.2082   -1.6240 C   0  0  0  0  0  0  0  0  0  0  0  0
    0.2680   -0.7012   -1.6634 C   0  0  0  0  0  0  0  0  0  0  0  0
   -0.1407   -1.9960   -1.6858 C   0  0  0  0  0  0  0  0  0  0  0  0
    0.8234   -3.1673   -1.5849 C   0  0  0  0  0  0  0  0  0  0  0  0
   -1.6404   -2.2603   -1.8359 C   0  0  0  0  0  0  0  0  0  0  0  0
   -2.0166   -3.7518   -1.8423 C   0  0  0  0  0  0  0  0  0  0  0  0
   -3.4964   -3.9960   -2.0030 C   0  0  0  0  0  0  0  0  0  0  0  0
   -4.0337   -5.2415   -1.9751 C   0  0  0  0  0  0  0  0  0  0  0  0
   -3.1993   -6.4899   -1.7815 C   0  0  0  0  0  0  0  0  0  0  0  0
   -5.5203   -5.4248   -2.1279 C   0  0  0  0  0  0  0  0  0  0  0  0
    1.9415    2.0648   -0.5156 C   0  0  0  0  0  0  0  0  0  0  0  0
    1.5722    2.6337   -1.6955 O   0  0  0  0  0  0  0  0  0  0  0  0
    1.4143    3.9854   -1.9189 C   0  0  0  0  0  0  0  0  0  0  0  0
    2.2678    2.8452    0.6122 C   0  0  0  0  0  0  0  0  0  0  0  0
    2.6380    2.2373    1.8108 C   0  0  0  0  0  0  0  0  0  0  0  0
    3.5137   -1.1627    4.4366 H   0  0  0  0  0  0  0  0  0  0  0  0
    2.1695   -1.5242    3.2913 H   0  0  0  0  0  0  0  0  0  0  0  0
    3.9003   -1.5190    2.7147 H   0  0  0  0  0  0  0  0  0  0  0  0
    2.3843   -1.0265    0.8649 H   0  0  0  0  0  0  0  0  0  0  0  0
    2.4964   -0.9671   -1.6995 H   0  0  0  0  0  0  0  0  0  0  0  0
    1.8224    0.3861   -2.5526 H   0  0  0  0  0  0  0  0  0  0  0  0
   -0.4936    0.0734   -1.7247 H   0  0  0  0  0  0  0  0  0  0  0  0
    1.8825   -2.9097   -1.4432 H   0  0  0  0  0  0  0  0  0  0  0  0
    0.7602   -3.7841   -2.5045 H   0  0  0  0  0  0  0  0  0  0  0  0
    0.5516   -3.7891   -0.7076 H   0  0  0  0  0  0  0  0  0  0  0  0
   -2.1794   -1.7635   -0.9995 H   0  0  0  0  0  0  0  0  0  0  0  0
   -1.9813   -1.8049   -2.7931 H   0  0  0  0  0  0  0  0  0  0  0  0
   -1.7035   -4.1874   -0.8708 H   0  0  0  0  0  0  0  0  0  0  0  0
   -1.4951   -4.2590   -2.6825 H   0  0  0  0  0  0  0  0  0  0  0  0
   -4.1509   -3.1377   -2.1367 H   0  0  0  0  0  0  0  0  0  0  0  0
   -2.1119   -6.3047   -1.6852 H   0  0  0  0  0  0  0  0  0  0  0  0
   -3.5316   -7.0105   -0.8593 H   0  0  0  0  0  0  0  0  0  0  0  0
   -3.3439   -7.1681   -2.6478 H   0  0  0  0  0  0  0  0  0  0  0  0
   -5.9244   -5.9174   -1.2184 H   0  0  0  0  0  0  0  0  0  0  0  0
   -5.7250   -6.0732   -3.0060 H   0  0  0  0  0  0  0  0  0  0  0  0
   -6.0552   -4.4622   -2.2714 H   0  0  0  0  0  0  0  0  0  0  0  0
    0.6329    4.3957   -1.2436 H   0  0  0  0  0  0  0  0  0  0  0  0
    1.0874    4.1400   -2.9674 H   0  0  0  0  0  0  0  0  0  0  0  0
    2.3765    4.5174   -1.7649 H   0  0  0  0  0  0  0  0  0  0  0  0
    2.2445    3.9253    0.5675 H   0  0  0  0  0  0  0  0  0  0  0  0
    2.8970    2.8542    2.6628 H   0  0  0  0  0  0  0  0  0  0  0  0
  1 21  1  0  0  0  0
  1 22  1  0  0  0  0
  1 23  1  0  0  0  0
  2  1  1  0  0  0  0
  3  2  1  0  0  0  0
  4  3  2  0  0  0  0
  4 24  1  0  0  0  0
  5  4  1  0  0  0  0
  6  5  1  0  0  0  0
  6 25  1  0  0  0  0
  6 26  1  0  0  0  0
  7  6  1  0  0  0  0
  7 27  1  0  0  0  0
  8  7  2  0  0  0  0
  9  8  1  0  0  0  0
  9 28  1  0  0  0  0
  9 29  1  0  0  0  0
  9 30  1  0  0  0  0
 10  8  1  0  0  0  0
 10 31  1  0  0  0  0
 10 32  1  0  0  0  0
 11 10  1  0  0  0  0
 11 33  1  0  0  0  0
 11 34  1  0  0  0  0
 12 11  1  0  0  0  0
 12 35  1  0  0  0  0
 13 12  2  0  0  0  0
 14 13  1  0  0  0  0
 14 36  1  0  0  0  0
 14 37  1  0  0  0  0
 14 38  1  0  0  0  0
 15 13  1  0  0  0  0
 15 39  1  0  0  0  0
 15 40  1  0  0  0  0
 15 41  1  0  0  0  0
 16  5  2  0  0  0  0
 17 16  1  0  0  0  0
 18 17  1  0  0  0  0
 18 42  1  0  0  0  0
 18 43  1  0  0  0  0
 18 44  1  0  0  0  0
 19 16  1  0  0  0  0
 19 45  1  0  0  0  0
 20 19  2  0  0  0  0
 20  3  1  0  0  0  0
 20 46  1  0  0  0  0
M  END
>  <MOL Chiral Flag>
0

>  <energy>
60.401407488680313

$$$$
> 528_AKC_j.biopha.2011.10.005
>511.sdf
 OpenBabel10062214593D

 50 49  0  0  0  0  0  0  0  0999 V2000
   -7.6028   -8.5488    0.3635 C   0  0  0  0  0  0  0  0  0  0  0  0
   -6.8252   -7.8724   -0.7706 C   0  0  0  0  0  0  0  0  0  0  0  0
   -6.3467   -6.4595   -0.3813 C   0  0  0  0  0  0  0  0  0  0  0  0
   -5.6972   -5.7106   -1.5693 C   0  0  0  0  0  0  0  0  0  0  0  0
   -5.0347   -4.3841   -1.1204 C   0  0  0  0  0  0  0  0  0  0  0  0
   -4.4365   -3.5695   -2.2941 C   0  0  0  0  0  0  0  0  0  0  0  0
   -3.7459   -2.2596   -1.8156 C   0  0  0  0  0  0  0  0  0  0  0  0
   -3.1740   -1.4400   -2.9972 C   0  0  0  0  0  0  0  0  0  0  0  0
   -2.6484   -0.0197   -2.6473 C   0  0  0  0  0  0  0  0  0  0  0  0
   -1.4031    0.0595   -1.7339 C   0  0  0  0  0  0  0  0  0  0  0  0
   -0.9389    1.5311   -1.5624 C   0  0  0  0  0  0  0  0  0  0  0  0
    0.2766    1.6819   -0.6195 C   0  0  0  0  0  0  0  0  0  0  0  0
    0.7042    3.0965   -0.5211 N   0  3  0  0  0  0  0  0  0  0  0  0
    1.8672    3.3014    0.3644 C   0  0  0  0  0  0  0  0  0  0  0  0
    1.5127    3.1969    1.8628 C   0  0  0  0  0  0  0  0  0  0  0  0
    2.6804    3.4664    2.7024 N   0  3  0  0  0  0  0  0  0  0  0  0
   -7.0044   -8.5841    1.2985 H   0  0  0  0  0  0  0  0  0  0  0  0
   -7.8621   -9.5908    0.0742 H   0  0  0  0  0  0  0  0  0  0  0  0
   -8.5495   -8.0008    0.5593 H   0  0  0  0  0  0  0  0  0  0  0  0
   -5.9359   -8.4943   -1.0155 H   0  0  0  0  0  0  0  0  0  0  0  0
   -7.4869   -7.8337   -1.6619 H   0  0  0  0  0  0  0  0  0  0  0  0
   -7.2061   -5.8572   -0.0126 H   0  0  0  0  0  0  0  0  0  0  0  0
   -5.6122   -6.5699    0.4463 H   0  0  0  0  0  0  0  0  0  0  0  0
   -6.4887   -5.5097   -2.3260 H   0  0  0  0  0  0  0  0  0  0  0  0
   -4.9200   -6.3533   -2.0359 H   0  0  0  0  0  0  0  0  0  0  0  0
   -4.2202   -4.6319   -0.4058 H   0  0  0  0  0  0  0  0  0  0  0  0
   -5.7893   -3.7574   -0.5985 H   0  0  0  0  0  0  0  0  0  0  0  0
   -5.2612   -3.3086   -2.9950 H   0  0  0  0  0  0  0  0  0  0  0  0
   -3.6997   -4.1966   -2.8414 H   0  0  0  0  0  0  0  0  0  0  0  0
   -2.9232   -2.5053   -1.1109 H   0  0  0  0  0  0  0  0  0  0  0  0
   -4.5021   -1.6426   -1.2851 H   0  0  0  0  0  0  0  0  0  0  0  0
   -4.0014   -1.2875   -3.7253 H   0  0  0  0  0  0  0  0  0  0  0  0
   -2.3760   -2.0202   -3.5094 H   0  0  0  0  0  0  0  0  0  0  0  0
   -3.4745    0.5662   -2.1889 H   0  0  0  0  0  0  0  0  0  0  0  0
   -2.3838    0.4683   -3.6120 H   0  0  0  0  0  0  0  0  0  0  0  0
   -0.5733   -0.5243   -2.1887 H   0  0  0  0  0  0  0  0  0  0  0  0
   -1.6470   -0.3716   -0.7407 H   0  0  0  0  0  0  0  0  0  0  0  0
   -0.6708    1.9429   -2.5612 H   0  0  0  0  0  0  0  0  0  0  0  0
   -1.7769    2.1353   -1.1511 H   0  0  0  0  0  0  0  0  0  0  0  0
    1.1196    1.0704   -1.0120 H   0  0  0  0  0  0  0  0  0  0  0  0
   -0.0109    1.2958    0.3798 H   0  0  0  0  0  0  0  0  0  0  0  0
    0.9836    3.4136   -1.4797 H   0  0  0  0  0  0  0  0  0  0  0  0
   -0.0894    3.7008   -0.2006 H   0  0  0  0  0  0  0  0  0  0  0  0
    2.2629    4.3299    0.1950 H   0  0  0  0  0  0  0  0  0  0  0  0
    2.6834    2.5890    0.1078 H   0  0  0  0  0  0  0  0  0  0  0  0
    0.7179    3.9388    2.1022 H   0  0  0  0  0  0  0  0  0  0  0  0
    1.1284    2.1835    2.1007 H   0  0  0  0  0  0  0  0  0  0  0  0
    3.0470    4.4299    2.5211 H   0  0  0  0  0  0  0  0  0  0  0  0
    3.4321    2.7636    2.5132 H   0  0  0  0  0  0  0  0  0  0  0  0
    2.4041    3.3995    3.7091 H   0  0  0  0  0  0  0  0  0  0  0  0
  1 17  1  0  0  0  0
  1 18  1  0  0  0  0
  1 19  1  0  0  0  0
  2  1  1  0  0  0  0
  2 20  1  0  0  0  0
  2 21  1  0  0  0  0
  3  2  1  0  0  0  0
  3 22  1  0  0  0  0
  3 23  1  0  0  0  0
  4  3  1  0  0  0  0
  4 24  1  0  0  0  0
  4 25  1  0  0  0  0
  5  4  1  0  0  0  0
  5 26  1  0  0  0  0
  5 27  1  0  0  0  0
  6  5  1  0  0  0  0
  6 28  1  0  0  0  0
  6 29  1  0  0  0  0
  7  6  1  0  0  0  0
  7 30  1  0  0  0  0
  7 31  1  0  0  0  0
  8  7  1  0  0  0  0
  8 32  1  0  0  0  0
  8 33  1  0  0  0  0
  9  8  1  0  0  0  0
  9 34  1  0  0  0  0
  9 35  1  0  0  0  0
 10  9  1  0  0  0  0
 10 36  1  0  0  0  0
 10 37  1  0  0  0  0
 11 10  1  0  0  0  0
 11 38  1  0  0  0  0
 11 39  1  0  0  0  0
 12 11  1  0  0  0  0
 12 40  1  0  0  0  0
 12 41  1  0  0  0  0
 13 12  1  0  0  0  0
 13 42  1  0  0  0  0
 13 43  1  0  0  0  0
 14 13  1  0  0  0  0
 14 44  1  0  0  0  0
 14 45  1  0  0  0  0
 15 14  1  0  0  0  0
 15 46  1  0  0  0  0
 15 47  1  0  0  0  0
 16 15  1  0  0  0  0
 16 48  1  0  0  0  0
 16 49  1  0  0  0  0
 16 50  1  0  0  0  0
M  CHG  2  13   1  16   1
M  END
>  <MOL Chiral Flag>
0

>  <energy>
27.163235797570607

$$$$
> 529_AKC_ml200280r
>512.sdf
 OpenBabel10062215003D

 33 35  0  0  0  0  0  0  0  0999 V2000
   -4.6751    2.8384    0.3656 C   0  0  0  0  0  0  0  0  0  0  0  0
   -4.7174    1.5124   -0.0220 O   0  0  0  0  0  0  0  0  0  0  0  0
   -3.6903    0.6323    0.1184 C   0  0  0  0  0  0  0  0  0  0  0  0
   -2.4387    1.0275    0.6236 C   0  0  0  0  0  0  0  0  0  0  0  0
   -1.4089    0.1026    0.7459 C   0  0  0  0  0  0  0  0  0  0  0  0
   -1.6032   -1.2446    0.3894 C   0  0  0  0  0  0  0  0  0  0  0  0
   -2.8566   -1.6479   -0.0970 C   0  0  0  0  0  0  0  0  0  0  0  0
   -3.8872   -0.7085   -0.2462 C   0  0  0  0  0  0  0  0  0  0  0  0
   -0.4865   -2.2096    0.5737 C   0  0  0  0  0  0  0  0  0  0  0  0
   -0.7201   -3.3914    0.7829 O   0  0  0  0  0  0  0  0  0  0  0  0
    0.9191   -1.7166    0.5189 C   0  0  0  0  0  0  0  0  0  0  0  0
    1.2690   -0.8909   -0.5580 C   0  0  0  0  0  0  0  0  0  0  0  0
    2.5547   -0.3786   -0.6535 C   0  0  0  0  0  0  0  0  0  0  0  0
    3.4791   -0.6778    0.3633 C   0  0  0  0  0  0  0  0  0  0  0  0
    3.1305   -1.4737    1.3750 O   0  0  0  0  0  0  0  0  0  0  0  0
    1.9159   -2.0154    1.4841 C   0  0  0  0  0  0  0  0  0  0  0  0
    1.6288   -2.8351    2.6302 S   0  0  0  0  0  0  0  0  0  0  0  0
    4.7680   -0.1356    0.3059 C   0  0  0  0  0  0  0  0  0  0  0  0
    5.1396    0.6782   -0.7722 C   0  0  0  0  0  0  0  0  0  0  0  0
    4.2264    0.9495   -1.7980 C   0  0  0  0  0  0  0  0  0  0  0  0
    4.7439    2.0356   -3.2817 Br  0  0  0  0  0  0  0  0  0  0  0  0
    2.9320    0.4269   -1.7374 C   0  0  0  0  0  0  0  0  0  0  0  0
   -3.8674    3.3776   -0.1754 H   0  0  0  0  0  0  0  0  0  0  0  0
   -4.5092    2.9106    1.4626 H   0  0  0  0  0  0  0  0  0  0  0  0
   -5.6423    3.3221    0.1227 H   0  0  0  0  0  0  0  0  0  0  0  0
   -2.2510    2.0479    0.9279 H   0  0  0  0  0  0  0  0  0  0  0  0
   -0.4622    0.4365    1.1517 H   0  0  0  0  0  0  0  0  0  0  0  0
   -3.0296   -2.6789   -0.3800 H   0  0  0  0  0  0  0  0  0  0  0  0
   -4.8449   -1.0238   -0.6404 H   0  0  0  0  0  0  0  0  0  0  0  0
    0.5381   -0.6624   -1.3267 H   0  0  0  0  0  0  0  0  0  0  0  0
    5.4811   -0.3447    1.0924 H   0  0  0  0  0  0  0  0  0  0  0  0
    6.1380    1.0928   -0.8142 H   0  0  0  0  0  0  0  0  0  0  0  0
    2.2265    0.6442   -2.5315 H   0  0  0  0  0  0  0  0  0  0  0  0
  1 23  1  0  0  0  0
  1 24  1  0  0  0  0
  1 25  1  0  0  0  0
  2  1  1  0  0  0  0
  3  2  1  0  0  0  0
  4  3  2  0  0  0  0
  4 26  1  0  0  0  0
  5  4  1  0  0  0  0
  5 27  1  0  0  0  0
  6  5  2  0  0  0  0
  7  6  1  0  0  0  0
  7 28  1  0  0  0  0
  8  7  2  0  0  0  0
  8  3  1  0  0  0  0
  8 29  1  0  0  0  0
  9  6  1  0  0  0  0
 10  9  2  0  0  0  0
 11  9  1  0  0  0  0
 12 11  2  0  0  0  0
 12 30  1  0  0  0  0
 13 12  1  0  0  0  0
 14 13  2  0  0  0  0
 15 14  1  0  0  0  0
 16 15  1  0  0  0  0
 16 11  1  0  0  0  0
 17 16  2  0  0  0  0
 18 14  1  0  0  0  0
 18 31  1  0  0  0  0
 19 18  2  0  0  0  0
 19 32  1  0  0  0  0
 20 19  1  0  0  0  0
 21 20  1  0  0  0  0
 22 20  2  0  0  0  0
 22 13  1  0  0  0  0
 22 33  1  0  0  0  0
M  END
>  <MOL Chiral Flag>
0

>  <energy>
84.111471059800436

$$$$
> 530_AKC_ml200280r
>513.sdf
 OpenBabel10062215003D

 32 35  0  0  0  0  0  0  0  0999 V2000
   -1.6083    3.1669    2.0124 O   0  0  0  0  0  0  0  0  0  0  0  0
   -1.7234    2.3693    1.0944 C   0  0  0  0  0  0  0  0  0  0  0  0
   -3.0640    1.9294    0.6680 C   0  0  0  0  0  0  0  0  0  0  0  0
   -3.3763    1.1765   -0.4692 C   0  0  0  0  0  0  0  0  0  0  0  0
   -4.7724    0.9569   -0.6288 C   0  0  0  0  0  0  0  0  0  0  0  0
   -5.5491    1.5314    0.3824 C   0  0  0  0  0  0  0  0  0  0  0  0
   -4.4984    2.2908    1.4176 S   0  0  0  0  0  0  0  0  0  0  0  0
   -0.5129    1.8921    0.3840 C   0  0  0  0  0  0  0  0  0  0  0  0
   -0.0580    0.5935    0.6332 C   0  0  0  0  0  0  0  0  0  0  0  0
    1.0964    0.1098   -0.0139 C   0  0  0  0  0  0  0  0  0  0  0  0
    1.6391   -1.1943    0.2118 C   0  0  0  0  0  0  0  0  0  0  0  0
    1.0703   -2.1179    1.1244 C   0  0  0  0  0  0  0  0  0  0  0  0
    1.6455   -3.3773    1.3134 C   0  0  0  0  0  0  0  0  0  0  0  0
    2.7865   -3.7460    0.6055 C   0  0  0  0  0  0  0  0  0  0  0  0
    3.3661   -2.8583   -0.2983 C   0  0  0  0  0  0  0  0  0  0  0  0
    2.8070   -1.5862   -0.5018 C   0  0  0  0  0  0  0  0  0  0  0  0
    3.4084   -0.7062   -1.4092 C   0  0  0  0  0  0  0  0  0  0  0  0
    2.8796    0.5631   -1.6171 C   0  0  0  0  0  0  0  0  0  0  0  0
    1.7406    0.9790   -0.9289 C   0  0  0  0  0  0  0  0  0  0  0  0
    1.2749    2.2071   -1.1444 O   0  0  0  0  0  0  0  0  0  0  0  0
    0.2035    2.6957   -0.5309 C   0  0  0  0  0  0  0  0  0  0  0  0
   -0.2192    4.0347   -0.8448 S   0  0  0  0  0  0  0  0  0  0  0  0
   -2.6373    0.8125   -1.1710 H   0  0  0  0  0  0  0  0  0  0  0  0
   -5.1938    0.4043   -1.4579 H   0  0  0  0  0  0  0  0  0  0  0  0
   -6.6267    1.4934    0.4643 H   0  0  0  0  0  0  0  0  0  0  0  0
   -0.6092   -0.0039    1.3405 H   0  0  0  0  0  0  0  0  0  0  0  0
    0.1914   -1.8901    1.7024 H   0  0  0  0  0  0  0  0  0  0  0  0
    1.2022   -4.0715    2.0159 H   0  0  0  0  0  0  0  0  0  0  0  0
    3.2248   -4.7238    0.7590 H   0  0  0  0  0  0  0  0  0  0  0  0
    4.2550   -3.1617   -0.8389 H   0  0  0  0  0  0  0  0  0  0  0  0
    4.2964   -1.0022   -1.9554 H   0  0  0  0  0  0  0  0  0  0  0  0
    3.3612    1.2331   -2.3184 H   0  0  0  0  0  0  0  0  0  0  0  0
  2  1  2  0  0  0  0
  3  2  1  0  0  0  0
  4  3  2  0  0  0  0
  4 23  1  0  0  0  0
  5  4  1  0  0  0  0
  5 24  1  0  0  0  0
  6  5  2  0  0  0  0
  6 25  1  0  0  0  0
  7  6  1  0  0  0  0
  7  3  1  0  0  0  0
  8  2  1  0  0  0  0
  9  8  2  0  0  0  0
  9 26  1  0  0  0  0
 10  9  1  0  0  0  0
 11 10  2  0  0  0  0
 12 11  1  0  0  0  0
 12 27  1  0  0  0  0
 13 12  2  0  0  0  0
 13 28  1  0  0  0  0
 14 13  1  0  0  0  0
 14 29  1  0  0  0  0
 15 14  2  0  0  0  0
 15 30  1  0  0  0  0
 16 15  1  0  0  0  0
 16 11  1  0  0  0  0
 17 16  2  0  0  0  0
 17 31  1  0  0  0  0
 18 17  1  0  0  0  0
 18 32  1  0  0  0  0
 19 18  2  0  0  0  0
 19 10  1  0  0  0  0
 20 19  1  0  0  0  0
 21 20  1  0  0  0  0
 21  8  1  0  0  0  0
 22 21  2  0  0  0  0
M  END
>  <MOL Chiral Flag>
0

>  <energy>
81.655133728796471

$$$$
> 531_AKC_ejoc.201101414
>514.sdf
 OpenBabel10062215003D

 81 84  0  0  0  0  0  0  0  0999 V2000
    1.8456    5.3499    0.3335 H   0  0  0  0  0  0  0  0  0  0  0  0
    2.2771    4.5575   -0.2601 C   0  0  0  0  0  0  0  0  0  0  0  0
    2.0469    3.2388    0.1314 C   0  0  0  0  0  0  0  0  0  0  0  0
    2.5851    2.1584   -0.5964 C   0  0  0  0  0  0  0  0  0  0  0  0
    2.3666    0.6973   -0.1653 C   0  0  0  0  0  0  0  0  0  0  0  0
    1.5386    0.4973    1.1597 C   0  0  0  0  0  0  0  0  0  0  0  0
    1.6732   -0.8927    1.8593 C   0  0  1  0  0  0  0  0  0  0  0  0
    1.0280   -2.0801    1.0604 C   0  0  0  0  0  0  0  0  0  0  0  0
   -0.4771   -2.3832    1.3117 C   0  0  2  0  0  0  0  0  0  0  0  0
   -0.9656   -3.4973    0.3389 C   0  0  0  0  0  0  0  0  0  0  0  0
   -2.4687   -3.8044    0.5060 C   0  0  0  0  0  0  0  0  0  0  0  0
   -3.0347   -5.0355   -0.1904 C   0  0  0  0  0  0  0  0  0  0  0  0
   -4.4102   -5.2789   -0.0525 C   0  0  0  0  0  0  0  0  0  0  0  0
   -5.0095   -6.4266   -0.6101 C   0  0  0  0  0  0  0  0  0  0  0  0
   -6.3396   -6.6821   -0.4732 O   0  0  0  0  0  0  0  0  0  0  0  0
   -7.2401   -5.8846    0.2031 C   0  0  0  0  0  0  0  0  0  0  0  0
   -4.2217   -7.3503   -1.3097 C   0  0  0  0  0  0  0  0  0  0  0  0
   -4.8258   -8.4694   -1.7979 O   0  0  0  0  0  0  0  0  0  0  0  0
   -4.1870   -9.5549   -2.3610 C   0  0  0  0  0  0  0  0  0  0  0  0
   -2.8413   -7.1032   -1.4706 C   0  0  0  0  0  0  0  0  0  0  0  0
   -2.2537   -5.9528   -0.9214 C   0  0  0  0  0  0  0  0  0  0  0  0
   -1.2943   -1.2574    1.2501 O   0  0  0  0  0  0  0  0  0  0  0  0
   -2.2066   -0.9600    2.2335 C   0  0  0  0  0  0  0  0  0  0  0  0
   -2.3981   -1.7461    3.1570 O   0  0  0  0  0  0  0  0  0  0  0  0
   -3.0074    0.2852    2.1905 C   0  0  0  0  0  0  0  0  0  0  0  0
   -2.8105    1.2259    1.1682 C   0  0  0  0  0  0  0  0  0  0  0  0
   -3.5657    2.4033    1.1422 C   0  0  0  0  0  0  0  0  0  0  0  0
   -4.5235    2.6500    2.1316 C   0  0  0  0  0  0  0  0  0  0  0  0
   -5.5481    4.2609    2.0935 Br  0  0  0  0  0  0  0  0  0  0  0  0
   -4.7302    1.7170    3.1503 C   0  0  0  0  0  0  0  0  0  0  0  0
   -3.9777    0.5412    3.1826 C   0  0  0  0  0  0  0  0  0  0  0  0
    3.0423   -1.0484    2.0323 O   0  0  0  0  0  0  0  0  0  0  0  0
    3.7307   -2.1998    2.2118 C   0  0  0  0  0  0  0  0  0  0  0  0
    3.2598   -3.1260    2.8583 O   0  0  0  0  0  0  0  0  0  0  0  0
    4.9571   -2.3741    1.4151 C   0  0  0  0  0  0  0  0  0  0  0  0
    5.6063   -1.2448    0.8840 C   0  0  0  0  0  0  0  0  0  0  0  0
    6.7187   -1.3946    0.0582 C   0  0  0  0  0  0  0  0  0  0  0  0
    7.1874   -2.6723   -0.2559 C   0  0  0  0  0  0  0  0  0  0  0  0
    8.6892   -2.8748   -1.4150 Br  0  0  0  0  0  0  0  0  0  0  0  0
    6.5498   -3.8010    0.2720 C   0  0  0  0  0  0  0  0  0  0  0  0
    5.4423   -3.6545    1.1123 C   0  0  0  0  0  0  0  0  0  0  0  0
    3.3746    2.4509   -1.7341 C   0  0  0  0  0  0  0  0  0  0  0  0
    3.6061    3.7835   -2.1239 C   0  0  0  0  0  0  0  0  0  0  0  0
    3.0535    4.8451   -1.3953 C   0  0  0  0  0  0  0  0  0  0  0  0
    3.2756    6.1236   -1.8109 O   0  0  0  0  0  0  0  0  0  0  0  0
    2.6174    7.2381   -1.3200 C   0  0  0  0  0  0  0  0  0  0  0  0
    1.4449    3.0821    1.0089 H   0  0  0  0  0  0  0  0  0  0  0  0
    1.8981    0.1264   -0.9964 H   0  0  0  0  0  0  0  0  0  0  0  0
    3.3836    0.2841   -0.0254 H   0  0  0  0  0  0  0  0  0  0  0  0
    0.4807    0.7769    0.9834 H   0  0  0  0  0  0  0  0  0  0  0  0
    1.9772    1.1930    1.9048 H   0  0  0  0  0  0  0  0  0  0  0  0
    1.1983   -0.8492    2.8646 H   0  0  0  0  0  0  0  0  0  0  0  0
    1.2778   -1.9763   -0.0121 H   0  0  0  0  0  0  0  0  0  0  0  0
    1.4810   -3.0379    1.3790 H   0  0  0  0  0  0  0  0  0  0  0  0
   -0.5336   -2.8192    2.3376 H   0  0  0  0  0  0  0  0  0  0  0  0
   -0.7831   -3.2011   -0.7171 H   0  0  0  0  0  0  0  0  0  0  0  0
   -0.3707   -4.4090    0.5646 H   0  0  0  0  0  0  0  0  0  0  0  0
   -3.0350   -2.9124    0.1583 H   0  0  0  0  0  0  0  0  0  0  0  0
   -2.6740   -3.9526    1.5871 H   0  0  0  0  0  0  0  0  0  0  0  0
   -5.0080   -4.5708    0.5052 H   0  0  0  0  0  0  0  0  0  0  0  0
   -7.2887   -4.8773   -0.2630 H   0  0  0  0  0  0  0  0  0  0  0  0
   -8.2465   -6.3473    0.1476 H   0  0  0  0  0  0  0  0  0  0  0  0
   -6.9498   -5.8006    1.2721 H   0  0  0  0  0  0  0  0  0  0  0  0
   -3.6365   -9.2565   -3.2767 H   0  0  0  0  0  0  0  0  0  0  0  0
   -3.4954  -10.0150   -1.6228 H   0  0  0  0  0  0  0  0  0  0  0  0
   -4.9489  -10.3134   -2.6394 H   0  0  0  0  0  0  0  0  0  0  0  0
   -2.2157   -7.8021   -2.0101 H   0  0  0  0  0  0  0  0  0  0  0  0
   -1.1918   -5.8020   -1.0533 H   0  0  0  0  0  0  0  0  0  0  0  0
   -2.0731    1.0506    0.3968 H   0  0  0  0  0  0  0  0  0  0  0  0
   -3.4048    3.1250    0.3531 H   0  0  0  0  0  0  0  0  0  0  0  0
   -5.4719    1.9031    3.9177 H   0  0  0  0  0  0  0  0  0  0  0  0
   -4.1545   -0.1686    3.9832 H   0  0  0  0  0  0  0  0  0  0  0  0
    5.2526   -0.2467    1.1101 H   0  0  0  0  0  0  0  0  0  0  0  0
    7.2072   -0.5169   -0.3458 H   0  0  0  0  0  0  0  0  0  0  0  0
    6.9030   -4.7913    0.0204 H   0  0  0  0  0  0  0  0  0  0  0  0
    4.9418   -4.5361    1.4925 H   0  0  0  0  0  0  0  0  0  0  0  0
    3.8157    1.6521   -2.3192 H   0  0  0  0  0  0  0  0  0  0  0  0
    4.2111    3.9946   -2.9998 H   0  0  0  0  0  0  0  0  0  0  0  0
    2.7916    7.3614   -0.2298 H   0  0  0  0  0  0  0  0  0  0  0  0
    1.5274    7.1475   -1.5209 H   0  0  0  0  0  0  0  0  0  0  0  0
    2.9909    8.1476   -1.8337 H   0  0  0  0  0  0  0  0  0  0  0  0
  2  1  1  0  0  0  0
  3  2  2  0  0  0  0
  3 47  1  0  0  0  0
  4  3  1  0  0  0  0
  5  4  1  0  0  0  0
  5 48  1  0  0  0  0
  5 49  1  0  0  0  0
  6  5  1  0  0  0  0
  6 50  1  0  0  0  0
  6 51  1  0  0  0  0
  7  6  1  0  0  0  0
  7 52  1  1  0  0  0
  8  7  1  0  0  0  0
  8 53  1  0  0  0  0
  8 54  1  0  0  0  0
  9  8  1  0  0  0  0
  9 55  1  1  0  0  0
 10  9  1  0  0  0  0
 10 56  1  0  0  0  0
 10 57  1  0  0  0  0
 11 10  1  0  0  0  0
 11 58  1  0  0  0  0
 11 59  1  0  0  0  0
 12 11  1  0  0  0  0
 13 12  2  0  0  0  0
 13 60  1  0  0  0  0
 14 13  1  0  0  0  0
 15 14  1  0  0  0  0
 16 15  1  0  0  0  0
 16 61  1  0  0  0  0
 16 62  1  0  0  0  0
 16 63  1  0  0  0  0
 17 14  2  0  0  0  0
 18 17  1  0  0  0  0
 19 18  1  0  0  0  0
 19 64  1  0  0  0  0
 19 65  1  0  0  0  0
 19 66  1  0  0  0  0
 20 17  1  0  0  0  0
 20 67  1  0  0  0  0
 21 20  2  0  0  0  0
 21 12  1  0  0  0  0
 21 68  1  0  0  0  0
 22  9  1  0  0  0  0
 23 22  1  0  0  0  0
 24 23  2  0  0  0  0
 25 23  1  0  0  0  0
 26 25  2  0  0  0  0
 26 69  1  0  0  0  0
 27 26  1  0  0  0  0
 27 70  1  0  0  0  0
 28 27  2  0  0  0  0
 29 28  1  0  0  0  0
 30 28  1  0  0  0  0
 30 71  1  0  0  0  0
 31 30  2  0  0  0  0
 31 25  1  0  0  0  0
 31 72  1  0  0  0  0
 32  7  1  0  0  0  0
 33 32  1  0  0  0  0
 34 33  2  0  0  0  0
 35 33  1  0  0  0  0
 36 35  2  0  0  0  0
 36 73  1  0  0  0  0
 37 36  1  0  0  0  0
 37 74  1  0  0  0  0
 38 37  2  0  0  0  0
 39 38  1  0  0  0  0
 40 38  1  0  0  0  0
 40 75  1  0  0  0  0
 41 40  2  0  0  0  0
 41 35  1  0  0  0  0
 41 76  1  0  0  0  0
 42  4  2  0  0  0  0
 42 77  1  0  0  0  0
 43 42  1  0  0  0  0
 43 78  1  0  0  0  0
 44 43  2  0  0  0  0
 44  2  1  0  0  0  0
 45 44  1  0  0  0  0
 46 45  1  0  0  0  0
 46 79  1  0  0  0  0
 46 80  1  0  0  0  0
 46 81  1  0  0  0  0
M  END
>  <MOL Chiral Flag>
0

>  <energy>
165.37423116583301

$$$$
> 532_AKC_scitranslmed.3003326
>515.sdf
 OpenBabel10062215003D

 32 33  0  0  0  0  0  0  0  0999 V2000
    4.4394   -0.7622    1.1125 C   0  0  0  0  0  0  0  0  0  0  0  0
    4.5861    0.8002    0.1848 S   0  0  0  0  0  0  0  0  0  0  0  0
    2.8147    0.9000   -0.0492 C   0  0  0  0  0  0  0  0  0  0  0  0
    2.0070    1.4745    0.9372 C   0  0  0  0  0  0  0  0  0  0  0  0
    0.6180    1.5030    0.7774 C   0  0  0  0  0  0  0  0  0  0  0  0
    0.0233    0.9474   -0.3640 C   0  0  0  0  0  0  0  0  0  0  0  0
   -1.3348    0.9492   -0.4626 O   0  0  0  0  0  0  0  0  0  0  0  0
   -2.0435    0.1276   -1.3168 C   0  0  0  0  0  0  0  0  0  0  0  0
   -3.5414    0.2683   -1.2106 C   0  0  0  0  0  0  0  0  0  0  0  0
   -4.3523   -0.5782   -1.8818 N   0  0  0  0  0  0  0  0  0  0  0  0
   -5.6042   -0.2061   -1.5701 C   0  0  0  0  0  0  0  0  0  0  0  0
   -5.5502    0.8783   -0.7222 C   0  0  0  0  0  0  0  0  0  0  0  0
   -4.2466    1.1797   -0.4819 N   0  0  0  0  0  0  0  0  0  0  0  0
   -3.6786    2.2349    0.3678 C   0  0  0  0  0  0  0  0  0  0  0  0
   -6.7064    1.5512   -0.2192 N   0  3  0  0  0  0  0  0  0  0  0  0
   -6.6131    2.7191    0.3748 O   0  5  0  0  0  0  0  0  0  0  0  0
   -7.7896    1.0993   -0.4344 O   0  0  0  0  0  0  0  0  0  0  0  0
    0.8497    0.3826   -1.3623 C   0  0  0  0  0  0  0  0  0  0  0  0
    2.2361    0.3661   -1.2025 C   0  0  0  0  0  0  0  0  0  0  0  0
    5.4440   -1.2181    1.2156 H   0  0  0  0  0  0  0  0  0  0  0  0
    4.0250   -0.5660    2.1237 H   0  0  0  0  0  0  0  0  0  0  0  0
    3.8093   -1.4909    0.5582 H   0  0  0  0  0  0  0  0  0  0  0  0
    2.4549    1.8821    1.8347 H   0  0  0  0  0  0  0  0  0  0  0  0
    0.0004    1.9335    1.5552 H   0  0  0  0  0  0  0  0  0  0  0  0
   -1.7950   -0.9256   -1.0584 H   0  0  0  0  0  0  0  0  0  0  0  0
   -1.7633    0.3215   -2.3730 H   0  0  0  0  0  0  0  0  0  0  0  0
   -6.4933   -0.6882   -1.9535 H   0  0  0  0  0  0  0  0  0  0  0  0
   -4.4333    2.8239    0.9071 H   0  0  0  0  0  0  0  0  0  0  0  0
   -3.0358    1.7819    1.1502 H   0  0  0  0  0  0  0  0  0  0  0  0
   -3.0814    2.9358   -0.2522 H   0  0  0  0  0  0  0  0  0  0  0  0
    0.4325   -0.0518   -2.2589 H   0  0  0  0  0  0  0  0  0  0  0  0
    2.8597   -0.0787   -1.9684 H   0  0  0  0  0  0  0  0  0  0  0  0
  1 20  1  0  0  0  0
  1 21  1  0  0  0  0
  1 22  1  0  0  0  0
  2  1  1  0  0  0  0
  3  2  1  0  0  0  0
  4  3  2  0  0  0  0
  4 23  1  0  0  0  0
  5  4  1  0  0  0  0
  5 24  1  0  0  0  0
  6  5  2  0  0  0  0
  7  6  1  0  0  0  0
  8  7  1  0  0  0  0
  8 25  1  0  0  0  0
  8 26  1  0  0  0  0
  9  8  1  0  0  0  0
 10  9  2  0  0  0  0
 11 10  1  0  0  0  0
 11 27  1  0  0  0  0
 12 11  2  0  0  0  0
 13 12  1  0  0  0  0
 13  9  1  0  0  0  0
 14 13  1  0  0  0  0
 14 28  1  0  0  0  0
 14 29  1  0  0  0  0
 14 30  1  0  0  0  0
 15 12  1  0  0  0  0
 16 15  1  0  0  0  0
 17 15  2  0  0  0  0
 18  6  1  0  0  0  0
 18 31  1  0  0  0  0
 19 18  2  0  0  0  0
 19  3  1  0  0  0  0
 19 32  1  0  0  0  0
M  CHG  2  15   1  16  -1
M  END
>  <MOL Chiral Flag>
0

>  <energy>
36.051314245212509

$$$$
> 533_AKC_jac/dkr480
>516.sdf
 OpenBabel10062215013D

 40 43  0  0  0  0  0  0  0  0999 V2000
    2.5729   -3.0878   -3.0818 Cl  0  0  0  0  0  0  0  0  0  0  0  0
    1.7628   -2.5221   -1.6225 C   0  0  0  0  0  0  0  0  0  0  0  0
    0.7269   -3.2495   -1.1473 N   0  0  0  0  0  0  0  0  0  0  0  0
    0.0647   -2.8978   -0.0509 N   0  0  0  0  0  0  0  0  0  0  0  0
    0.3678   -1.7858    0.6777 C   0  0  0  0  0  0  0  0  0  0  0  0
   -0.3917   -1.5209    1.8757 N   0  0  0  0  0  0  0  0  0  0  0  0
   -1.3487   -2.5043    2.3840 C   0  0  0  0  0  0  0  0  0  0  0  0
   -2.6631   -1.9245    2.9695 C   0  0  0  0  0  0  0  0  0  0  0  0
   -3.5803   -3.1282    3.3321 C   0  0  0  0  0  0  0  0  0  0  0  0
   -4.5893   -2.8980    4.3731 N   0  0  0  0  0  0  0  0  0  0  0  0
   -5.9246   -3.0112    4.2565 C   0  0  0  0  0  0  0  0  0  0  0  0
   -6.4783   -2.8586    5.5105 C   0  0  0  0  0  0  0  0  0  0  0  0
   -5.4903   -2.6446    6.4035 N   0  0  0  0  0  0  0  0  0  0  0  0
   -4.3496   -2.6717    5.6812 C   0  0  0  0  0  0  0  0  0  0  0  0
    1.4560   -0.9667    0.2335 C   0  0  0  0  0  0  0  0  0  0  0  0
    1.8723    0.2050    0.9121 C   0  0  0  0  0  0  0  0  0  0  0  0
    2.9504    0.9719    0.4269 C   0  0  0  0  0  0  0  0  0  0  0  0
    3.6299    0.5747   -0.7448 C   0  0  0  0  0  0  0  0  0  0  0  0
    4.7022    1.3443   -1.2304 C   0  0  0  0  0  0  0  0  0  0  0  0
    5.0965    2.5017   -0.5566 C   0  0  0  0  0  0  0  0  0  0  0  0
    4.4288    2.8973    0.6044 C   0  0  0  0  0  0  0  0  0  0  0  0
    3.3608    2.1381    1.0976 C   0  0  0  0  0  0  0  0  0  0  0  0
    3.2338   -0.5813   -1.4179 C   0  0  0  0  0  0  0  0  0  0  0  0
    2.1568   -1.3557   -0.9435 C   0  0  0  0  0  0  0  0  0  0  0  0
   -0.1298   -0.7485    2.5001 H   0  0  0  0  0  0  0  0  0  0  0  0
   -1.6031   -3.2516    1.6051 H   0  0  0  0  0  0  0  0  0  0  0  0
   -0.8533   -3.0486    3.2176 H   0  0  0  0  0  0  0  0  0  0  0  0
   -3.1933   -1.2646    2.2450 H   0  0  0  0  0  0  0  0  0  0  0  0
   -2.3984   -1.3250    3.8658 H   0  0  0  0  0  0  0  0  0  0  0  0
   -4.0605   -3.4889    2.3955 H   0  0  0  0  0  0  0  0  0  0  0  0
   -2.9575   -3.9601    3.7215 H   0  0  0  0  0  0  0  0  0  0  0  0
   -6.4580   -3.2233    3.3397 H   0  0  0  0  0  0  0  0  0  0  0  0
   -7.5285   -2.9276    5.7674 H   0  0  0  0  0  0  0  0  0  0  0  0
   -3.3628   -2.5816    6.1157 H   0  0  0  0  0  0  0  0  0  0  0  0
    1.3762    0.5385    1.8083 H   0  0  0  0  0  0  0  0  0  0  0  0
    5.2311    1.0504   -2.1304 H   0  0  0  0  0  0  0  0  0  0  0  0
    5.9213    3.0929   -0.9355 H   0  0  0  0  0  0  0  0  0  0  0  0
    4.7396    3.7954    1.1226 H   0  0  0  0  0  0  0  0  0  0  0  0
    2.8554    2.4612    1.9988 H   0  0  0  0  0  0  0  0  0  0  0  0
    3.7706   -0.8709   -2.3130 H   0  0  0  0  0  0  0  0  0  0  0  0
  2  1  1  0  0  0  0
  3  2  2  0  0  0  0
  4  3  1  0  0  0  0
  5  4  2  0  0  0  0
  6  5  1  0  0  0  0
  6 25  1  0  0  0  0
  7  6  1  0  0  0  0
  7 26  1  0  0  0  0
  7 27  1  0  0  0  0
  8  7  1  0  0  0  0
  8 28  1  0  0  0  0
  8 29  1  0  0  0  0
  9  8  1  0  0  0  0
  9 30  1  0  0  0  0
  9 31  1  0  0  0  0
 10  9  1  0  0  0  0
 11 10  1  0  0  0  0
 11 32  1  0  0  0  0
 12 11  2  0  0  0  0
 12 33  1  0  0  0  0
 13 12  1  0  0  0  0
 14 13  2  0  0  0  0
 14 10  1  0  0  0  0
 14 34  1  0  0  0  0
 15  5  1  0  0  0  0
 16 15  2  0  0  0  0
 16 35  1  0  0  0  0
 17 16  1  0  0  0  0
 18 17  2  0  0  0  0
 19 18  1  0  0  0  0
 19 36  1  0  0  0  0
 20 19  2  0  0  0  0
 20 37  1  0  0  0  0
 21 20  1  0  0  0  0
 21 38  1  0  0  0  0
 22 21  2  0  0  0  0
 22 17  1  0  0  0  0
 22 39  1  0  0  0  0
 23 18  1  0  0  0  0
 23 40  1  0  0  0  0
 24 23  2  0  0  0  0
 24  2  1  0  0  0  0
 24 15  1  0  0  0  0
M  END
>  <MOL Chiral Flag>
0

>  <energy>
62.25285532923003

$$$$
> 534_AKC_jac/dkr480
>517.sdf
 OpenBabel10062215013D

 34 37  0  0  0  0  0  0  0  0999 V2000
   -0.3875    0.7984    4.5774 Cl  0  0  0  0  0  0  0  0  0  0  0  0
   -0.4436    1.2200    2.8685 C   0  0  0  0  0  0  0  0  0  0  0  0
   -1.2428    2.2479    2.4870 N   0  0  0  0  0  0  0  0  0  0  0  0
   -1.3240    2.6450    1.2180 N   0  0  0  0  0  0  0  0  0  0  0  0
   -0.6318    2.0293    0.2215 C   0  0  0  0  0  0  0  0  0  0  0  0
   -0.7278    2.5329   -1.1099 N   0  0  0  0  0  0  0  0  0  0  0  0
   -1.2238    3.8624   -1.3929 C   0  0  0  0  0  0  0  0  0  0  0  0
   -0.8710    4.2134   -2.7687 N   0  0  0  0  0  0  0  0  0  0  0  0
   -1.6888    4.5570   -3.7745 C   0  0  0  0  0  0  0  0  0  0  0  0
   -0.9134    4.7800   -4.8932 C   0  0  0  0  0  0  0  0  0  0  0  0
    0.3831    4.5762   -4.5801 N   0  0  0  0  0  0  0  0  0  0  0  0
    0.3783    4.2342   -3.2765 C   0  0  0  0  0  0  0  0  0  0  0  0
    0.2236    0.9429    0.5470 C   0  0  0  0  0  0  0  0  0  0  0  0
    1.0069    0.2769   -0.4248 C   0  0  0  0  0  0  0  0  0  0  0  0
    1.8795   -0.7491   -0.0619 C   0  0  0  0  0  0  0  0  0  0  0  0
    1.9833   -1.1420    1.2873 C   0  0  0  0  0  0  0  0  0  0  0  0
    2.8805   -2.1632    1.6421 C   0  0  0  0  0  0  0  0  0  0  0  0
    3.6638   -2.7824    0.6616 C   0  0  0  0  0  0  0  0  0  0  0  0
    3.5547   -2.3930   -0.6754 C   0  0  0  0  0  0  0  0  0  0  0  0
    2.6657   -1.3815   -1.0388 C   0  0  0  0  0  0  0  0  0  0  0  0
    1.2014   -0.5037    2.2604 C   0  0  0  0  0  0  0  0  0  0  0  0
    0.3245    0.5424    1.9022 C   0  0  0  0  0  0  0  0  0  0  0  0
   -0.3172    2.0169   -1.8929 H   0  0  0  0  0  0  0  0  0  0  0  0
   -0.7194    4.5900   -0.7201 H   0  0  0  0  0  0  0  0  0  0  0  0
   -2.3211    3.9139   -1.2219 H   0  0  0  0  0  0  0  0  0  0  0  0
   -2.7650    4.6361   -3.7037 H   0  0  0  0  0  0  0  0  0  0  0  0
   -1.2626    5.0683   -5.8746 H   0  0  0  0  0  0  0  0  0  0  0  0
    1.2703    3.9906   -2.7110 H   0  0  0  0  0  0  0  0  0  0  0  0
    0.9777    0.5421   -1.4655 H   0  0  0  0  0  0  0  0  0  0  0  0
    2.9795   -2.4746    2.6745 H   0  0  0  0  0  0  0  0  0  0  0  0
    4.3585   -3.5641    0.9380 H   0  0  0  0  0  0  0  0  0  0  0  0
    4.1623   -2.8724   -1.4322 H   0  0  0  0  0  0  0  0  0  0  0  0
    2.5948   -1.0864   -2.0798 H   0  0  0  0  0  0  0  0  0  0  0  0
    1.2958   -0.8136    3.2932 H   0  0  0  0  0  0  0  0  0  0  0  0
  2  1  1  0  0  0  0
  3  2  2  0  0  0  0
  4  3  1  0  0  0  0
  5  4  2  0  0  0  0
  6  5  1  0  0  0  0
  6 23  1  0  0  0  0
  7  6  1  0  0  0  0
  7 24  1  0  0  0  0
  7 25  1  0  0  0  0
  8  7  1  0  0  0  0
  9  8  1  0  0  0  0
  9 26  1  0  0  0  0
 10  9  2  0  0  0  0
 10 27  1  0  0  0  0
 11 10  1  0  0  0  0
 12 11  2  0  0  0  0
 12  8  1  0  0  0  0
 12 28  1  0  0  0  0
 13  5  1  0  0  0  0
 14 13  2  0  0  0  0
 14 29  1  0  0  0  0
 15 14  1  0  0  0  0
 16 15  2  0  0  0  0
 17 16  1  0  0  0  0
 17 30  1  0  0  0  0
 18 17  2  0  0  0  0
 18 31  1  0  0  0  0
 19 18  1  0  0  0  0
 19 32  1  0  0  0  0
 20 19  2  0  0  0  0
 20 15  1  0  0  0  0
 20 33  1  0  0  0  0
 21 16  1  0  0  0  0
 21 34  1  0  0  0  0
 22 21  2  0  0  0  0
 22  2  1  0  0  0  0
 22 13  1  0  0  0  0
M  END
>  <MOL Chiral Flag>
0

>  <energy>
63.1755973978198

$$$$
> 535_AKC_2012/203646
>518.sdf
 OpenBabel10062215023D

122126  0  0  0  0  0  0  0  0999 V2000
    6.6742    3.6496    2.9747 C   0  0  0  0  0  0  0  0  0  0  0  0
    6.1315    2.2598    2.6330 C   0  0  2  0  0  0  0  0  0  0  0  0
    4.7121    2.3203    2.6772 O   0  0  0  0  0  0  0  0  0  0  0  0
    4.1105    1.0813    2.3277 C   0  0  1  0  0  0  0  0  0  0  0  0
    4.3904    0.7347    1.0085 O   0  0  0  0  0  0  0  0  0  0  0  0
    3.4535    0.5909    0.0322 C   0  0  0  0  0  0  0  0  0  0  0  0
    2.2928    1.3795   -0.0039 C   0  0  0  0  0  0  0  0  0  0  0  0
    1.3204    1.1650   -0.9782 C   0  0  0  0  0  0  0  0  0  0  0  0
    1.4834    0.1463   -1.9374 C   0  0  0  0  0  0  0  0  0  0  0  0
    2.6713   -0.6336   -1.9368 C   0  0  0  0  0  0  0  0  0  0  0  0
    2.8333   -1.5954   -2.8915 O   0  0  0  0  0  0  0  0  0  0  0  0
    3.6834   -2.6588   -2.9122 C   0  0  0  0  0  0  0  0  0  0  0  0
    3.8469   -3.4345   -4.1793 C   0  0  0  0  0  0  0  0  0  0  0  0
    4.2724   -3.0255   -1.9072 O   0  0  0  0  0  0  0  0  0  0  0  0
    3.6523   -0.3845   -0.9489 C   0  0  0  0  0  0  0  0  0  0  0  0
    0.4225   -0.0786   -2.8401 C   0  0  0  0  0  0  0  0  0  0  0  0
    0.4890   -0.9707   -3.6679 O   0  0  0  0  0  0  0  0  0  0  0  0
   -0.7396    0.7132   -2.7584 C   0  0  0  0  0  0  0  0  0  0  0  0
   -1.8342    0.4220   -3.5047 O   0  0  0  0  0  0  0  0  0  0  0  0
   -2.4855   -0.8088   -3.5010 C   0  0  2  0  0  0  0  0  0  0  0  0
   -3.6639   -0.6659   -4.2805 O   0  0  0  0  0  0  0  0  0  0  0  0
   -4.3707   -1.8955   -4.4185 C   0  0  2  0  0  0  0  0  0  0  0  0
   -5.4782   -1.6484   -5.4752 C   0  0  0  0  0  0  0  0  0  0  0  0
   -5.9337   -2.8437   -6.2991 C   0  0  0  0  0  0  0  0  0  0  0  0
   -6.6325   -4.0296   -5.7125 C   0  0  0  0  0  0  0  0  0  0  0  0
   -5.7565   -2.8205   -7.5088 O   0  0  0  0  0  0  0  0  0  0  0  0
   -4.9074   -2.2988   -3.0092 C   0  0  1  0  0  0  0  0  0  0  0  0
   -5.6216   -3.4835   -3.0061 O   0  0  0  0  0  0  0  0  0  0  0  0
   -6.8696   -3.6374   -2.4798 C   0  0  0  0  0  0  0  0  0  0  0  0
   -7.4860   -4.9985   -2.4296 C   0  0  0  0  0  0  0  0  0  0  0  0
   -7.4871   -2.6829   -2.0291 O   0  0  0  0  0  0  0  0  0  0  0  0
   -3.7099   -2.4805   -2.0724 C   0  0  2  0  0  0  0  0  0  0  0  0
   -4.1644   -2.7573   -0.7903 O   0  0  0  0  0  0  0  0  0  0  0  0
   -3.8730   -3.8595   -0.0459 C   0  0  0  0  0  0  0  0  0  0  0  0
   -2.9611   -4.9474   -0.5421 C   0  0  0  0  0  0  0  0  0  0  0  0
   -4.3612   -3.9618    1.0680 O   0  0  0  0  0  0  0  0  0  0  0  0
   -2.8735   -1.2003   -2.0467 C   0  0  1  0  0  0  0  0  0  0  0  0
   -1.7331   -1.4371   -1.2916 O   0  0  0  0  0  0  0  0  0  0  0  0
   -1.5278   -1.1638    0.0292 C   0  0  0  0  0  0  0  0  0  0  0  0
   -2.5985   -0.6312    0.9474 C   0  0  0  0  0  0  0  0  0  0  0  0
   -0.4246   -1.3839    0.5024 O   0  0  0  0  0  0  0  0  0  0  0  0
   -0.7878    1.7693   -1.8138 C   0  0  0  0  0  0  0  0  0  0  0  0
    0.2307    1.9214   -0.9697 O   0  0  0  0  0  0  0  0  0  0  0  0
   -1.9562    2.7057   -1.6516 C   0  0  0  0  0  0  0  0  0  0  0  0
   -2.0356    3.4769   -0.4735 C   0  0  0  0  0  0  0  0  0  0  0  0
   -3.0967    4.3739   -0.2547 C   0  0  0  0  0  0  0  0  0  0  0  0
   -3.1905    5.0997    0.8926 O   0  0  0  0  0  0  0  0  0  0  0  0
   -2.8574    4.7302    2.1628 C   0  0  0  0  0  0  0  0  0  0  0  0
   -2.8340    3.2889    2.6137 C   0  0  0  0  0  0  0  0  0  0  0  0
   -2.6854    5.6041    2.9976 O   0  0  0  0  0  0  0  0  0  0  0  0
   -4.0727    4.5437   -1.2577 C   0  0  0  0  0  0  0  0  0  0  0  0
   -5.1041    5.4120   -1.1067 O   0  0  0  0  0  0  0  0  0  0  0  0
   -4.9904    6.7290   -0.7832 C   0  0  0  0  0  0  0  0  0  0  0  0
   -3.7219    7.5045   -1.0373 C   0  0  0  0  0  0  0  0  0  0  0  0
   -5.9711    7.3199   -0.3602 O   0  0  0  0  0  0  0  0  0  0  0  0
   -4.0052    3.7819   -2.4244 C   0  0  0  0  0  0  0  0  0  0  0  0
   -2.9651    2.8753   -2.6270 C   0  0  0  0  0  0  0  0  0  0  0  0
    4.5470   -0.0596    3.2798 C   0  0  2  0  0  0  0  0  0  0  0  0
    4.1172    0.1830    4.5781 O   0  0  0  0  0  0  0  0  0  0  0  0
    2.8196    0.1257    4.9840 C   0  0  0  0  0  0  0  0  0  0  0  0
    2.4752    0.4847    6.3934 C   0  0  0  0  0  0  0  0  0  0  0  0
    1.9370   -0.2369    4.2180 O   0  0  0  0  0  0  0  0  0  0  0  0
    6.0858   -0.1628    3.2632 C   0  0  2  0  0  0  0  0  0  0  0  0
    6.5382   -1.1143    4.1644 O   0  0  0  0  0  0  0  0  0  0  0  0
    6.3328   -2.4524    4.0415 C   0  0  0  0  0  0  0  0  0  0  0  0
    6.7963   -3.3660    5.1294 C   0  0  0  0  0  0  0  0  0  0  0  0
    5.7898   -2.9164    3.0484 O   0  0  0  0  0  0  0  0  0  0  0  0
    6.6729    1.2071    3.6294 C   0  0  1  0  0  0  0  0  0  0  0  0
    8.0580    1.1442    3.5523 O   0  0  0  0  0  0  0  0  0  0  0  0
    8.9345    1.3546    4.5747 C   0  0  0  0  0  0  0  0  0  0  0  0
    8.4803    1.6758    5.9738 C   0  0  0  0  0  0  0  0  0  0  0  0
   10.1312    1.2743    4.3484 O   0  0  0  0  0  0  0  0  0  0  0  0
    6.3597    3.9483    3.9979 H   0  0  0  0  0  0  0  0  0  0  0  0
    7.7834    3.6650    2.9195 H   0  0  0  0  0  0  0  0  0  0  0  0
    6.2810    4.3948    2.2511 H   0  0  0  0  0  0  0  0  0  0  0  0
    6.4729    2.0246    1.5984 H   0  0  0  0  0  0  0  0  0  0  0  0
    3.0184    1.1943    2.4689 H   0  0  0  0  0  0  0  0  0  0  0  0
    2.1301    2.1599    0.7275 H   0  0  0  0  0  0  0  0  0  0  0  0
    3.5232   -4.4844   -4.0212 H   0  0  0  0  0  0  0  0  0  0  0  0
    3.2306   -2.9863   -4.9873 H   0  0  0  0  0  0  0  0  0  0  0  0
    4.9122   -3.4208   -4.4912 H   0  0  0  0  0  0  0  0  0  0  0  0
    4.5682   -0.9521   -0.9125 H   0  0  0  0  0  0  0  0  0  0  0  0
   -1.8287   -1.5835   -3.9542 H   0  0  0  0  0  0  0  0  0  0  0  0
   -3.6812   -2.6613   -4.8452 H   0  0  0  0  0  0  0  0  0  0  0  0
   -6.3382   -1.1149   -5.0165 H   0  0  0  0  0  0  0  0  0  0  0  0
   -5.0419   -0.9497   -6.2255 H   0  0  0  0  0  0  0  0  0  0  0  0
   -5.9490   -4.5880   -5.0484 H   0  0  0  0  0  0  0  0  0  0  0  0
   -6.9360   -4.7360   -6.5148 H   0  0  0  0  0  0  0  0  0  0  0  0
   -7.5476   -3.7014   -5.1785 H   0  0  0  0  0  0  0  0  0  0  0  0
   -5.5268   -1.4559   -2.6240 H   0  0  0  0  0  0  0  0  0  0  0  0
   -7.6959   -5.2734   -1.3743 H   0  0  0  0  0  0  0  0  0  0  0  0
   -8.4352   -5.0034   -3.0049 H   0  0  0  0  0  0  0  0  0  0  0  0
   -6.7951   -5.7511   -2.8641 H   0  0  0  0  0  0  0  0  0  0  0  0
   -3.0770   -3.2999   -2.4781 H   0  0  0  0  0  0  0  0  0  0  0  0
   -1.9554   -4.5271   -0.7543 H   0  0  0  0  0  0  0  0  0  0  0  0
   -2.8522   -5.7457    0.2228 H   0  0  0  0  0  0  0  0  0  0  0  0
   -3.3821   -5.4011   -1.4634 H   0  0  0  0  0  0  0  0  0  0  0  0
   -3.4740   -0.3578   -1.6442 H   0  0  0  0  0  0  0  0  0  0  0  0
   -3.5803   -0.4768    0.4676 H   0  0  0  0  0  0  0  0  0  0  0  0
   -2.7493   -1.3519    1.7787 H   0  0  0  0  0  0  0  0  0  0  0  0
   -2.2654    0.3375    1.3721 H   0  0  0  0  0  0  0  0  0  0  0  0
   -1.2628    3.3850    0.2720 H   0  0  0  0  0  0  0  0  0  0  0  0
   -2.6351    3.2329    3.7064 H   0  0  0  0  0  0  0  0  0  0  0  0
   -2.0466    2.6944    2.1224 H   0  0  0  0  0  0  0  0  0  0  0  0
   -3.8212    2.8212    2.4167 H   0  0  0  0  0  0  0  0  0  0  0  0
   -3.8561    8.5703   -0.7539 H   0  0  0  0  0  0  0  0  0  0  0  0
   -2.8668    7.1081   -0.4595 H   0  0  0  0  0  0  0  0  0  0  0  0
   -3.4751    7.4567   -2.1186 H   0  0  0  0  0  0  0  0  0  0  0  0
   -4.7591    3.9066   -3.1926 H   0  0  0  0  0  0  0  0  0  0  0  0
   -2.9585    2.3520   -3.5646 H   0  0  0  0  0  0  0  0  0  0  0  0
    4.1084   -1.0220    2.9347 H   0  0  0  0  0  0  0  0  0  0  0  0
    2.7690    1.5366    6.5896 H   0  0  0  0  0  0  0  0  0  0  0  0
    1.3837    0.3761    6.5728 H   0  0  0  0  0  0  0  0  0  0  0  0
    3.0213   -0.1844    7.0905 H   0  0  0  0  0  0  0  0  0  0  0  0
    6.4385   -0.4300    2.2395 H   0  0  0  0  0  0  0  0  0  0  0  0
    6.2850   -3.0996    6.0778 H   0  0  0  0  0  0  0  0  0  0  0  0
    7.8929   -3.2577    5.2621 H   0  0  0  0  0  0  0  0  0  0  0  0
    6.5659   -4.4242    4.8809 H   0  0  0  0  0  0  0  0  0  0  0  0
    6.3250    1.4814    4.6482 H   0  0  0  0  0  0  0  0  0  0  0  0
    7.8529    0.8479    6.3659 H   0  0  0  0  0  0  0  0  0  0  0  0
    9.3527    1.8030    6.6503 H   0  0  0  0  0  0  0  0  0  0  0  0
    7.8984    2.6211    5.9763 H   0  0  0  0  0  0  0  0  0  0  0  0
  1 73  1  0  0  0  0
  1 74  1  0  0  0  0
  1 75  1  0  0  0  0
  2  1  1  0  0  0  0
  2 76  1  6  0  0  0
  3  2  1  0  0  0  0
  4  3  1  0  0  0  0
  4 77  1  1  0  0  0
  5  4  1  0  0  0  0
  6  5  1  0  0  0  0
  7  6  2  0  0  0  0
  7 78  1  0  0  0  0
  8  7  1  0  0  0  0
  9  8  2  0  0  0  0
 10  9  1  0  0  0  0
 11 10  1  0  0  0  0
 12 11  1  0  0  0  0
 13 12  1  0  0  0  0
 13 79  1  0  0  0  0
 13 80  1  0  0  0  0
 13 81  1  0  0  0  0
 14 12  2  0  0  0  0
 15 10  2  0  0  0  0
 15  6  1  0  0  0  0
 15 82  1  0  0  0  0
 16  9  1  0  0  0  0
 17 16  2  0  0  0  0
 18 16  1  0  0  0  0
 19 18  1  0  0  0  0
 20 19  1  0  0  0  0
 20 83  1  6  0  0  0
 21 20  1  0  0  0  0
 22 21  1  0  0  0  0
 22 84  1  6  0  0  0
 23 22  1  0  0  0  0
 23 85  1  0  0  0  0
 23 86  1  0  0  0  0
 24 23  1  0  0  0  0
 25 24  1  0  0  0  0
 25 87  1  0  0  0  0
 25 88  1  0  0  0  0
 25 89  1  0  0  0  0
 26 24  2  0  0  0  0
 27 22  1  0  0  0  0
 27 90  1  1  0  0  0
 28 27  1  0  0  0  0
 29 28  1  0  0  0  0
 30 29  1  0  0  0  0
 30 91  1  0  0  0  0
 30 92  1  0  0  0  0
 30 93  1  0  0  0  0
 31 29  2  0  0  0  0
 32 27  1  0  0  0  0
 32 94  1  6  0  0  0
 33 32  1  0  0  0  0
 34 33  1  0  0  0  0
 35 34  1  0  0  0  0
 35 95  1  0  0  0  0
 35 96  1  0  0  0  0
 35 97  1  0  0  0  0
 36 34  2  0  0  0  0
 37 32  1  0  0  0  0
 37 20  1  0  0  0  0
 37 98  1  1  0  0  0
 38 37  1  0  0  0  0
 39 38  1  0  0  0  0
 40 39  1  0  0  0  0
 40 99  1  0  0  0  0
 40100  1  0  0  0  0
 40101  1  0  0  0  0
 41 39  2  0  0  0  0
 42 18  2  0  0  0  0
 43 42  1  0  0  0  0
 43  8  1  0  0  0  0
 44 42  1  0  0  0  0
 45 44  2  0  0  0  0
 45102  1  0  0  0  0
 46 45  1  0  0  0  0
 47 46  1  0  0  0  0
 48 47  1  0  0  0  0
 49 48  1  0  0  0  0
 49103  1  0  0  0  0
 49104  1  0  0  0  0
 49105  1  0  0  0  0
 50 48  2  0  0  0  0
 51 46  2  0  0  0  0
 52 51  1  0  0  0  0
 53 52  1  0  0  0  0
 54 53  1  0  0  0  0
 54106  1  0  0  0  0
 54107  1  0  0  0  0
 54108  1  0  0  0  0
 55 53  2  0  0  0  0
 56 51  1  0  0  0  0
 56109  1  0  0  0  0
 57 56  2  0  0  0  0
 57 44  1  0  0  0  0
 57110  1  0  0  0  0
 58  4  1  0  0  0  0
 58111  1  6  0  0  0
 59 58  1  0  0  0  0
 60 59  1  0  0  0  0
 61 60  1  0  0  0  0
 61112  1  0  0  0  0
 61113  1  0  0  0  0
 61114  1  0  0  0  0
 62 60  2  0  0  0  0
 63 58  1  0  0  0  0
 63115  1  6  0  0  0
 64 63  1  0  0  0  0
 65 64  1  0  0  0  0
 66 65  1  0  0  0  0
 66116  1  0  0  0  0
 66117  1  0  0  0  0
 66118  1  0  0  0  0
 67 65  2  0  0  0  0
 68 63  1  0  0  0  0
 68  2  1  0  0  0  0
 68119  1  1  0  0  0
 69 68  1  0  0  0  0
 70 69  1  0  0  0  0
 71 70  1  0  0  0  0
 71120  1  0  0  0  0
 71121  1  0  0  0  0
 71122  1  0  0  0  0
 72 70  2  0  0  0  0
M  END
>  <MOL Chiral Flag>
0

>  <energy>
289.93457965732728

$$$$
> 536_AKC_j.exppara.2012.08.016
>519.sdf
 OpenBabel10062215023D

 19 18  0  0  0  0  0  0  0  0999 V2000
   -3.5260   -0.6238   -2.5628 C   0  0  0  0  0  0  0  0  0  0  0  0
   -2.2052   -0.5100   -2.3984 C   0  0  0  0  0  0  0  0  0  0  0  0
   -1.5827   -0.3223   -1.0410 C   0  0  0  0  0  0  0  0  0  0  0  0
   -0.2838   -1.5819   -0.7674 S   0  0  0  0  0  0  0  0  0  0  0  0
    0.1420   -1.1035    1.2919 S   0  0  2  0  0  0  0  0  0  0  0  0
    0.1553    0.4157    1.0600 O   0  0  0  0  0  0  0  0  0  0  0  0
    1.9619   -1.1872    1.0835 C   0  0  0  0  0  0  0  0  0  0  0  0
    2.6449   -0.5273    2.2532 C   0  0  0  0  0  0  0  0  0  0  0  0
    3.4519    0.5274    2.0919 C   0  0  0  0  0  0  0  0  0  0  0  0
   -3.9403   -0.7389   -3.5606 H   0  0  0  0  0  0  0  0  0  0  0  0
   -4.2049   -0.5852   -1.7156 H   0  0  0  0  0  0  0  0  0  0  0  0
   -1.5613   -0.5288   -3.2737 H   0  0  0  0  0  0  0  0  0  0  0  0
   -2.3539   -0.3847   -0.2420 H   0  0  0  0  0  0  0  0  0  0  0  0
   -1.1097    0.6795   -1.0484 H   0  0  0  0  0  0  0  0  0  0  0  0
    2.2780   -2.2511    1.0528 H   0  0  0  0  0  0  0  0  0  0  0  0
    2.2618   -0.7095    0.1244 H   0  0  0  0  0  0  0  0  0  0  0  0
    2.4755   -0.9155    3.2533 H   0  0  0  0  0  0  0  0  0  0  0  0
    3.6402    0.9439    1.1070 H   0  0  0  0  0  0  0  0  0  0  0  0
    3.9276    0.9843    2.9543 H   0  0  0  0  0  0  0  0  0  0  0  0
  1 10  1  0  0  0  0
  1 11  1  0  0  0  0
  2  1  2  0  0  0  0
  2 12  1  0  0  0  0
  3  2  1  0  0  0  0
  3 13  1  0  0  0  0
  3 14  1  0  0  0  0
  4  3  1  0  0  0  0
  5  4  1  6  0  0  0
  6  5  2  0  0  0  0
  7  5  1  0  0  0  0
  7 15  1  0  0  0  0
  7 16  1  0  0  0  0
  8  7  1  0  0  0  0
  8 17  1  0  0  0  0
  9  8  2  0  0  0  0
  9 18  1  0  0  0  0
  9 19  1  0  0  0  0
M  END
>  <MOL Chiral Flag>
0

>  <energy>
31.997000218686519

$$$$
> 537_AKC_157018012800389359
>520.sdf
 OpenBabel10062215023D

 34 36  0  0  0  0  0  0  0  0999 V2000
    4.1680   -2.4766    0.0506 C   0  0  0  0  0  0  0  0  0  0  0  0
    3.1196   -2.4372   -1.1111 C   0  0  0  0  0  0  0  0  0  0  0  0
    2.7743   -3.9127   -1.3961 C   0  0  0  0  0  0  0  0  0  0  0  0
    1.7867   -1.5845   -0.8883 C   0  0  0  0  0  0  0  0  0  0  0  0
    1.9758   -0.1325   -0.6120 N   0  0  0  0  0  0  0  0  0  0  0  0
    3.1959    0.4662   -0.5990 C   0  0  0  0  0  0  0  0  0  0  0  0
    3.1439    1.7577   -0.2403 N   0  0  0  0  0  0  0  0  0  0  0  0
    1.8509    2.0072   -0.0583 C   0  0  0  0  0  0  0  0  0  0  0  0
    1.0892    0.8879   -0.3118 C   0  0  0  0  0  0  0  0  0  0  0  0
   -0.3453    1.0094   -0.2261 C   0  0  0  0  0  0  0  0  0  0  0  0
   -1.2849   -0.0096   -0.5106 C   0  0  0  0  0  0  0  0  0  0  0  0
   -2.6728    0.2602   -0.4250 C   0  0  0  0  0  0  0  0  0  0  0  0
   -3.1391    1.5257   -0.0529 C   0  0  0  0  0  0  0  0  0  0  0  0
   -2.2374    2.5369    0.2359 C   0  0  0  0  0  0  0  0  0  0  0  0
   -0.8652    2.3036    0.1518 C   0  0  0  0  0  0  0  0  0  0  0  0
   -0.0251    3.3410    0.4280 N   0  0  0  0  0  0  0  0  0  0  0  0
    1.3150    3.2229    0.3312 C   0  0  0  0  0  0  0  0  0  0  0  0
    2.1529    4.3212    0.6354 N   0  0  0  0  0  0  0  0  0  0  0  0
    4.7296   -1.5533    0.2606 H   0  0  0  0  0  0  0  0  0  0  0  0
    3.6969   -2.7857    1.0050 H   0  0  0  0  0  0  0  0  0  0  0  0
    4.9730   -3.2107   -0.1865 H   0  0  0  0  0  0  0  0  0  0  0  0
    3.6134   -2.0426   -2.0269 H   0  0  0  0  0  0  0  0  0  0  0  0
    1.8967   -4.0152   -2.0619 H   0  0  0  0  0  0  0  0  0  0  0  0
    2.5751   -4.4687   -0.4520 H   0  0  0  0  0  0  0  0  0  0  0  0
    3.6414   -4.4084   -1.8920 H   0  0  0  0  0  0  0  0  0  0  0  0
    1.1719   -1.6838   -1.8102 H   0  0  0  0  0  0  0  0  0  0  0  0
    1.2301   -2.0417   -0.0451 H   0  0  0  0  0  0  0  0  0  0  0  0
    4.1222    0.0059   -0.8602 H   0  0  0  0  0  0  0  0  0  0  0  0
   -0.9695   -0.9951   -0.8124 H   0  0  0  0  0  0  0  0  0  0  0  0
   -3.4008   -0.5085   -0.6521 H   0  0  0  0  0  0  0  0  0  0  0  0
   -4.2037    1.7319    0.0094 H   0  0  0  0  0  0  0  0  0  0  0  0
   -2.6048    3.5198    0.5195 H   0  0  0  0  0  0  0  0  0  0  0  0
    1.7408    5.2126    0.9450 H   0  0  0  0  0  0  0  0  0  0  0  0
    3.1774    4.2283    0.5942 H   0  0  0  0  0  0  0  0  0  0  0  0
  1 19  1  0  0  0  0
  1 20  1  0  0  0  0
  1 21  1  0  0  0  0
  2  1  1  0  0  0  0
  2 22  1  0  0  0  0
  3  2  1  0  0  0  0
  3 23  1  0  0  0  0
  3 24  1  0  0  0  0
  3 25  1  0  0  0  0
  4  2  1  0  0  0  0
  4 26  1  0  0  0  0
  4 27  1  0  0  0  0
  5  4  1  0  0  0  0
  6  5  1  0  0  0  0
  6 28  1  0  0  0  0
  7  6  2  0  0  0  0
  8  7  1  0  0  0  0
  9  8  2  0  0  0  0
  9  5  1  0  0  0  0
 10  9  1  0  0  0  0
 11 10  2  0  0  0  0
 11 29  1  0  0  0  0
 12 11  1  0  0  0  0
 12 30  1  0  0  0  0
 13 12  2  0  0  0  0
 13 31  1  0  0  0  0
 14 13  1  0  0  0  0
 14 32  1  0  0  0  0
 15 14  2  0  0  0  0
 15 10  1  0  0  0  0
 16 15  1  0  0  0  0
 17 16  2  0  0  0  0
 17  8  1  0  0  0  0
 18 17  1  0  0  0  0
 18 33  1  0  0  0  0
 18 34  1  0  0  0  0
M  END
>  <MOL Chiral Flag>
0

>  <energy>
34.601409511196145

$$$$
> 538_AKC_s00436-011-2498-x
>521.sdf
 OpenBabel10062215023D

 22 23  0  0  0  0  0  0  0  0999 V2000
   -3.5863   -0.6699    1.1488 C   0  0  0  0  0  0  0  0  0  0  0  0
   -2.7853   -1.3292    0.2400 O   0  0  0  0  0  0  0  0  0  0  0  0
   -1.5715   -0.8568   -0.1416 C   0  0  0  0  0  0  0  0  0  0  0  0
   -1.3517   -0.6519   -1.4495 C   0  0  0  0  0  0  0  0  0  0  0  0
   -0.0760   -0.0875   -1.9371 C   0  0  0  0  0  0  0  0  0  0  0  0
    0.0751    0.1097   -3.1328 O   0  0  0  0  0  0  0  0  0  0  0  0
    0.9979    0.2541   -0.9731 C   0  0  0  0  0  0  0  0  0  0  0  0
    0.7964    0.0099    0.3996 C   0  0  0  0  0  0  0  0  0  0  0  0
    1.8194    0.3133    1.3168 C   0  0  0  0  0  0  0  0  0  0  0  0
    3.0223    0.8668    0.8695 C   0  0  0  0  0  0  0  0  0  0  0  0
    3.2146    1.1223   -0.4896 C   0  0  0  0  0  0  0  0  0  0  0  0
    2.2098    0.8159   -1.4103 C   0  0  0  0  0  0  0  0  0  0  0  0
   -0.4984   -0.5594    0.8565 C   0  0  0  0  0  0  0  0  0  0  0  0
   -0.6751   -0.8039    2.0399 O   0  0  0  0  0  0  0  0  0  0  0  0
   -3.8634    0.3240    0.7338 H   0  0  0  0  0  0  0  0  0  0  0  0
   -3.0857   -0.5312    2.1264 H   0  0  0  0  0  0  0  0  0  0  0  0
   -4.5160   -1.2530    1.3058 H   0  0  0  0  0  0  0  0  0  0  0  0
   -2.1387   -0.8757   -2.1646 H   0  0  0  0  0  0  0  0  0  0  0  0
    1.6862    0.1259    2.3749 H   0  0  0  0  0  0  0  0  0  0  0  0
    3.8056    1.1017    1.5787 H   0  0  0  0  0  0  0  0  0  0  0  0
    4.1450    1.5568   -0.8314 H   0  0  0  0  0  0  0  0  0  0  0  0
    2.3757    1.0178   -2.4609 H   0  0  0  0  0  0  0  0  0  0  0  0
  1 15  1  0  0  0  0
  1 16  1  0  0  0  0
  1 17  1  0  0  0  0
  2  1  1  0  0  0  0
  3  2  1  0  0  0  0
  4  3  2  0  0  0  0
  4 18  1  0  0  0  0
  5  4  1  0  0  0  0
  6  5  2  0  0  0  0
  7  5  1  0  0  0  0
  8  7  2  0  0  0  0
  9  8  1  0  0  0  0
  9 19  1  0  0  0  0
 10  9  2  0  0  0  0
 10 20  1  0  0  0  0
 11 10  1  0  0  0  0
 11 21  1  0  0  0  0
 12 11  2  0  0  0  0
 12  7  1  0  0  0  0
 12 22  1  0  0  0  0
 13  8  1  0  0  0  0
 13  3  1  0  0  0  0
 14 13  2  0  0  0  0
M  END
>  <MOL Chiral Flag>
0

>  <energy>
53.379588125607434

$$$$
> 539_AKC_AAC.00700-11
>522.sdf
 OpenBabel10062215033D

 39 41  0  0  0  0  0  0  0  0999 V2000
    2.4823   -2.8156    3.1601 C   0  0  0  0  0  0  0  0  0  0  0  0
    2.8259   -2.3538    1.7793 C   0  0  0  0  0  0  0  0  0  0  0  0
    4.1259   -2.2287    1.4160 N   0  0  0  0  0  0  0  0  0  0  0  0
    4.4915   -1.8012    0.1810 C   0  0  0  0  0  0  0  0  0  0  0  0
    3.5055   -1.4677   -0.7867 C   0  0  0  0  0  0  0  0  0  0  0  0
    3.9427   -1.0180   -2.0586 C   0  0  0  0  0  0  0  0  0  0  0  0
    5.3064   -0.9071   -2.3423 C   0  0  0  0  0  0  0  0  0  0  0  0
    6.2571   -1.2382   -1.3800 C   0  0  0  0  0  0  0  0  0  0  0  0
    5.8526   -1.6845   -0.1236 C   0  0  0  0  0  0  0  0  0  0  0  0
    2.1273   -1.5922   -0.4290 C   0  0  0  0  0  0  0  0  0  0  0  0
    1.0744   -1.2512   -1.3467 N   0  0  0  0  0  0  0  0  0  0  0  0
   -0.3346   -1.2886   -0.9723 C   0  0  0  0  0  0  0  0  0  0  0  0
   -1.2591   -0.7652   -2.0563 C   0  0  0  0  0  0  0  0  0  0  0  0
   -0.7920   -0.4021   -3.1216 O   0  0  0  0  0  0  0  0  0  0  0  0
   -2.6035   -0.6969   -1.8047 N   0  0  0  0  0  0  0  0  0  0  0  0
   -3.6337   -0.1709   -2.6755 C   0  0  0  0  0  0  0  0  0  0  0  0
   -3.3585    0.4346   -3.9325 C   0  0  0  0  0  0  0  0  0  0  0  0
   -4.3909    0.9432   -4.7230 C   0  0  0  0  0  0  0  0  0  0  0  0
   -5.7119    0.8674   -4.2941 C   0  0  0  0  0  0  0  0  0  0  0  0
   -6.9977    1.5154   -5.2961 Cl  0  0  0  0  0  0  0  0  0  0  0  0
   -6.0106    0.2803   -3.0674 C   0  0  0  0  0  0  0  0  0  0  0  0
   -4.9918   -0.2356   -2.2576 C   0  0  0  0  0  0  0  0  0  0  0  0
   -5.4644   -0.9570   -0.7201 Cl  0  0  0  0  0  0  0  0  0  0  0  0
    1.8121   -2.0420    0.8710 C   0  0  0  0  0  0  0  0  0  0  0  0
    1.8826   -3.7483    3.1085 H   0  0  0  0  0  0  0  0  0  0  0  0
    3.4038   -3.0145    3.7475 H   0  0  0  0  0  0  0  0  0  0  0  0
    1.8935   -2.0302    3.6797 H   0  0  0  0  0  0  0  0  0  0  0  0
    3.2635   -0.7445   -2.8459 H   0  0  0  0  0  0  0  0  0  0  0  0
    5.6264   -0.5596   -3.3164 H   0  0  0  0  0  0  0  0  0  0  0  0
    7.3110   -1.1468   -1.6086 H   0  0  0  0  0  0  0  0  0  0  0  0
    6.5997   -1.9372    0.6187 H   0  0  0  0  0  0  0  0  0  0  0  0
    1.3123   -0.9305   -2.2882 H   0  0  0  0  0  0  0  0  0  0  0  0
   -0.4830   -0.6392   -0.0828 H   0  0  0  0  0  0  0  0  0  0  0  0
   -0.6257   -2.3315   -0.7207 H   0  0  0  0  0  0  0  0  0  0  0  0
   -2.9000   -1.0467   -0.8832 H   0  0  0  0  0  0  0  0  0  0  0  0
   -2.3706    0.5429   -4.3314 H   0  0  0  0  0  0  0  0  0  0  0  0
   -4.1576    1.4034   -5.6752 H   0  0  0  0  0  0  0  0  0  0  0  0
   -7.0406    0.2259   -2.7376 H   0  0  0  0  0  0  0  0  0  0  0  0
    0.7849   -2.1491    1.1908 H   0  0  0  0  0  0  0  0  0  0  0  0
  1 25  1  0  0  0  0
  1 26  1  0  0  0  0
  1 27  1  0  0  0  0
  2  1  1  0  0  0  0
  3  2  2  0  0  0  0
  4  3  1  0  0  0  0
  5  4  2  0  0  0  0
  6  5  1  0  0  0  0
  6 28  1  0  0  0  0
  7  6  2  0  0  0  0
  7 29  1  0  0  0  0
  8  7  1  0  0  0  0
  8 30  1  0  0  0  0
  9  8  2  0  0  0  0
  9  4  1  0  0  0  0
  9 31  1  0  0  0  0
 10  5  1  0  0  0  0
 11 10  1  0  0  0  0
 11 32  1  0  0  0  0
 12 11  1  0  0  0  0
 12 33  1  0  0  0  0
 12 34  1  0  0  0  0
 13 12  1  0  0  0  0
 14 13  2  0  0  0  0
 15 13  1  0  0  0  0
 15 35  1  0  0  0  0
 16 15  1  0  0  0  0
 17 16  2  0  0  0  0
 17 36  1  0  0  0  0
 18 17  1  0  0  0  0
 18 37  1  0  0  0  0
 19 18  2  0  0  0  0
 20 19  1  0  0  0  0
 21 19  1  0  0  0  0
 21 38  1  0  0  0  0
 22 21  2  0  0  0  0
 22 16  1  0  0  0  0
 23 22  1  0  0  0  0
 24 10  2  0  0  0  0
 24  2  1  0  0  0  0
 24 39  1  0  0  0  0
M  END
>  <MOL Chiral Flag>
0

>  <energy>
89.19518024088741

$$$$
> 540_AKC_j.bmc.2011.09.025
>523.sdf
 OpenBabel10062215033D

 48 52  0  0  0  0  0  0  0  0999 V2000
   -0.7460   -1.4644    1.6738 H   0  0  0  0  0  0  0  0  0  0  0  0
   -1.4307   -0.7413    1.1771 C   0  0  1  0  0  0  0  0  0  0  0  0
   -2.8893   -1.1023    1.5370 C   0  0  0  0  0  0  0  0  0  0  0  0
   -3.3343   -2.2589    0.6532 C   0  0  0  0  0  0  0  0  0  0  0  0
   -3.4113   -1.7046   -0.7445 C   0  0  0  0  0  0  0  0  0  0  0  0
   -4.5667   -1.8914   -1.5195 C   0  0  0  0  0  0  0  0  0  0  0  0
   -4.6513   -1.3393   -2.7976 C   0  0  0  0  0  0  0  0  0  0  0  0
   -3.5931   -0.5855   -3.3046 C   0  0  0  0  0  0  0  0  0  0  0  0
   -2.4437   -0.3793   -2.5373 C   0  0  0  0  0  0  0  0  0  0  0  0
   -2.3351   -0.9362   -1.2477 C   0  0  0  0  0  0  0  0  0  0  0  0
   -1.0955   -0.7196   -0.3755 C   0  0  1  0  0  0  0  0  0  0  0  0
   -0.3788   -1.5365   -0.6124 H   0  0  0  0  0  0  0  0  0  0  0  0
   -0.4726    0.5801   -0.5980 N   0  0  0  0  0  0  0  0  0  0  0  0
   -0.5489    1.3494    0.5711 C   0  0  0  0  0  0  0  0  0  0  0  0
   -0.1030    2.6657    0.7401 C   0  0  0  0  0  0  0  0  0  0  0  0
   -0.2269    3.2604    2.0057 C   0  0  0  0  0  0  0  0  0  0  0  0
   -0.7753    2.5308    3.0775 C   0  0  0  0  0  0  0  0  0  0  0  0
   -1.2006    1.2071    2.8819 C   0  0  0  0  0  0  0  0  0  0  0  0
   -1.0808    0.6450    1.6077 C   0  0  0  0  0  0  0  0  0  0  0  0
    0.9446    0.7381   -1.6445 S   0  0  0  0  0  0  0  0  0  0  0  0
    0.6923   -0.2179   -2.8206 O   0  0  0  0  0  0  0  0  0  0  0  0
    0.8261    2.1085   -2.3282 O   0  0  0  0  0  0  0  0  0  0  0  0
    2.5493    0.4215   -0.9001 C   0  0  0  0  0  0  0  0  0  0  0  0
    3.1085    1.3410   -0.0034 C   0  0  0  0  0  0  0  0  0  0  0  0
    4.3531    1.0855    0.5814 C   0  0  0  0  0  0  0  0  0  0  0  0
    5.0507   -0.0934    0.2702 C   0  0  0  0  0  0  0  0  0  0  0  0
    6.3864   -0.3804    0.8903 C   0  0  0  0  0  0  0  0  0  0  0  0
    4.4896   -1.0113   -0.6300 C   0  0  0  0  0  0  0  0  0  0  0  0
    3.2442   -0.7555   -1.2109 C   0  0  0  0  0  0  0  0  0  0  0  0
   -2.9434   -1.3586    2.6170 H   0  0  0  0  0  0  0  0  0  0  0  0
   -3.5787   -0.2453    1.3545 H   0  0  0  0  0  0  0  0  0  0  0  0
   -4.3228   -2.6512    0.9768 H   0  0  0  0  0  0  0  0  0  0  0  0
   -2.5903   -3.0832    0.7184 H   0  0  0  0  0  0  0  0  0  0  0  0
   -5.4000   -2.4650   -1.1329 H   0  0  0  0  0  0  0  0  0  0  0  0
   -5.5423   -1.4895   -3.3934 H   0  0  0  0  0  0  0  0  0  0  0  0
   -3.6663   -0.1518   -4.2936 H   0  0  0  0  0  0  0  0  0  0  0  0
   -1.6550    0.2235   -2.9527 H   0  0  0  0  0  0  0  0  0  0  0  0
    0.3252    3.2233   -0.0801 H   0  0  0  0  0  0  0  0  0  0  0  0
    0.1060    4.2787    2.1590 H   0  0  0  0  0  0  0  0  0  0  0  0
   -0.8632    2.9884    4.0542 H   0  0  0  0  0  0  0  0  0  0  0  0
   -1.6128    0.6354    3.7031 H   0  0  0  0  0  0  0  0  0  0  0  0
    2.5837    2.2527    0.2440 H   0  0  0  0  0  0  0  0  0  0  0  0
    4.7716    1.8051    1.2750 H   0  0  0  0  0  0  0  0  0  0  0  0
    6.6995    0.4306    1.5819 H   0  0  0  0  0  0  0  0  0  0  0  0
    7.1538   -0.4790    0.0937 H   0  0  0  0  0  0  0  0  0  0  0  0
    6.3346   -1.3301    1.4637 H   0  0  0  0  0  0  0  0  0  0  0  0
    5.0172   -1.9245   -0.8791 H   0  0  0  0  0  0  0  0  0  0  0  0
    2.8221   -1.4746   -1.9016 H   0  0  0  0  0  0  0  0  0  0  0  0
  2  1  1  1  0  0  0
  3  2  1  0  0  0  0
  3 30  1  0  0  0  0
  3 31  1  0  0  0  0
  4  3  1  0  0  0  0
  4 32  1  0  0  0  0
  4 33  1  0  0  0  0
  5  4  1  0  0  0  0
  6  5  2  0  0  0  0
  6 34  1  0  0  0  0
  7  6  1  0  0  0  0
  7 35  1  0  0  0  0
  8  7  2  0  0  0  0
  8 36  1  0  0  0  0
  9  8  1  0  0  0  0
  9 37  1  0  0  0  0
 10  9  2  0  0  0  0
 10  5  1  0  0  0  0
 11 10  1  0  0  0  0
 11  2  1  0  0  0  0
 11 12  1  6  0  0  0
 13 11  1  0  0  0  0
 14 13  1  0  0  0  0
 15 14  2  0  0  0  0
 15 38  1  0  0  0  0
 16 15  1  0  0  0  0
 16 39  1  0  0  0  0
 17 16  2  0  0  0  0
 17 40  1  0  0  0  0
 18 17  1  0  0  0  0
 18 41  1  0  0  0  0
 19 18  2  0  0  0  0
 19  2  1  0  0  0  0
 19 14  1  0  0  0  0
 20 13  1  0  0  0  0
 21 20  2  0  0  0  0
 22 20  2  0  0  0  0
 23 20  1  0  0  0  0
 24 23  2  0  0  0  0
 24 42  1  0  0  0  0
 25 24  1  0  0  0  0
 25 43  1  0  0  0  0
 26 25  2  0  0  0  0
 27 26  1  0  0  0  0
 27 44  1  0  0  0  0
 27 45  1  0  0  0  0
 27 46  1  0  0  0  0
 28 26  1  0  0  0  0
 28 47  1  0  0  0  0
 29 28  2  0  0  0  0
 29 23  1  0  0  0  0
 29 48  1  0  0  0  0
M  END
>  <MOL Chiral Flag>
0

>  <energy>
52.837007955766396

$$$$
> 541_AKC_j.jep.2011.07.008
>524.sdf
 OpenBabel10062215033D

 52 54  0  0  0  0  0  0  0  0999 V2000
    0.3276    5.9012   -1.1504 C   0  0  0  0  0  0  0  0  0  0  0  0
   -0.7877    4.9597   -0.8270 C   0  0  0  0  0  0  0  0  0  0  0  0
   -1.9401    5.2804   -1.0834 O   0  0  0  0  0  0  0  0  0  0  0  0
   -0.5039    3.7544   -0.2604 O   0  0  0  0  0  0  0  0  0  0  0  0
   -1.4504    2.8054    0.0928 C   0  0  0  0  0  0  0  0  0  0  0  0
   -1.2372    1.5323   -0.6949 C   0  0  0  0  0  0  0  0  0  0  0  0
   -0.2394    0.6081   -0.6347 C   0  0  0  0  0  0  0  0  0  0  0  0
    0.9583    0.6771    0.3378 C   0  0  2  0  0  0  0  0  0  0  0  0
    0.7880   -0.3533    1.5127 C   0  0  0  0  0  0  0  0  0  0  0  0
    1.8265   -1.5183    1.6534 C   0  0  1  0  0  0  0  0  0  0  0  0
    3.2330   -0.9217    1.8693 C   0  0  0  0  0  0  0  0  0  0  0  0
    1.5411   -2.2641    2.8163 O   0  0  0  0  0  0  0  0  0  0  0  0
    1.8529   -2.4695    0.4240 C   0  0  1  0  0  0  0  0  0  0  0  0
    2.9367   -3.3709    0.5550 O   0  0  0  0  0  0  0  0  0  0  0  0
    0.5843   -3.3095    0.2459 C   0  0  0  0  0  0  0  0  0  0  0  0
    0.7888   -3.7132   -1.1821 C   0  0  0  0  0  0  0  0  0  0  0  0
    1.2080   -2.3536   -1.7544 C   0  0  2  0  0  0  0  0  0  0  0  0
    2.0439   -2.5341   -3.0275 C   0  0  0  0  0  0  0  0  0  0  0  0
    1.9896   -1.7128   -0.7709 O   0  0  0  0  0  0  0  0  0  0  0  0
   -0.0603   -1.5942   -2.1112 C   0  0  0  0  0  0  0  0  0  0  0  0
   -0.6161   -0.4419   -1.6644 C   0  0  0  0  0  0  0  0  0  0  0  0
   -1.7875   -0.0776   -2.2349 O   0  0  0  0  0  0  0  0  0  0  0  0
   -2.1859    1.0713   -1.6913 C   0  0  0  0  0  0  0  0  0  0  0  0
   -3.2161    1.6434   -2.0129 O   0  0  0  0  0  0  0  0  0  0  0  0
    1.0105    1.9539    0.8800 O   0  0  0  0  0  0  0  0  0  0  0  0
    2.0588    2.5248    1.5316 C   0  0  0  0  0  0  0  0  0  0  0  0
    1.8767    3.8573    2.1823 C   0  0  0  0  0  0  0  0  0  0  0  0
    3.1509    1.9832    1.5653 O   0  0  0  0  0  0  0  0  0  0  0  0
   -0.0654    6.8304   -1.6162 H   0  0  0  0  0  0  0  0  0  0  0  0
    0.8688    6.1739   -0.2220 H   0  0  0  0  0  0  0  0  0  0  0  0
    1.0309    5.4141   -1.8570 H   0  0  0  0  0  0  0  0  0  0  0  0
   -2.4772    3.1802   -0.1063 H   0  0  0  0  0  0  0  0  0  0  0  0
   -1.4059    2.5953    1.1821 H   0  0  0  0  0  0  0  0  0  0  0  0
    1.8879    0.5597   -0.2516 H   0  0  0  0  0  0  0  0  0  0  0  0
   -0.2531   -0.7411    1.5150 H   0  0  0  0  0  0  0  0  0  0  0  0
    0.8451    0.2079    2.4727 H   0  0  0  0  0  0  0  0  0  0  0  0
    3.2356   -0.2512    2.7547 H   0  0  0  0  0  0  0  0  0  0  0  0
    3.5883   -0.3735    0.9744 H   0  0  0  0  0  0  0  0  0  0  0  0
    3.9758   -1.7193    2.0827 H   0  0  0  0  0  0  0  0  0  0  0  0
    0.5804   -2.5131    2.8072 H   0  0  0  0  0  0  0  0  0  0  0  0
    3.7085   -3.0149    0.0415 H   0  0  0  0  0  0  0  0  0  0  0  0
   -0.3286   -2.6787    0.3131 H   0  0  0  0  0  0  0  0  0  0  0  0
    0.4811   -4.1578    0.9562 H   0  0  0  0  0  0  0  0  0  0  0  0
   -0.0799   -4.2011   -1.6763 H   0  0  0  0  0  0  0  0  0  0  0  0
    1.6399   -4.4321   -1.2234 H   0  0  0  0  0  0  0  0  0  0  0  0
    2.3405   -1.5429   -3.4329 H   0  0  0  0  0  0  0  0  0  0  0  0
    2.9692   -3.1072   -2.8031 H   0  0  0  0  0  0  0  0  0  0  0  0
    1.4703   -3.0828   -3.8058 H   0  0  0  0  0  0  0  0  0  0  0  0
   -0.6431   -2.0985   -2.8809 H   0  0  0  0  0  0  0  0  0  0  0  0
    2.8194    4.1944    2.6642 H   0  0  0  0  0  0  0  0  0  0  0  0
    1.5818    4.6034    1.4190 H   0  0  0  0  0  0  0  0  0  0  0  0
    1.0812    3.7886    2.9527 H   0  0  0  0  0  0  0  0  0  0  0  0
  1 29  1  0  0  0  0
  1 30  1  0  0  0  0
  1 31  1  0  0  0  0
  2  1  1  0  0  0  0
  3  2  2  0  0  0  0
  4  2  1  0  0  0  0
  5  4  1  0  0  0  0
  5 32  1  0  0  0  0
  5 33  1  0  0  0  0
  6  5  1  0  0  0  0
  7  6  2  0  0  0  0
  8  7  1  0  0  0  0
  8 34  1  6  0  0  0
  9  8  1  0  0  0  0
  9 35  1  0  0  0  0
  9 36  1  0  0  0  0
 10  9  1  0  0  0  0
 10 11  1  1  0  0  0
 11 37  1  0  0  0  0
 11 38  1  0  0  0  0
 11 39  1  0  0  0  0
 12 10  1  0  0  0  0
 12 40  1  0  0  0  0
 13 10  1  0  0  0  0
 13 14  1  1  0  0  0
 14 41  1  0  0  0  0
 15 13  1  0  0  0  0
 15 42  1  0  0  0  0
 15 43  1  0  0  0  0
 16 15  1  0  0  0  0
 16 44  1  0  0  0  0
 16 45  1  0  0  0  0
 17 16  1  0  0  0  0
 17 18  1  6  0  0  0
 18 46  1  0  0  0  0
 18 47  1  0  0  0  0
 18 48  1  0  0  0  0
 19 17  1  0  0  0  0
 19 13  1  0  0  0  0
 20 17  1  0  0  0  0
 20 49  1  0  0  0  0
 21 20  2  0  0  0  0
 21  7  1  0  0  0  0
 22 21  1  0  0  0  0
 23 22  1  0  0  0  0
 23  6  1  0  0  0  0
 24 23  2  0  0  0  0
 25  8  1  0  0  0  0
 26 25  1  0  0  0  0
 27 26  1  0  0  0  0
 27 50  1  0  0  0  0
 27 51  1  0  0  0  0
 27 52  1  0  0  0  0
 28 26  2  0  0  0  0
M  END
>  <MOL Chiral Flag>
0

>  <energy>
18.627237802779732

$$$$
> 542_AKC_ptr.3404
>525.sdf
 OpenBabel10062215043D

 59 61  0  0  0  0  0  0  0  0999 V2000
   -5.2029    2.2213    5.6836 C   0  0  0  0  0  0  0  0  0  0  0  0
   -6.0675    2.9917    4.7065 C   0  0  0  0  0  0  0  0  0  0  0  0
   -7.2980    3.6681    5.2479 C   0  0  0  0  0  0  0  0  0  0  0  0
   -5.7952    3.0845    3.3778 C   0  0  0  0  0  0  0  0  0  0  0  0
   -4.5673    2.4880    2.7243 C   0  0  0  0  0  0  0  0  0  0  0  0
   -3.3236    3.2995    3.1224 C   0  0  0  0  0  0  0  0  0  0  0  0
   -1.9966    2.6569    2.7656 C   0  0  0  0  0  0  0  0  0  0  0  0
   -1.6580    1.3528    3.4491 C   0  0  0  0  0  0  0  0  0  0  0  0
   -1.1398    3.3141    1.9403 C   0  0  0  0  0  0  0  0  0  0  0  0
    0.3018    2.9267    1.6672 C   0  0  0  0  0  0  0  0  0  0  0  0
    0.5947    1.5929    0.9904 C   0  0  0  0  0  0  0  0  0  0  0  0
    0.1570    1.3463   -0.3250 C   0  0  0  0  0  0  0  0  0  0  0  0
   -0.5707    2.2777   -0.9782 O   0  0  0  0  0  0  0  0  0  0  0  0
    0.4964    0.1430   -0.9664 C   0  0  0  0  0  0  0  0  0  0  0  0
    1.2588   -0.8266   -0.3085 C   0  0  0  0  0  0  0  0  0  0  0  0
    1.5649   -1.9968   -0.9502 O   0  0  0  0  0  0  0  0  0  0  0  0
    2.0217   -3.1337   -0.2818 C   0  0  2  0  0  0  0  0  0  0  0  0
    3.0972   -2.7178    0.7313 C   0  0  0  0  0  0  0  0  0  0  0  0
    2.5065   -1.6852    1.6343 C   0  0  0  0  0  0  0  0  0  0  0  0
    2.6296   -1.7970    2.8427 O   0  0  0  0  0  0  0  0  0  0  0  0
    1.7059   -0.5978    1.0116 C   0  0  0  0  0  0  0  0  0  0  0  0
    1.3803    0.6228    1.6629 C   0  0  0  0  0  0  0  0  0  0  0  0
    1.8275    0.9093    2.9095 O   0  0  0  0  0  0  0  0  0  0  0  0
    2.4805   -4.1929   -1.2800 C   0  0  0  0  0  0  0  0  0  0  0  0
    1.5659   -4.6687   -2.2340 C   0  0  0  0  0  0  0  0  0  0  0  0
    1.9407   -5.6582   -3.1488 C   0  0  0  0  0  0  0  0  0  0  0  0
    3.2320   -6.1939   -3.1261 C   0  0  0  0  0  0  0  0  0  0  0  0
    3.5639   -7.1559   -4.0139 O   0  0  0  0  0  0  0  0  0  0  0  0
    4.1616   -5.7293   -2.1812 C   0  0  0  0  0  0  0  0  0  0  0  0
    5.4095   -6.2445   -2.1503 O   0  0  0  0  0  0  0  0  0  0  0  0
    3.7879   -4.7337   -1.2669 C   0  0  0  0  0  0  0  0  0  0  0  0
   -4.8219    2.9087    6.4671 H   0  0  0  0  0  0  0  0  0  0  0  0
   -4.3374    1.7066    5.2263 H   0  0  0  0  0  0  0  0  0  0  0  0
   -5.8201    1.4356    6.1679 H   0  0  0  0  0  0  0  0  0  0  0  0
   -8.2056    3.2686    4.7498 H   0  0  0  0  0  0  0  0  0  0  0  0
   -7.3955    3.4992    6.3424 H   0  0  0  0  0  0  0  0  0  0  0  0
   -7.2320    4.7629    5.0729 H   0  0  0  0  0  0  0  0  0  0  0  0
   -6.4936    3.6179    2.7378 H   0  0  0  0  0  0  0  0  0  0  0  0
   -4.5097    1.4156    2.9977 H   0  0  0  0  0  0  0  0  0  0  0  0
   -4.6597    2.5478    1.6184 H   0  0  0  0  0  0  0  0  0  0  0  0
   -3.2894    3.4464    4.2208 H   0  0  0  0  0  0  0  0  0  0  0  0
   -3.4255    4.3160    2.6802 H   0  0  0  0  0  0  0  0  0  0  0  0
   -1.7024    1.4893    4.5490 H   0  0  0  0  0  0  0  0  0  0  0  0
   -0.6631    0.9646    3.2088 H   0  0  0  0  0  0  0  0  0  0  0  0
   -2.3890    0.5725    3.1551 H   0  0  0  0  0  0  0  0  0  0  0  0
   -1.4671    4.2536    1.5024 H   0  0  0  0  0  0  0  0  0  0  0  0
    0.8137    2.9981    2.6476 H   0  0  0  0  0  0  0  0  0  0  0  0
    0.7521    3.7191    1.0313 H   0  0  0  0  0  0  0  0  0  0  0  0
   -0.8734    2.1442   -1.8879 H   0  0  0  0  0  0  0  0  0  0  0  0
    0.1629   -0.0403   -1.9805 H   0  0  0  0  0  0  0  0  0  0  0  0
    1.1724   -3.5670    0.2939 H   0  0  0  0  0  0  0  0  0  0  0  0
    3.4843   -3.5749    1.3252 H   0  0  0  0  0  0  0  0  0  0  0  0
    3.9345   -2.2436    0.1735 H   0  0  0  0  0  0  0  0  0  0  0  0
    2.4257    0.3674    3.4318 H   0  0  0  0  0  0  0  0  0  0  0  0
    0.5579   -4.2743   -2.2649 H   0  0  0  0  0  0  0  0  0  0  0  0
    1.2223   -6.0156   -3.8757 H   0  0  0  0  0  0  0  0  0  0  0  0
    4.4416   -7.5635   -4.0305 H   0  0  0  0  0  0  0  0  0  0  0  0
    6.0688   -5.9497   -1.5054 H   0  0  0  0  0  0  0  0  0  0  0  0
    4.5244   -4.4016   -0.5505 H   0  0  0  0  0  0  0  0  0  0  0  0
  1 32  1  0  0  0  0
  1 33  1  0  0  0  0
  1 34  1  0  0  0  0
  2  1  1  0  0  0  0
  3  2  1  0  0  0  0
  3 35  1  0  0  0  0
  3 36  1  0  0  0  0
  3 37  1  0  0  0  0
  4  2  2  0  0  0  0
  4 38  1  0  0  0  0
  5  4  1  0  0  0  0
  5 39  1  0  0  0  0
  5 40  1  0  0  0  0
  6  5  1  0  0  0  0
  6 41  1  0  0  0  0
  6 42  1  0  0  0  0
  7  6  1  0  0  0  0
  8  7  1  0  0  0  0
  8 43  1  0  0  0  0
  8 44  1  0  0  0  0
  8 45  1  0  0  0  0
  9  7  2  0  0  0  0
  9 46  1  0  0  0  0
 10  9  1  0  0  0  0
 10 47  1  0  0  0  0
 10 48  1  0  0  0  0
 11 10  1  0  0  0  0
 12 11  2  0  0  0  0
 13 12  1  0  0  0  0
 13 49  1  0  0  0  0
 14 12  1  0  0  0  0
 14 50  1  0  0  0  0
 15 14  2  0  0  0  0
 16 15  1  0  0  0  0
 17 16  1  0  0  0  0
 17 51  1  1  0  0  0
 18 17  1  0  0  0  0
 18 52  1  0  0  0  0
 18 53  1  0  0  0  0
 19 18  1  0  0  0  0
 20 19  2  0  0  0  0
 21 19  1  0  0  0  0
 21 15  1  0  0  0  0
 22 21  2  0  0  0  0
 22 11  1  0  0  0  0
 23 22  1  0  0  0  0
 23 54  1  0  0  0  0
 24 17  1  0  0  0  0
 25 24  2  0  0  0  0
 25 55  1  0  0  0  0
 26 25  1  0  0  0  0
 26 56  1  0  0  0  0
 27 26  2  0  0  0  0
 28 27  1  0  0  0  0
 28 57  1  0  0  0  0
 29 27  1  0  0  0  0
 30 29  1  0  0  0  0
 30 58  1  0  0  0  0
 31 29  2  0  0  0  0
 31 24  1  0  0  0  0
 31 59  1  0  0  0  0
M  END
>  <MOL Chiral Flag>
0

>  <energy>
78.555246807506052

$$$$
> 543_AKC_j.ejmech.2011.04.054
>526.sdf
 OpenBabel10062215043D

 30 31  0  0  0  0  0  0  0  0999 V2000
    1.6324   -1.8993   -0.1485 C   0  0  0  0  0  0  0  0  0  0  0  0
    0.0690   -1.5257   -1.2494 Se  0  0  0  0  0  0  0  0  0  0  0  0
   -1.2910   -3.1343   -0.1096 Se  0  0  0  0  0  0  0  0  0  0  0  0
   -2.3476   -1.8427    0.9298 C   0  0  0  0  0  0  0  0  0  0  0  0
   -2.6128   -0.5658    0.1785 C   0  0  0  0  0  0  0  0  0  0  0  0
   -3.2348   -0.6001   -1.0817 C   0  0  0  0  0  0  0  0  0  0  0  0
   -3.4574    0.5846   -1.7885 C   0  0  0  0  0  0  0  0  0  0  0  0
   -3.0745    1.8113   -1.2391 C   0  0  0  0  0  0  0  0  0  0  0  0
   -2.4679    1.8550    0.0195 C   0  0  0  0  0  0  0  0  0  0  0  0
   -2.2345    0.6721    0.7268 C   0  0  0  0  0  0  0  0  0  0  0  0
    2.3845   -0.6265    0.1175 C   0  0  0  0  0  0  0  0  0  0  0  0
    1.7887    0.4047    0.8636 C   0  0  0  0  0  0  0  0  0  0  0  0
    2.4915    1.5872    1.1146 C   0  0  0  0  0  0  0  0  0  0  0  0
    3.7892    1.7491    0.6209 C   0  0  0  0  0  0  0  0  0  0  0  0
    4.3871    0.7282   -0.1231 C   0  0  0  0  0  0  0  0  0  0  0  0
    3.6901   -0.4577   -0.3732 C   0  0  0  0  0  0  0  0  0  0  0  0
    2.2560   -2.6373   -0.6963 H   0  0  0  0  0  0  0  0  0  0  0  0
    1.3358   -2.3389    0.8266 H   0  0  0  0  0  0  0  0  0  0  0  0
   -1.8373   -1.6525    1.8983 H   0  0  0  0  0  0  0  0  0  0  0  0
   -3.3299   -2.3168    1.1381 H   0  0  0  0  0  0  0  0  0  0  0  0
   -3.5312   -1.5456   -1.5188 H   0  0  0  0  0  0  0  0  0  0  0  0
   -3.9245    0.5517   -2.7643 H   0  0  0  0  0  0  0  0  0  0  0  0
   -3.2479    2.7274   -1.7881 H   0  0  0  0  0  0  0  0  0  0  0  0
   -2.1754    2.8061    0.4453 H   0  0  0  0  0  0  0  0  0  0  0  0
   -1.7603    0.7200    1.6994 H   0  0  0  0  0  0  0  0  0  0  0  0
    0.7847    0.2881    1.2519 H   0  0  0  0  0  0  0  0  0  0  0  0
    2.0306    2.3779    1.6924 H   0  0  0  0  0  0  0  0  0  0  0  0
    4.3318    2.6652    0.8152 H   0  0  0  0  0  0  0  0  0  0  0  0
    5.3914    0.8553   -0.5061 H   0  0  0  0  0  0  0  0  0  0  0  0
    4.1644   -1.2407   -0.9518 H   0  0  0  0  0  0  0  0  0  0  0  0
  1 17  1  0  0  0  0
  1 18  1  0  0  0  0
  2  1  1  0  0  0  0
  3  2  1  0  0  0  0
  4  3  1  0  0  0  0
  4 19  1  0  0  0  0
  4 20  1  0  0  0  0
  5  4  1  0  0  0  0
  6  5  2  0  0  0  0
  6 21  1  0  0  0  0
  7  6  1  0  0  0  0
  7 22  1  0  0  0  0
  8  7  2  0  0  0  0
  8 23  1  0  0  0  0
  9  8  1  0  0  0  0
  9 24  1  0  0  0  0
 10  9  2  0  0  0  0
 10  5  1  0  0  0  0
 10 25  1  0  0  0  0
 11  1  1  0  0  0  0
 12 11  2  0  0  0  0
 12 26  1  0  0  0  0
 13 12  1  0  0  0  0
 13 27  1  0  0  0  0
 14 13  2  0  0  0  0
 14 28  1  0  0  0  0
 15 14  1  0  0  0  0
 15 29  1  0  0  0  0
 16 15  2  0  0  0  0
 16 11  1  0  0  0  0
 16 30  1  0  0  0  0
M  END
>  <MOL Chiral Flag>
0

>  <energy>
23.881575871528561

$$$$
> 544_AKC_j.bmcl.2011.05.076
>527.sdf
 OpenBabel10062215053D

 48 52  0  0  0  0  0  0  0  0999 V2000
    6.8850   -0.2626    1.1851 C   0  0  0  0  0  0  0  0  0  0  0  0
    5.8631   -1.1203    0.4156 C   0  0  0  0  0  0  0  0  0  0  0  0
    6.2288   -1.1390   -1.0697 C   0  0  0  0  0  0  0  0  0  0  0  0
    4.4460   -0.6278    0.6421 C   0  0  0  0  0  0  0  0  0  0  0  0
    3.2546   -1.1591    0.1648 C   0  0  0  0  0  0  0  0  0  0  0  0
    2.9690   -2.2080   -0.6447 N   0  0  0  0  0  0  0  0  0  0  0  0
    1.6456   -2.4681   -0.9266 C   0  0  0  0  0  0  0  0  0  0  0  0
    0.6395   -1.6917   -0.3798 N   0  0  0  0  0  0  0  0  0  0  0  0
    0.9445   -0.6509    0.4542 C   0  0  0  0  0  0  0  0  0  0  0  0
   -0.0226    0.1504    1.1288 N   0  0  0  0  0  0  0  0  0  0  0  0
   -1.4294    0.3930    0.8404 C   0  0  1  0  0  0  0  0  0  0  0  0
   -1.5458    1.9282    0.6307 C   0  0  0  0  0  0  0  0  0  0  0  0
   -3.0098    2.3495    0.4676 C   0  0  2  0  0  0  0  0  0  0  0  0
   -3.7950    1.9446    1.7340 C   0  0  0  0  0  0  0  0  0  0  0  0
   -3.7294    0.4112    1.9135 C   0  0  1  0  0  0  0  0  0  0  0  0
   -4.3263   -0.2813    0.6709 C   0  0  0  0  0  0  0  0  0  0  0  0
   -3.5110    0.1132   -0.5827 C   0  0  1  0  0  0  0  0  0  0  0  0
   -3.5984    1.6464   -0.7699 C   0  0  0  0  0  0  0  0  0  0  0  0
   -2.0233   -0.3212   -0.4085 C   0  0  0  0  0  0  0  0  0  0  0  0
   -2.2586   -0.0202    2.0856 C   0  0  0  0  0  0  0  0  0  0  0  0
    2.2791   -0.3971    0.7012 C   0  0  0  0  0  0  0  0  0  0  0  0
    2.8074    0.5754    1.4590 N   0  0  0  0  0  0  0  0  0  0  0  0
    4.1247    0.4402    1.4176 N   0  0  0  0  0  0  0  0  0  0  0  0
    7.9115   -0.6640    1.0604 H   0  0  0  0  0  0  0  0  0  0  0  0
    6.6532   -0.2661    2.2727 H   0  0  0  0  0  0  0  0  0  0  0  0
    6.8720    0.7884    0.8190 H   0  0  0  0  0  0  0  0  0  0  0  0
    5.9264   -2.1576    0.8087 H   0  0  0  0  0  0  0  0  0  0  0  0
    7.2638   -1.5271   -1.1935 H   0  0  0  0  0  0  0  0  0  0  0  0
    6.1778   -0.1169   -1.5017 H   0  0  0  0  0  0  0  0  0  0  0  0
    5.5451   -1.8085   -1.6303 H   0  0  0  0  0  0  0  0  0  0  0  0
    1.3924   -3.2993   -1.5721 H   0  0  0  0  0  0  0  0  0  0  0  0
    0.3466    0.7071    1.9152 H   0  0  0  0  0  0  0  0  0  0  0  0
   -1.1187    2.4666    1.5066 H   0  0  0  0  0  0  0  0  0  0  0  0
   -0.9568    2.2317   -0.2640 H   0  0  0  0  0  0  0  0  0  0  0  0
   -3.0593    3.4523    0.3351 H   0  0  0  0  0  0  0  0  0  0  0  0
   -4.8519    2.2744    1.6437 H   0  0  0  0  0  0  0  0  0  0  0  0
   -3.3610    2.4490    2.6273 H   0  0  0  0  0  0  0  0  0  0  0  0
   -4.3071    0.1212    2.8181 H   0  0  0  0  0  0  0  0  0  0  0  0
   -4.3078   -1.3840    0.8055 H   0  0  0  0  0  0  0  0  0  0  0  0
   -5.3894    0.0260    0.5484 H   0  0  0  0  0  0  0  0  0  0  0  0
   -3.9470   -0.3860   -1.4749 H   0  0  0  0  0  0  0  0  0  0  0  0
   -4.6570    1.9604   -0.9047 H   0  0  0  0  0  0  0  0  0  0  0  0
   -3.0376    1.9515   -1.6804 H   0  0  0  0  0  0  0  0  0  0  0  0
   -1.9795   -1.4258   -0.2893 H   0  0  0  0  0  0  0  0  0  0  0  0
   -1.4521   -0.0464   -1.3220 H   0  0  0  0  0  0  0  0  0  0  0  0
   -2.1976   -1.1218    2.2353 H   0  0  0  0  0  0  0  0  0  0  0  0
   -1.8462    0.4642    2.9980 H   0  0  0  0  0  0  0  0  0  0  0  0
    4.7707    1.0756    1.9319 H   0  0  0  0  0  0  0  0  0  0  0  0
  1 24  1  0  0  0  0
  1 25  1  0  0  0  0
  1 26  1  0  0  0  0
  2  1  1  0  0  0  0
  2 27  1  0  0  0  0
  3  2  1  0  0  0  0
  3 28  1  0  0  0  0
  3 29  1  0  0  0  0
  3 30  1  0  0  0  0
  4  2  1  0  0  0  0
  5  4  2  0  0  0  0
  6  5  1  0  0  0  0
  7  6  2  0  0  0  0
  7 31  1  0  0  0  0
  8  7  1  0  0  0  0
  9  8  2  0  0  0  0
 10  9  1  0  0  0  0
 10 32  1  0  0  0  0
 11 10  1  1  0  0  0
 12 11  1  0  0  0  0
 12 33  1  0  0  0  0
 12 34  1  0  0  0  0
 13 12  1  0  0  0  0
 13 35  1  6  0  0  0
 14 13  1  0  0  0  0
 14 36  1  0  0  0  0
 14 37  1  0  0  0  0
 15 14  1  0  0  0  0
 15 38  1  1  0  0  0
 16 15  1  0  0  0  0
 16 39  1  0  0  0  0
 16 40  1  0  0  0  0
 17 16  1  0  0  0  0
 17 41  1  6  0  0  0
 18 17  1  0  0  0  0
 18 13  1  0  0  0  0
 18 42  1  0  0  0  0
 18 43  1  0  0  0  0
 19 17  1  0  0  0  0
 19 11  1  0  0  0  0
 19 44  1  0  0  0  0
 19 45  1  0  0  0  0
 20 15  1  0  0  0  0
 20 11  1  0  0  0  0
 20 46  1  0  0  0  0
 20 47  1  0  0  0  0
 21  9  1  0  0  0  0
 21  5  1  0  0  0  0
 22 21  2  0  0  0  0
 23 22  1  0  0  0  0
 23  4  1  0  0  0  0
 23 48  1  0  0  0  0
M  END
>  <MOL Chiral Flag>
0

>  <energy>
51.911386332661834

$$$$
> 545_AKC_j.bmcl.2011.05.076
>528.sdf
 OpenBabel10062215053D

 34 36  0  0  0  0  0  0  0  0999 V2000
    4.3086    0.2361    1.1381 C   0  0  0  0  0  0  0  0  0  0  0  0
    3.9731   -1.1843    0.6693 C   0  0  0  0  0  0  0  0  0  0  0  0
    4.5317   -1.4529   -0.7278 C   0  0  0  0  0  0  0  0  0  0  0  0
    2.4858   -1.4149    0.7113 C   0  0  0  0  0  0  0  0  0  0  0  0
    1.4868   -0.7443    0.0378 C   0  0  0  0  0  0  0  0  0  0  0  0
    1.5239    0.2841   -0.8421 N   0  0  0  0  0  0  0  0  0  0  0  0
    0.3314    0.7790   -1.3012 C   0  0  0  0  0  0  0  0  0  0  0  0
   -0.8609    0.2578   -0.8523 N   0  0  0  0  0  0  0  0  0  0  0  0
   -0.8942   -0.7842    0.0332 C   0  0  0  0  0  0  0  0  0  0  0  0
   -2.1057   -1.3178    0.5734 N   0  0  0  0  0  0  0  0  0  0  0  0
   -3.3690   -0.6471    0.6916 C   0  0  0  0  0  0  0  0  0  0  0  0
   -4.3377   -1.2295    1.5322 C   0  0  0  0  0  0  0  0  0  0  0  0
   -5.5608   -0.6010    1.7643 C   0  0  0  0  0  0  0  0  0  0  0  0
   -5.8462    0.6177    1.1529 C   0  0  0  0  0  0  0  0  0  0  0  0
   -7.0299    1.2337    1.3914 F   0  0  0  0  0  0  0  0  0  0  0  0
   -4.9097    1.2056    0.3010 C   0  0  0  0  0  0  0  0  0  0  0  0
   -3.6757    0.5858    0.0675 C   0  0  0  0  0  0  0  0  0  0  0  0
    0.3237   -1.2901    0.4610 C   0  0  0  0  0  0  0  0  0  0  0  0
    0.5723   -2.2711    1.3480 N   0  0  0  0  0  0  0  0  0  0  0  0
    1.8909   -2.3460    1.4944 N   0  0  0  0  0  0  0  0  0  0  0  0
    5.4097    0.3795    1.1654 H   0  0  0  0  0  0  0  0  0  0  0  0
    3.9125    0.4033    2.1633 H   0  0  0  0  0  0  0  0  0  0  0  0
    3.8688    0.9965    0.4584 H   0  0  0  0  0  0  0  0  0  0  0  0
    4.4555   -1.8979    1.3733 H   0  0  0  0  0  0  0  0  0  0  0  0
    5.6356   -1.3282   -0.7222 H   0  0  0  0  0  0  0  0  0  0  0  0
    4.3014   -2.4968   -1.0307 H   0  0  0  0  0  0  0  0  0  0  0  0
    4.0953   -0.7549   -1.4727 H   0  0  0  0  0  0  0  0  0  0  0  0
    0.3269    1.5991   -2.0067 H   0  0  0  0  0  0  0  0  0  0  0  0
   -2.0107   -2.1959    1.1068 H   0  0  0  0  0  0  0  0  0  0  0  0
   -4.1291   -2.1678    2.0318 H   0  0  0  0  0  0  0  0  0  0  0  0
   -6.2818   -1.0573    2.4303 H   0  0  0  0  0  0  0  0  0  0  0  0
   -5.1347    2.1527   -0.1723 H   0  0  0  0  0  0  0  0  0  0  0  0
   -2.9932    1.0915   -0.5865 H   0  0  0  0  0  0  0  0  0  0  0  0
    2.3690   -3.0146    2.1376 H   0  0  0  0  0  0  0  0  0  0  0  0
  1 21  1  0  0  0  0
  1 22  1  0  0  0  0
  1 23  1  0  0  0  0
  2  1  1  0  0  0  0
  2 24  1  0  0  0  0
  3  2  1  0  0  0  0
  3 25  1  0  0  0  0
  3 26  1  0  0  0  0
  3 27  1  0  0  0  0
  4  2  1  0  0  0  0
  5  4  2  0  0  0  0
  6  5  1  0  0  0  0
  7  6  2  0  0  0  0
  7 28  1  0  0  0  0
  8  7  1  0  0  0  0
  9  8  2  0  0  0  0
 10  9  1  0  0  0  0
 10 29  1  0  0  0  0
 11 10  1  0  0  0  0
 12 11  2  0  0  0  0
 12 30  1  0  0  0  0
 13 12  1  0  0  0  0
 13 31  1  0  0  0  0
 14 13  2  0  0  0  0
 15 14  1  0  0  0  0
 16 14  1  0  0  0  0
 16 32  1  0  0  0  0
 17 16  2  0  0  0  0
 17 11  1  0  0  0  0
 17 33  1  0  0  0  0
 18  9  1  0  0  0  0
 18  5  1  0  0  0  0
 19 18  2  0  0  0  0
 20 19  1  0  0  0  0
 20  4  1  0  0  0  0
 20 34  1  0  0  0  0
M  END
>  <MOL Chiral Flag>
0

>  <energy>
37.305187144968095

$$$$
> 546_AKC_j.1747-0285.2011.01092.x
>529.sdf
 OpenBabel10062215063D

 45 49  0  0  0  0  0  0  0  0999 V2000
   -2.4424   -1.4599   -3.5016 Cl  0  0  0  0  0  0  0  0  0  0  0  0
   -2.9128   -1.1118   -1.8389 C   0  0  0  0  0  0  0  0  0  0  0  0
   -4.2097   -0.6639   -1.5921 C   0  0  0  0  0  0  0  0  0  0  0  0
   -5.1939   -0.4549   -2.4682 O   0  0  0  0  0  0  0  0  0  0  0  0
   -6.3297   -0.0378   -1.7670 C   0  0  0  0  0  0  0  0  0  0  0  0
   -5.9273   -0.0046   -0.4279 O   0  0  0  0  0  0  0  0  0  0  0  0
   -4.6538   -0.3934   -0.3619 C   0  0  0  0  0  0  0  0  0  0  0  0
   -3.8537   -0.5379    0.7625 C   0  0  0  0  0  0  0  0  0  0  0  0
   -2.5379   -1.0033    0.5832 C   0  0  0  0  0  0  0  0  0  0  0  0
   -2.0433   -1.3001   -0.7188 C   0  0  0  0  0  0  0  0  0  0  0  0
   -0.6375   -1.8678   -0.8983 C   0  0  0  0  0  0  0  0  0  0  0  0
    0.4652   -1.0217   -0.3380 N   0  3  1  0  0  0  0  0  0  0  0  0
    0.9543   -1.5931    0.9488 C   0  0  0  0  0  0  0  0  0  0  0  0
    2.2204   -0.9013    1.5247 C   0  0  1  0  0  0  0  0  0  0  0  0
    3.3295   -0.9394    0.4891 C   0  0  0  0  0  0  0  0  0  0  0  0
    2.8059   -0.2018   -0.7464 C   0  0  1  0  0  0  0  0  0  0  0  0
    1.5857   -0.9538   -1.3149 C   0  0  0  0  0  0  0  0  0  0  0  0
    2.4170    1.2196   -0.3962 C   0  0  0  0  0  0  0  0  0  0  0  0
    2.4394    2.1945   -1.4050 C   0  0  0  0  0  0  0  0  0  0  0  0
    2.1201    3.5133   -1.1025 C   0  0  0  0  0  0  0  0  0  0  0  0
    1.7814    3.8618    0.1988 C   0  0  0  0  0  0  0  0  0  0  0  0
    1.7506    2.8817    1.1940 C   0  0  0  0  0  0  0  0  0  0  0  0
    1.4512    3.2011    2.3324 O   0  0  0  0  0  0  0  0  0  0  0  0
    2.0534    1.5626    0.8892 N   0  0  0  0  0  0  0  0  0  0  0  0
    2.0097    0.5595    1.9792 C   0  0  0  0  0  0  0  0  0  0  0  0
   -7.1569   -0.7679   -1.9030 H   0  0  0  0  0  0  0  0  0  0  0  0
   -6.6435    0.9721   -2.1039 H   0  0  0  0  0  0  0  0  0  0  0  0
   -4.2376   -0.3161    1.7497 H   0  0  0  0  0  0  0  0  0  0  0  0
   -1.9225   -1.1392    1.4547 H   0  0  0  0  0  0  0  0  0  0  0  0
   -0.6284   -2.8853   -0.4486 H   0  0  0  0  0  0  0  0  0  0  0  0
   -0.4673   -2.0616   -1.9763 H   0  0  0  0  0  0  0  0  0  0  0  0
    0.1125   -0.0484   -0.1797 H   0  0  0  0  0  0  0  0  0  0  0  0
    1.2265   -2.6633    0.7954 H   0  0  0  0  0  0  0  0  0  0  0  0
    0.1639   -1.5710    1.7222 H   0  0  0  0  0  0  0  0  0  0  0  0
    2.5094   -1.4836    2.4281 H   0  0  0  0  0  0  0  0  0  0  0  0
    3.5872   -1.9898    0.2265 H   0  0  0  0  0  0  0  0  0  0  0  0
    4.2487   -0.4530    0.8850 H   0  0  0  0  0  0  0  0  0  0  0  0
    3.6267   -0.1951   -1.4978 H   0  0  0  0  0  0  0  0  0  0  0  0
    1.9110   -1.9818   -1.5986 H   0  0  0  0  0  0  0  0  0  0  0  0
    1.2463   -0.4412   -2.2440 H   0  0  0  0  0  0  0  0  0  0  0  0
    2.7159    1.9307   -2.4182 H   0  0  0  0  0  0  0  0  0  0  0  0
    2.1442    4.2686   -1.8773 H   0  0  0  0  0  0  0  0  0  0  0  0
    1.5421    4.8916    0.4362 H   0  0  0  0  0  0  0  0  0  0  0  0
    1.0499    0.6130    2.5381 H   0  0  0  0  0  0  0  0  0  0  0  0
    2.8263    0.8254    2.6874 H   0  0  0  0  0  0  0  0  0  0  0  0
  2  1  1  0  0  0  0
  3  2  2  0  0  0  0
  4  3  1  0  0  0  0
  5  4  1  0  0  0  0
  5 26  1  0  0  0  0
  5 27  1  0  0  0  0
  6  5  1  0  0  0  0
  7  6  1  0  0  0  0
  7  3  1  0  0  0  0
  8  7  2  0  0  0  0
  8 28  1  0  0  0  0
  9  8  1  0  0  0  0
  9 29  1  0  0  0  0
 10  9  2  0  0  0  0
 10  2  1  0  0  0  0
 11 10  1  0  0  0  0
 11 30  1  0  0  0  0
 11 31  1  0  0  0  0
 12 11  1  0  0  0  0
 12 32  1  1  0  0  0
 13 12  1  0  0  0  0
 13 33  1  0  0  0  0
 13 34  1  0  0  0  0
 14 13  1  0  0  0  0
 14 35  1  1  0  0  0
 15 14  1  0  0  0  0
 15 36  1  0  0  0  0
 15 37  1  0  0  0  0
 16 15  1  0  0  0  0
 16 38  1  6  0  0  0
 17 16  1  0  0  0  0
 17 12  1  0  0  0  0
 17 39  1  0  0  0  0
 17 40  1  0  0  0  0
 18 16  1  0  0  0  0
 19 18  2  0  0  0  0
 19 41  1  0  0  0  0
 20 19  1  0  0  0  0
 20 42  1  0  0  0  0
 21 20  2  0  0  0  0
 21 43  1  0  0  0  0
 22 21  1  0  0  0  0
 23 22  2  0  0  0  0
 24 22  1  0  0  0  0
 24 18  1  0  0  0  0
 25 24  1  0  0  0  0
 25 14  1  0  0  0  0
 25 44  1  0  0  0  0
 25 45  1  0  0  0  0
M  CHG  1  12   1
M  END
>  <MOL Chiral Flag>
0

>  <energy>
211.49421306895366

$$$$
> 547_AKC_cpb.59.855
>530.sdf
 OpenBabel10102216083D

 76 81  0  0  0  0  0  0  0  0999 V2000
    2.7916    1.5613    1.8500 C   0  0  1  0  0  0  0  0  0  0  0  0
    2.2053    1.8502    3.2952 C   0  0  1  0  0  0  0  0  0  0  0  0
    2.9361    0.8876    4.3239 C   0  0  2  0  0  0  0  0  0  0  0  0
    3.0809   -0.5270    3.8142 C   0  0  1  0  0  0  0  0  0  0  0  0
    2.8015   -0.7932    2.3604 C   0  0  0  0  0  0  0  0  0  0  0  0
    2.5695    0.2353    1.5032 O   0  0  0  0  0  0  0  0  0  0  0  0
    2.4559    3.3287    3.7194 C   0  0  0  0  0  0  0  0  0  0  0  0
    3.8445    3.5269    4.3326 C   0  0  2  0  0  0  0  0  0  0  0  0
    4.1640    2.7170    5.7086 C   0  0  2  0  0  0  0  0  0  0  0  0
    3.2673    1.3821    5.8126 C   0  0  1  0  0  0  0  0  0  0  0  0
    4.4795    3.5102    7.1368 C   0  0  2  0  0  0  0  0  0  0  0  0
    3.0307    3.6972    7.8568 C   0  0  1  0  0  0  0  0  0  0  0  0
    2.3490    2.2840    8.0332 C   0  0  0  0  0  0  0  0  0  0  0  0
    1.9834    1.6370    6.6856 C   0  0  1  0  0  0  0  0  0  0  0  0
    6.2341    3.3615    8.9902 O   0  0  0  0  0  0  0  0  0  0  0  0
    6.4913    4.6852    9.0193 C   0  0  0  0  0  0  0  0  0  0  0  0
    5.9743    5.5968    7.9723 C   0  0  0  0  0  0  0  0  0  0  0  0
    5.3032    4.8352    6.8138 C   0  0  1  0  0  0  0  0  0  0  0  0
    5.5160    2.6647    8.0317 C   0  0  2  0  0  0  0  0  0  0  0  0
    4.1548    0.3814    3.8149 O   0  0  0  0  0  0  0  0  0  0  0  0
    2.7914   -1.9406    1.9448 O   0  0  0  0  0  0  0  0  0  0  0  0
    2.2951    2.4391    0.7221 C   0  0  0  0  0  0  0  0  0  0  0  0
    2.3129    3.9246   -0.8973 O   0  0  0  0  0  0  0  0  0  0  0  0
    1.0988    3.4232   -0.8441 C   0  0  0  0  0  0  0  0  0  0  0  0
    1.0357    2.4776    0.1575 C   0  0  0  0  0  0  0  0  0  0  0  0
    3.0574    3.3547    0.0230 C   0  0  0  0  0  0  0  0  0  0  0  0
    2.7814    4.5556    9.1865 C   0  0  0  0  0  0  0  0  0  0  0  0
    1.2635    4.7546    9.4868 C   0  0  0  0  0  0  0  0  0  0  0  0
    3.3869    3.9324   10.4594 C   0  0  0  0  0  0  0  0  0  0  0  0
    3.2894    5.8465    9.0362 O   0  0  0  0  0  0  0  0  0  0  0  0
    7.1210    5.1491    9.9563 O   0  0  0  0  0  0  0  0  0  0  0  0
    6.3443    4.4863    5.9273 O   0  0  0  0  0  0  0  0  0  0  0  0
    6.4687    2.0138    7.2285 O   0  0  0  0  0  0  0  0  0  0  0  0
    4.0846    4.9029    4.3805 O   0  0  0  0  0  0  0  0  0  0  0  0
    0.6776    1.5659    3.2398 C   0  0  0  0  0  0  0  0  0  0  0  0
    4.0383    0.2122    6.5239 C   0  0  0  0  0  0  0  0  0  0  0  0
    1.0608    2.4681    6.0870 O   0  0  0  0  0  0  0  0  0  0  0  0
   -0.2118    2.6942    6.5280 C   0  0  0  0  0  0  0  0  0  0  0  0
   -0.7009    2.0098    7.4156 O   0  0  0  0  0  0  0  0  0  0  0  0
   -1.0313    3.7754    5.9002 C   0  0  0  0  0  0  0  0  0  0  0  0
    3.8888    1.7313    1.8918 H   0  0  0  0  0  0  0  0  0  0  0  0
    3.3260   -1.3842    4.4702 H   0  0  0  0  0  0  0  0  0  0  0  0
    1.7381    3.7372    4.4359 H   0  0  0  0  0  0  0  0  0  0  0  0
    2.3097    3.9847    2.8351 H   0  0  0  0  0  0  0  0  0  0  0  0
    4.5253    3.0941    3.5567 H   0  0  0  0  0  0  0  0  0  0  0  0
    5.1652    2.3595    5.3998 H   0  0  0  0  0  0  0  0  0  0  0  0
    2.4338    4.2607    7.1061 H   0  0  0  0  0  0  0  0  0  0  0  0
    1.3991    2.3500    8.5696 H   0  0  0  0  0  0  0  0  0  0  0  0
    2.9223    1.6102    8.6861 H   0  0  0  0  0  0  0  0  0  0  0  0
    1.4840    0.6543    6.8492 H   0  0  0  0  0  0  0  0  0  0  0  0
    5.3333    6.3375    8.4578 H   0  0  0  0  0  0  0  0  0  0  0  0
    6.7976    6.2203    7.5584 H   0  0  0  0  0  0  0  0  0  0  0  0
    4.6507    5.6033    6.3611 H   0  0  0  0  0  0  0  0  0  0  0  0
    4.9741    1.9132    8.6071 H   0  0  0  0  0  0  0  0  0  0  0  0
    0.2883    3.7123   -1.4996 H   0  0  0  0  0  0  0  0  0  0  0  0
    0.1709    1.8855    0.4216 H   0  0  0  0  0  0  0  0  0  0  0  0
    4.1020    3.5818    0.1909 H   0  0  0  0  0  0  0  0  0  0  0  0
    1.1379    5.4701   10.3287 H   0  0  0  0  0  0  0  0  0  0  0  0
    0.7301    3.8414    9.8101 H   0  0  0  0  0  0  0  0  0  0  0  0
    0.7404    5.1829    8.6053 H   0  0  0  0  0  0  0  0  0  0  0  0
    3.1693    4.5729   11.3415 H   0  0  0  0  0  0  0  0  0  0  0  0
    2.9601    2.9278   10.6594 H   0  0  0  0  0  0  0  0  0  0  0  0
    4.4738    3.8397   10.4177 H   0  0  0  0  0  0  0  0  0  0  0  0
    2.8641    6.2617    8.2394 H   0  0  0  0  0  0  0  0  0  0  0  0
    6.5201    5.2714    5.3447 H   0  0  0  0  0  0  0  0  0  0  0  0
    6.8341    1.2557    7.7563 H   0  0  0  0  0  0  0  0  0  0  0  0
    4.5807    5.1660    3.5603 H   0  0  0  0  0  0  0  0  0  0  0  0
    0.1551    2.3188    2.6206 H   0  0  0  0  0  0  0  0  0  0  0  0
    0.1759    1.5838    4.2088 H   0  0  0  0  0  0  0  0  0  0  0  0
    0.4630    0.5548    2.8379 H   0  0  0  0  0  0  0  0  0  0  0  0
    3.4149   -0.7048    6.5382 H   0  0  0  0  0  0  0  0  0  0  0  0
    5.0003   -0.0207    6.0216 H   0  0  0  0  0  0  0  0  0  0  0  0
    4.2698    0.3398    7.5772 H   0  0  0  0  0  0  0  0  0  0  0  0
   -1.3250    4.5152    6.6740 H   0  0  0  0  0  0  0  0  0  0  0  0
   -0.4531    4.2976    5.1108 H   0  0  0  0  0  0  0  0  0  0  0  0
   -1.9435    3.3373    5.4445 H   0  0  0  0  0  0  0  0  0  0  0  0
  1  2  1  0  0  0  0
  1  6  1  0  0  0  0
  1 22  1  0  0  0  0
  1 41  1  1  0  0  0
  2  3  1  0  0  0  0
  2 35  1  1  0  0  0
  3  4  1  0  0  0  0
  3 20  1  6  0  0  0
  4  5  1  0  0  0  0
  4 20  1  0  0  0  0
  4 42  1  1  0  0  0
  5  6  1  0  0  0  0
  5 21  2  0  0  0  0
  7  8  1  0  0  0  0
  7  2  1  0  0  0  0
  7 43  1  0  0  0  0
  7 44  1  0  0  0  0
  8  9  1  0  0  0  0
  8 34  1  0  0  0  0
  8 45  1  6  0  0  0
  9 10  1  0  0  0  0
  9 11  1  0  0  0  0
  9 46  1  6  0  0  0
 10  3  1  0  0  0  0
 10 36  1  1  0  0  0
 11 12  1  1  0  0  0
 11 18  1  0  0  0  0
 11 19  1  0  0  0  0
 12 13  1  0  0  0  0
 12 27  1  0  0  0  0
 12 47  1  6  0  0  0
 13 14  1  0  0  0  0
 13 48  1  0  0  0  0
 13 49  1  0  0  0  0
 14 10  1  0  0  0  0
 14 37  1  0  0  0  0
 14 50  1  1  0  0  0
 15 16  1  0  0  0  0
 15 19  1  0  0  0  0
 16 17  1  0  0  0  0
 16 31  2  0  0  0  0
 17 18  1  0  0  0  0
 17 51  1  0  0  0  0
 17 52  1  0  0  0  0
 18 32  1  0  0  0  0
 18 53  1  6  0  0  0
 19 33  1  0  0  0  0
 19 54  1  1  0  0  0
 22 26  2  0  0  0  0
 23 24  1  0  0  0  0
 23 26  1  0  0  0  0
 24 25  2  0  0  0  0
 24 55  1  0  0  0  0
 25 22  1  0  0  0  0
 25 56  1  0  0  0  0
 26 57  1  0  0  0  0
 27 28  1  0  0  0  0
 27 29  1  0  0  0  0
 27 30  1  0  0  0  0
 28 58  1  0  0  0  0
 28 59  1  0  0  0  0
 28 60  1  0  0  0  0
 29 61  1  0  0  0  0
 29 62  1  0  0  0  0
 29 63  1  0  0  0  0
 30 64  1  0  0  0  0
 32 65  1  0  0  0  0
 33 66  1  0  0  0  0
 34 67  1  0  0  0  0
 35 68  1  0  0  0  0
 35 69  1  0  0  0  0
 35 70  1  0  0  0  0
 36 71  1  0  0  0  0
 36 72  1  0  0  0  0
 36 73  1  0  0  0  0
 37 38  1  0  0  0  0
 38 39  2  0  0  0  0
 38 40  1  0  0  0  0
 40 74  1  0  0  0  0
 40 75  1  0  0  0  0
 40 76  1  0  0  0  0
M  END
>  <MOL Chiral Flag>
0

$$$$
> 548_AKC_s11030-019-09953-4
>531.sdf
 OpenBabel10062215063D

 32 34  0  0  0  0  0  0  0  0999 V2000
    0.8424   -1.3438    1.8183 C   0  0  0  0  0  0  0  0  0  0  0  0
    0.9635   -0.7675    0.4659 N   0  0  0  0  0  0  0  0  0  0  0  0
   -0.0734   -0.9071   -0.4279 C   0  0  0  0  0  0  0  0  0  0  0  0
   -1.2256   -1.5289   -0.0772 O   0  0  0  0  0  0  0  0  0  0  0  0
   -2.3647   -0.8154    0.1005 C   0  0  0  0  0  0  0  0  0  0  0  0
   -3.5541   -1.2401   -0.5040 C   0  0  0  0  0  0  0  0  0  0  0  0
   -4.7258   -0.4895   -0.3513 C   0  0  0  0  0  0  0  0  0  0  0  0
   -4.7178    0.6762    0.4219 C   0  0  0  0  0  0  0  0  0  0  0  0
   -3.5381    1.0962    1.0414 C   0  0  0  0  0  0  0  0  0  0  0  0
   -2.3630    0.3591    0.8780 C   0  0  0  0  0  0  0  0  0  0  0  0
    0.0187   -0.3853   -1.7192 C   0  0  0  0  0  0  0  0  0  0  0  0
    1.1561    0.2957   -2.1208 C   0  0  0  0  0  0  0  0  0  0  0  0
    1.2176    0.7424   -3.2541 O   0  0  0  0  0  0  0  0  0  0  0  0
    2.2096    0.4745   -1.2149 C   0  0  0  0  0  0  0  0  0  0  0  0
    2.1031   -0.0675    0.0959 C   0  0  0  0  0  0  0  0  0  0  0  0
    3.1747    0.1394    0.9993 C   0  0  0  0  0  0  0  0  0  0  0  0
    4.3044    0.8635    0.6095 C   0  0  0  0  0  0  0  0  0  0  0  0
    4.3981    1.3851   -0.6780 C   0  0  0  0  0  0  0  0  0  0  0  0
    3.3630    1.1918   -1.5888 C   0  0  0  0  0  0  0  0  0  0  0  0
    1.6599   -2.0769    1.9900 H   0  0  0  0  0  0  0  0  0  0  0  0
    0.8942   -0.5388    2.5817 H   0  0  0  0  0  0  0  0  0  0  0  0
   -0.1123   -1.8858    1.9777 H   0  0  0  0  0  0  0  0  0  0  0  0
   -3.5646   -2.1367   -1.1103 H   0  0  0  0  0  0  0  0  0  0  0  0
   -5.6395   -0.8086   -0.8352 H   0  0  0  0  0  0  0  0  0  0  0  0
   -5.6248    1.2545    0.5407 H   0  0  0  0  0  0  0  0  0  0  0  0
   -3.5326    1.9951    1.6446 H   0  0  0  0  0  0  0  0  0  0  0  0
   -1.4534    0.6947    1.3604 H   0  0  0  0  0  0  0  0  0  0  0  0
   -0.8073   -0.5125   -2.4099 H   0  0  0  0  0  0  0  0  0  0  0  0
    3.1469   -0.2426    2.0090 H   0  0  0  0  0  0  0  0  0  0  0  0
    5.1114    1.0227    1.3127 H   0  0  0  0  0  0  0  0  0  0  0  0
    5.2760    1.9459   -0.9720 H   0  0  0  0  0  0  0  0  0  0  0  0
    3.4575    1.6102   -2.5836 H   0  0  0  0  0  0  0  0  0  0  0  0
  1 20  1  0  0  0  0
  1 21  1  0  0  0  0
  1 22  1  0  0  0  0
  2  1  1  0  0  0  0
  3  2  1  0  0  0  0
  4  3  1  0  0  0  0
  5  4  1  0  0  0  0
  6  5  2  0  0  0  0
  6 23  1  0  0  0  0
  7  6  1  0  0  0  0
  7 24  1  0  0  0  0
  8  7  2  0  0  0  0
  8 25  1  0  0  0  0
  9  8  1  0  0  0  0
  9 26  1  0  0  0  0
 10  9  2  0  0  0  0
 10  5  1  0  0  0  0
 10 27  1  0  0  0  0
 11  3  2  0  0  0  0
 11 28  1  0  0  0  0
 12 11  1  0  0  0  0
 13 12  2  0  0  0  0
 14 12  1  0  0  0  0
 15 14  2  0  0  0  0
 15  2  1  0  0  0  0
 16 15  1  0  0  0  0
 16 29  1  0  0  0  0
 17 16  2  0  0  0  0
 17 30  1  0  0  0  0
 18 17  1  0  0  0  0
 18 31  1  0  0  0  0
 19 18  2  0  0  0  0
 19 14  1  0  0  0  0
 19 32  1  0  0  0  0
M  END
>  <MOL Chiral Flag>
0

>  <energy>
51.591989505159162

$$$$
> 549_AKC_j.ejmech.2011.03.053
>532.sdf
 OpenBabel10062215073D

 55 58  0  0  0  0  0  0  0  0999 V2000
  -10.0984    2.1166    3.8314 C   0  0  0  0  0  0  0  0  0  0  0  0
   -8.7396    2.0138    3.1399 C   0  0  0  0  0  0  0  0  0  0  0  0
   -8.0758    0.6653    3.4426 C   0  0  0  0  0  0  0  0  0  0  0  0
   -6.8212    0.5047    2.7224 N   0  0  0  0  0  0  0  0  0  0  0  0
   -6.0466   -0.7115    2.7921 C   0  0  0  0  0  0  0  0  0  0  0  0
   -6.4130   -1.6542    3.6095 N   0  0  0  0  0  0  0  0  0  0  0  0
   -4.8301   -0.9015    1.8938 C   0  0  0  0  0  0  0  0  0  0  0  0
   -4.2475    0.1819    1.1995 C   0  0  0  0  0  0  0  0  0  0  0  0
   -3.1573   -0.0093    0.3402 C   0  0  0  0  0  0  0  0  0  0  0  0
   -2.6013   -1.2919    0.1394 C   0  0  0  0  0  0  0  0  0  0  0  0
   -3.1719   -2.3683    0.8444 C   0  0  0  0  0  0  0  0  0  0  0  0
   -4.2589   -2.1800    1.6986 C   0  0  0  0  0  0  0  0  0  0  0  0
   -1.5093   -1.5103   -0.7878 N   0  0  0  0  0  0  0  0  0  0  0  0
   -1.2687   -0.6171   -1.9215 C   0  0  0  0  0  0  0  0  0  0  0  0
    0.1751   -0.1257   -1.8798 C   0  0  0  0  0  0  0  0  0  0  0  0
    1.0490   -1.2858   -1.7883 N   0  0  0  0  0  0  0  0  0  0  0  0
    0.8457   -2.1799   -0.6579 C   0  0  0  0  0  0  0  0  0  0  0  0
   -0.6139   -2.6675   -0.6857 C   0  0  0  0  0  0  0  0  0  0  0  0
    2.0071   -1.5606   -2.8137 C   0  0  0  0  0  0  0  0  0  0  0  0
    2.0508   -0.9029   -4.0052 N   0  0  0  0  0  0  0  0  0  0  0  0
    3.0157   -1.3470   -4.8357 N   0  0  0  0  0  0  0  0  0  0  0  0
    3.7666   -2.3553   -4.3160 C   0  0  0  0  0  0  0  0  0  0  0  0
    3.2033   -2.7075   -2.7996 S   0  0  0  0  0  0  0  0  0  0  0  0
    4.8866   -2.9809   -5.0270 C   0  0  0  0  0  0  0  0  0  0  0  0
    5.7905   -3.8957   -4.5142 C   0  0  0  0  0  0  0  0  0  0  0  0
    6.6604   -4.1878   -5.5451 C   0  0  0  0  0  0  0  0  0  0  0  0
    6.2269   -3.4397   -6.6220 C   0  0  0  0  0  0  0  0  0  0  0  0
    5.1769   -2.7283   -6.2838 O   0  0  0  0  0  0  0  0  0  0  0  0
    6.8058   -3.4281   -7.9148 N   0  3  0  0  0  0  0  0  0  0  0  0
    7.8623   -4.1678   -8.1758 O   0  5  0  0  0  0  0  0  0  0  0  0
    6.3221   -2.7628   -8.7791 O   0  0  0  0  0  0  0  0  0  0  0  0
  -10.7758    1.3148    3.4651 H   0  0  0  0  0  0  0  0  0  0  0  0
   -9.9853    2.0189    4.9321 H   0  0  0  0  0  0  0  0  0  0  0  0
  -10.5629    3.0991    3.6051 H   0  0  0  0  0  0  0  0  0  0  0  0
   -8.0826    2.8390    3.4910 H   0  0  0  0  0  0  0  0  0  0  0  0
   -8.8937    2.1184    2.0440 H   0  0  0  0  0  0  0  0  0  0  0  0
   -8.7698   -0.1450    3.1269 H   0  0  0  0  0  0  0  0  0  0  0  0
   -7.8945    0.5957    4.5375 H   0  0  0  0  0  0  0  0  0  0  0  0
   -6.5343    1.2636    2.0935 H   0  0  0  0  0  0  0  0  0  0  0  0
   -7.2350   -1.5525    4.2173 H   0  0  0  0  0  0  0  0  0  0  0  0
   -4.6141    1.1886    1.3090 H   0  0  0  0  0  0  0  0  0  0  0  0
   -2.7537    0.8623   -0.1509 H   0  0  0  0  0  0  0  0  0  0  0  0
   -2.8163   -3.3778    0.7142 H   0  0  0  0  0  0  0  0  0  0  0  0
   -4.6565   -3.0625    2.1686 H   0  0  0  0  0  0  0  0  0  0  0  0
   -1.9661    0.2364   -1.9878 H   0  0  0  0  0  0  0  0  0  0  0  0
   -1.4056   -1.1989   -2.8593 H   0  0  0  0  0  0  0  0  0  0  0  0
    0.3256    0.5143   -0.9831 H   0  0  0  0  0  0  0  0  0  0  0  0
    0.3844    0.4924   -2.7783 H   0  0  0  0  0  0  0  0  0  0  0  0
    1.5269   -3.0562   -0.6768 H   0  0  0  0  0  0  0  0  0  0  0  0
    1.0303   -1.6190    0.2840 H   0  0  0  0  0  0  0  0  0  0  0  0
   -0.7560   -3.3067   -1.5845 H   0  0  0  0  0  0  0  0  0  0  0  0
   -0.7797   -3.2863    0.2154 H   0  0  0  0  0  0  0  0  0  0  0  0
    5.8210   -4.2958   -3.5094 H   0  0  0  0  0  0  0  0  0  0  0  0
    7.5043   -4.8645   -5.5137 H   0  0  0  0  0  0  0  0  0  0  0  0
   -5.8949   -2.5320    3.7087 H   0  0  0  0  0  0  0  0  0  0  0  0
  1 32  1  0  0  0  0
  1 33  1  0  0  0  0
  1 34  1  0  0  0  0
  2  1  1  0  0  0  0
  2 35  1  0  0  0  0
  2 36  1  0  0  0  0
  3  2  1  0  0  0  0
  3 37  1  0  0  0  0
  3 38  1  0  0  0  0
  4  3  1  0  0  0  0
  4 39  1  0  0  0  0
  5  4  1  0  0  0  0
  6  5  2  0  0  0  0
  6 40  1  0  0  0  0
  6 55  1  0  0  0  0
  7  5  1  0  0  0  0
  8  7  2  0  0  0  0
  8 41  1  0  0  0  0
  9  8  1  0  0  0  0
  9 42  1  0  0  0  0
 10  9  2  0  0  0  0
 11 10  1  0  0  0  0
 11 43  1  0  0  0  0
 12 11  2  0  0  0  0
 12  7  1  0  0  0  0
 12 44  1  0  0  0  0
 13 10  1  0  0  0  0
 14 13  1  0  0  0  0
 14 45  1  0  0  0  0
 14 46  1  0  0  0  0
 15 14  1  0  0  0  0
 15 47  1  0  0  0  0
 15 48  1  0  0  0  0
 16 15  1  0  0  0  0
 17 16  1  0  0  0  0
 17 49  1  0  0  0  0
 17 50  1  0  0  0  0
 18 17  1  0  0  0  0
 18 13  1  0  0  0  0
 18 51  1  0  0  0  0
 18 52  1  0  0  0  0
 19 16  1  0  0  0  0
 20 19  2  0  0  0  0
 21 20  1  0  0  0  0
 22 21  2  0  0  0  0
 23 22  1  0  0  0  0
 23 19  1  0  0  0  0
 24 22  1  0  0  0  0
 25 24  2  0  0  0  0
 25 53  1  0  0  0  0
 26 25  1  0  0  0  0
 26 54  1  0  0  0  0
 27 26  2  0  0  0  0
 28 27  1  0  0  0  0
 28 24  1  0  0  0  0
 29 27  1  0  0  0  0
 30 29  1  0  0  0  0
 31 29  2  0  0  0  0
M  CHG  2  29   1  30  -1
M  END
>  <MOL Chiral Flag>
0

>  <energy>
130.21583903719076

$$$$
> 550_AKC_j.ijantimicag.2011.02.003
>533.sdf
 OpenBabel10062215083D

 40 42  0  0  0  0  0  0  0  0999 V2000
    0.8951   -0.5971   -1.9031 C   0  0  0  0  0  0  0  0  0  0  0  0
   -0.5152   -0.4918   -2.5307 C   0  0  1  0  0  0  0  0  0  0  0  0
   -1.4383   -1.4849   -1.7831 C   0  0  0  0  0  0  0  0  0  0  0  0
   -2.9170   -1.3662   -2.0943 C   0  0  0  0  0  0  0  0  0  0  0  0
   -3.6297   -0.2787   -1.2622 C   0  0  2  0  0  0  0  0  0  0  0  0
   -3.2690    1.2475   -1.3826 C   0  0  1  0  0  0  0  0  0  0  0  0
   -3.7588    1.8149   -0.2080 O   0  0  0  0  0  0  0  0  0  0  0  0
   -3.9588    0.8893    0.7401 C   0  0  0  0  0  0  0  0  0  0  0  0
   -4.2269    1.1641    1.8989 O   0  0  0  0  0  0  0  0  0  0  0  0
   -3.7806   -0.4362    0.2157 C   0  0  0  0  0  0  0  0  0  0  0  0
   -3.8332   -1.5740    0.9206 C   0  0  0  0  0  0  0  0  0  0  0  0
   -1.7555    1.7041   -1.5360 C   0  0  2  0  0  0  0  0  0  0  0  0
   -0.9706    1.5172   -0.2178 C   0  0  0  0  0  0  0  0  0  0  0  0
   -1.7382    3.1064   -1.7396 O   0  0  0  0  0  0  0  0  0  0  0  0
   -1.0108    1.0066   -2.7564 C   0  0  2  0  0  0  0  0  0  0  0  0
   -1.8496    1.1142   -4.0873 C   0  0  0  0  0  0  0  0  0  0  0  0
   -1.4704    2.4514   -4.7214 C   0  0  0  0  0  0  0  0  0  0  0  0
   -0.1179    2.5804   -4.1408 C   0  0  0  0  0  0  0  0  0  0  0  0
    0.6663    3.4614   -4.4530 O   0  0  0  0  0  0  0  0  0  0  0  0
    0.0930    1.7792   -3.0834 O   0  0  0  0  0  0  0  0  0  0  0  0
    0.9299   -0.2417   -0.8578 H   0  0  0  0  0  0  0  0  0  0  0  0
    1.2337   -1.6559   -1.9026 H   0  0  0  0  0  0  0  0  0  0  0  0
    1.6399   -0.0252   -2.4951 H   0  0  0  0  0  0  0  0  0  0  0  0
   -0.3546   -0.9172   -3.5446 H   0  0  0  0  0  0  0  0  0  0  0  0
   -1.0938   -2.5010   -2.0806 H   0  0  0  0  0  0  0  0  0  0  0  0
   -1.3182   -1.4545   -0.6829 H   0  0  0  0  0  0  0  0  0  0  0  0
   -3.0731   -1.2462   -3.1854 H   0  0  0  0  0  0  0  0  0  0  0  0
   -3.4002   -2.3287   -1.8220 H   0  0  0  0  0  0  0  0  0  0  0  0
   -4.6934   -0.3553   -1.5888 H   0  0  0  0  0  0  0  0  0  0  0  0
   -3.8470    1.6220   -2.2534 H   0  0  0  0  0  0  0  0  0  0  0  0
   -3.7264   -2.5368    0.4354 H   0  0  0  0  0  0  0  0  0  0  0  0
   -3.9853   -1.5468    1.9950 H   0  0  0  0  0  0  0  0  0  0  0  0
    0.0748    1.8726   -0.3397 H   0  0  0  0  0  0  0  0  0  0  0  0
   -1.4156    2.1301    0.5943 H   0  0  0  0  0  0  0  0  0  0  0  0
   -0.9659    0.4792    0.1453 H   0  0  0  0  0  0  0  0  0  0  0  0
   -2.5619    3.4095   -2.1998 H   0  0  0  0  0  0  0  0  0  0  0  0
   -1.4095    0.3900   -4.8092 H   0  0  0  0  0  0  0  0  0  0  0  0
   -2.9269    0.8640   -4.0873 H   0  0  0  0  0  0  0  0  0  0  0  0
   -1.4976    2.3858   -5.8312 H   0  0  0  0  0  0  0  0  0  0  0  0
   -2.0859    3.3050   -4.3763 H   0  0  0  0  0  0  0  0  0  0  0  0
  1 21  1  0  0  0  0
  1 22  1  0  0  0  0
  1 23  1  0  0  0  0
  2  1  1  0  0  0  0
  2 24  1  6  0  0  0
  3  2  1  0  0  0  0
  3 25  1  0  0  0  0
  3 26  1  0  0  0  0
  4  3  1  0  0  0  0
  4 27  1  0  0  0  0
  4 28  1  0  0  0  0
  5  4  1  0  0  0  0
  5 29  1  6  0  0  0
  6  5  1  0  0  0  0
  6 30  1  6  0  0  0
  7  6  1  0  0  0  0
  8  7  1  0  0  0  0
  9  8  2  0  0  0  0
 10  8  1  0  0  0  0
 10  5  1  0  0  0  0
 11 10  2  0  0  0  0
 11 31  1  0  0  0  0
 11 32  1  0  0  0  0
 12  6  1  0  0  0  0
 12 13  1  1  0  0  0
 13 33  1  0  0  0  0
 13 34  1  0  0  0  0
 13 35  1  0  0  0  0
 14 12  1  0  0  0  0
 14 36  1  0  0  0  0
 15 12  1  0  0  0  0
 15  2  1  0  0  0  0
 15 16  1  6  0  0  0
 16 37  1  0  0  0  0
 16 38  1  0  0  0  0
 17 16  1  0  0  0  0
 17 39  1  0  0  0  0
 17 40  1  0  0  0  0
 18 17  1  0  0  0  0
 19 18  2  0  0  0  0
 20 18  1  0  0  0  0
 20 15  1  0  0  0  0
M  END
>  <MOL Chiral Flag>
0

>  <energy>
89.161623654910372

$$$$
> 551_AKC_molecules16053469
>534.sdf
 OpenBabel10062215093D

 33 34  0  0  0  0  0  0  0  0999 V2000
  -10.3069   -3.9845    2.6348 C   0  0  0  0  0  0  0  0  0  0  0  0
   -9.2040   -3.3675    1.8396 C   0  0  0  0  0  0  0  0  0  0  0  0
   -9.4299   -2.4681    1.0430 O   0  0  0  0  0  0  0  0  0  0  0  0
   -7.9559   -3.8383    2.0283 O   0  0  0  0  0  0  0  0  0  0  0  0
   -6.8089   -3.4359    1.3844 C   0  0  0  0  0  0  0  0  0  0  0  0
   -5.7180   -4.3104    1.9823 C   0  0  0  0  0  0  0  0  0  0  0  0
   -4.3985   -4.1208    1.4294 C   0  0  0  0  0  0  0  0  0  0  0  0
   -3.2696   -4.0586    1.0498 C   0  0  0  0  0  0  0  0  0  0  0  0
   -1.9402   -3.9578    0.5831 C   0  0  0  0  0  0  0  0  0  0  0  0
   -1.4741   -4.5514   -0.5869 C   0  0  0  0  0  0  0  0  0  0  0  0
   -0.1782   -4.1413   -0.9175 C   0  0  0  0  0  0  0  0  0  0  0  0
    0.3728   -3.2590   -0.0123 C   0  0  0  0  0  0  0  0  0  0  0  0
   -0.7462   -2.9709    1.1740 S   0  0  0  0  0  0  0  0  0  0  0  0
    1.6117   -2.6006   -0.3224 C   0  0  0  0  0  0  0  0  0  0  0  0
    1.7734   -1.8691   -1.4955 C   0  0  0  0  0  0  0  0  0  0  0  0
    3.1005   -1.4022   -1.6707 C   0  0  0  0  0  0  0  0  0  0  0  0
    3.9849   -1.8019   -0.6599 C   0  0  0  0  0  0  0  0  0  0  0  0
    5.4675   -1.4767   -0.6169 C   0  0  0  0  0  0  0  0  0  0  0  0
    3.0783   -2.6559    0.4563 S   0  0  0  0  0  0  0  0  0  0  0  0
  -11.2875   -3.5235    2.4036 H   0  0  0  0  0  0  0  0  0  0  0  0
  -10.3482   -5.0718    2.4085 H   0  0  0  0  0  0  0  0  0  0  0  0
  -10.0851   -3.8595    3.7164 H   0  0  0  0  0  0  0  0  0  0  0  0
   -6.6072   -2.3566    1.5732 H   0  0  0  0  0  0  0  0  0  0  0  0
   -6.9006   -3.6057    0.2869 H   0  0  0  0  0  0  0  0  0  0  0  0
   -5.6506   -4.1220    3.0723 H   0  0  0  0  0  0  0  0  0  0  0  0
   -5.9774   -5.3739    1.8044 H   0  0  0  0  0  0  0  0  0  0  0  0
   -2.0409   -5.2195   -1.2163 H   0  0  0  0  0  0  0  0  0  0  0  0
    0.3537   -4.4465   -1.8051 H   0  0  0  0  0  0  0  0  0  0  0  0
    0.9454   -1.6532   -2.1822 H   0  0  0  0  0  0  0  0  0  0  0  0
    3.3992   -0.7704   -2.4850 H   0  0  0  0  0  0  0  0  0  0  0  0
    5.6872   -0.6771    0.1142 H   0  0  0  0  0  0  0  0  0  0  0  0
    5.8298   -1.1035   -1.6043 H   0  0  0  0  0  0  0  0  0  0  0  0
    6.0950   -2.3586   -0.3522 H   0  0  0  0  0  0  0  0  0  0  0  0
  1 20  1  0  0  0  0
  1 21  1  0  0  0  0
  1 22  1  0  0  0  0
  2  1  1  0  0  0  0
  3  2  2  0  0  0  0
  4  2  1  0  0  0  0
  5  4  1  0  0  0  0
  5 23  1  0  0  0  0
  5 24  1  0  0  0  0
  6  5  1  0  0  0  0
  6 25  1  0  0  0  0
  6 26  1  0  0  0  0
  7  6  1  0  0  0  0
  8  7  3  0  0  0  0
  9  8  1  0  0  0  0
 10  9  2  0  0  0  0
 10 27  1  0  0  0  0
 11 10  1  0  0  0  0
 11 28  1  0  0  0  0
 12 11  2  0  0  0  0
 13 12  1  0  0  0  0
 13  9  1  0  0  0  0
 14 12  1  0  0  0  0
 15 14  2  0  0  0  0
 15 29  1  0  0  0  0
 16 15  1  0  0  0  0
 16 30  1  0  0  0  0
 17 16  2  0  0  0  0
 18 17  1  0  0  0  0
 18 31  1  0  0  0  0
 18 32  1  0  0  0  0
 18 33  1  0  0  0  0
 19 17  1  0  0  0  0
 19 14  1  0  0  0  0
M  END
>  <MOL Chiral Flag>
0

>  <energy>
25.089656310000699

$$$$
> 552_AKC_j.bmc.2011.02.051
>535.sdf
 OpenBabel10062215093D

 41 43  0  0  0  0  0  0  0  0999 V2000
    0.1011    5.9385   -1.5989 Br  0  0  0  0  0  0  0  0  0  0  0  0
   -0.3045    4.2215   -0.9124 C   0  0  0  0  0  0  0  0  0  0  0  0
    0.0540    3.8383    0.3946 C   0  0  0  0  0  0  0  0  0  0  0  0
   -0.2525    2.5496    0.8390 C   0  0  0  0  0  0  0  0  0  0  0  0
   -0.9251    1.6711   -0.0266 C   0  0  0  0  0  0  0  0  0  0  0  0
   -1.2785    2.0739   -1.3141 C   0  0  0  0  0  0  0  0  0  0  0  0
   -0.9725    3.3317   -1.7503 C   0  0  0  0  0  0  0  0  0  0  0  0
   -1.3532    0.3452    0.3777 C   0  0  0  0  0  0  0  0  0  0  0  0
   -0.6034   -0.5375    1.0797 C   0  0  0  0  0  0  0  0  0  0  0  0
   -1.0718   -1.7720    1.3104 O   0  0  0  0  0  0  0  0  0  0  0  0
   -2.2036   -2.2513    0.7642 C   0  0  0  0  0  0  0  0  0  0  0  0
   -2.2869   -3.7382    0.5769 C   0  0  0  0  0  0  0  0  0  0  0  0
   -1.7768   -3.9770   -0.7826 C   0  0  0  0  0  0  0  0  0  0  0  0
   -1.3588   -4.0859   -1.8571 N   0  0  0  0  0  0  0  0  0  0  0  0
   -3.1438   -1.3964    0.3097 C   0  0  0  0  0  0  0  0  0  0  0  0
   -2.8337    0.0692    0.2706 C   0  0  0  0  0  0  0  0  0  0  0  0
   -4.4531   -1.8716   -0.0345 C   0  0  0  0  0  0  0  0  0  0  0  0
   -5.5155   -2.2900   -0.2092 N   0  0  0  0  0  0  0  0  0  0  0  0
    0.7366   -0.2727    1.5825 C   0  0  0  0  0  0  0  0  0  0  0  0
    0.9061   -0.2757    2.7894 O   0  0  0  0  0  0  0  0  0  0  0  0
    1.8751   -0.1575    0.6863 C   0  0  0  0  0  0  0  0  0  0  0  0
    1.7625   -0.6458   -0.6170 C   0  0  0  0  0  0  0  0  0  0  0  0
    2.8058   -0.4993   -1.5074 C   0  0  0  0  0  0  0  0  0  0  0  0
    3.9887    0.1468   -1.1089 C   0  0  0  0  0  0  0  0  0  0  0  0
    4.1206    0.5859    0.2253 C   0  0  0  0  0  0  0  0  0  0  0  0
    3.0725    0.4204    1.1241 C   0  0  0  0  0  0  0  0  0  0  0  0
    5.0328    0.3669   -2.0487 N   0  0  0  0  0  0  0  0  0  0  0  0
    4.8918    0.0459   -3.1902 O   0  0  0  0  0  0  0  0  0  0  0  0
    6.0276    0.9381   -1.7195 O   0  0  0  0  0  0  0  0  0  0  0  0
    0.5545    4.5309    1.0635 H   0  0  0  0  0  0  0  0  0  0  0  0
   -0.0070    2.2572    1.8568 H   0  0  0  0  0  0  0  0  0  0  0  0
   -1.7914    1.4053   -1.9968 H   0  0  0  0  0  0  0  0  0  0  0  0
   -1.2707    3.5969   -2.7490 H   0  0  0  0  0  0  0  0  0  0  0  0
   -3.3056   -4.1661    0.6999 H   0  0  0  0  0  0  0  0  0  0  0  0
   -1.5779   -4.2677    1.2333 H   0  0  0  0  0  0  0  0  0  0  0  0
   -3.4447    0.6775   -0.4460 H   0  0  0  0  0  0  0  0  0  0  0  0
   -3.1599    0.5055    1.2375 H   0  0  0  0  0  0  0  0  0  0  0  0
    0.8600   -1.1472   -0.9436 H   0  0  0  0  0  0  0  0  0  0  0  0
    2.6743   -0.8743   -2.5123 H   0  0  0  0  0  0  0  0  0  0  0  0
    5.0226    1.0760    0.5631 H   0  0  0  0  0  0  0  0  0  0  0  0
    3.1804    0.7762    2.1452 H   0  0  0  0  0  0  0  0  0  0  0  0
  2  1  1  0  0  0  0
  3  2  2  0  0  0  0
  3 30  1  0  0  0  0
  4  3  1  0  0  0  0
  4 31  1  0  0  0  0
  5  4  2  0  0  0  0
  6  5  1  0  0  0  0
  6 32  1  0  0  0  0
  7  6  2  0  0  0  0
  7  2  1  0  0  0  0
  7 33  1  0  0  0  0
  8  5  1  0  0  0  0
  9  8  2  0  0  0  0
 10  9  1  0  0  0  0
 11 10  1  0  0  0  0
 12 11  1  0  0  0  0
 12 34  1  0  0  0  0
 12 35  1  0  0  0  0
 13 12  1  0  0  0  0
 14 13  3  0  0  0  0
 15 11  2  0  0  0  0
 16 15  1  0  0  0  0
 16  8  1  0  0  0  0
 16 36  1  0  0  0  0
 16 37  1  0  0  0  0
 17 15  1  0  0  0  0
 18 17  3  0  0  0  0
 19  9  1  0  0  0  0
 20 19  2  0  0  0  0
 21 19  1  0  0  0  0
 22 21  2  0  0  0  0
 22 38  1  0  0  0  0
 23 22  1  0  0  0  0
 23 39  1  0  0  0  0
 24 23  2  0  0  0  0
 25 24  1  0  0  0  0
 25 40  1  0  0  0  0
 26 25  2  0  0  0  0
 26 21  1  0  0  0  0
 26 41  1  0  0  0  0
 27 24  1  0  0  0  0
 28 27  2  0  0  0  0
 29 27  2  0  0  0  0
M  END
>  <MOL Chiral Flag>
0

>  <energy>
135.54318982720855

$$$$
> 553_AKC_journal.pntd.0000962
>536.sdf
 OpenBabel10062215103D

 66 68  0  0  0  0  0  0  0  0999 V2000
    9.2909   -0.8482    6.4185 C   0  0  0  0  0  0  0  0  0  0  0  0
    9.1064    0.0568    5.1785 C   0  0  0  0  0  0  0  0  0  0  0  0
    7.7619    0.0183    4.5251 N   0  3  0  0  0  0  0  0  0  0  0  0
    6.7975    1.0127    5.0656 C   0  0  0  0  0  0  0  0  0  0  0  0
    6.5116    0.9150    6.5661 C   0  0  0  0  0  0  0  0  0  0  0  0
    7.2335   -1.3658    4.4032 C   0  0  0  0  0  0  0  0  0  0  0  0
    6.2268   -1.5955    3.2563 C   0  0  0  0  0  0  0  0  0  0  0  0
    4.9426   -1.1272    3.5049 O   0  0  0  0  0  0  0  0  0  0  0  0
    3.8776   -1.4267    2.6958 C   0  0  0  0  0  0  0  0  0  0  0  0
    4.0613   -2.0698    1.4341 C   0  0  0  0  0  0  0  0  0  0  0  0
    2.9643   -2.4267    0.6415 C   0  0  0  0  0  0  0  0  0  0  0  0
    1.6877   -2.1464    1.1084 C   0  0  0  0  0  0  0  0  0  0  0  0
    0.3945   -2.4508    0.4993 C   0  0  0  0  0  0  0  0  0  0  0  0
    0.1245   -3.0916   -0.7002 C   0  0  0  0  0  0  0  0  0  0  0  0
   -1.2102   -3.2869   -1.0630 C   0  0  0  0  0  0  0  0  0  0  0  0
   -2.2686   -2.8511   -0.2351 C   0  0  0  0  0  0  0  0  0  0  0  0
   -3.5242   -3.1014   -0.6863 O   0  0  0  0  0  0  0  0  0  0  0  0
   -4.7830   -2.9194   -0.1417 C   0  0  0  0  0  0  0  0  0  0  0  0
   -5.5754   -2.0207   -1.1101 C   0  0  0  0  0  0  0  0  0  0  0  0
   -7.0644   -2.0586   -1.0436 N   0  3  0  0  0  0  0  0  0  0  0  0
   -7.6665   -3.2933   -1.6388 C   0  0  0  0  0  0  0  0  0  0  0  0
   -7.9555   -4.4658   -0.6814 C   0  0  0  0  0  0  0  0  0  0  0  0
   -7.6295   -1.6405    0.2602 C   0  0  0  0  0  0  0  0  0  0  0  0
   -9.1275   -1.2973    0.1540 C   0  0  0  0  0  0  0  0  0  0  0  0
   -1.9726   -2.1932    0.9922 C   0  0  0  0  0  0  0  0  0  0  0  0
   -0.6180   -2.0067    1.3317 C   0  0  0  0  0  0  0  0  0  0  0  0
    0.0225   -1.3881    2.5046 C   0  0  0  0  0  0  0  0  0  0  0  0
   -0.5457   -0.8870    3.4618 O   0  0  0  0  0  0  0  0  0  0  0  0
    1.4790   -1.5122    2.3169 C   0  0  0  0  0  0  0  0  0  0  0  0
    2.5594   -1.1326    3.1308 C   0  0  0  0  0  0  0  0  0  0  0  0
    9.1542   -1.9195    6.1656 H   0  0  0  0  0  0  0  0  0  0  0  0
    8.6127   -0.6075    7.2532 H   0  0  0  0  0  0  0  0  0  0  0  0
   10.3311   -0.7382    6.7916 H   0  0  0  0  0  0  0  0  0  0  0  0
    9.3814    1.1040    5.4340 H   0  0  0  0  0  0  0  0  0  0  0  0
    9.8682   -0.2953    4.4449 H   0  0  0  0  0  0  0  0  0  0  0  0
    7.9458    0.3459    3.5460 H   0  0  0  0  0  0  0  0  0  0  0  0
    5.8368    0.9400    4.5174 H   0  0  0  0  0  0  0  0  0  0  0  0
    7.1856    2.0396    4.8751 H   0  0  0  0  0  0  0  0  0  0  0  0
    7.4150    1.1671    7.1555 H   0  0  0  0  0  0  0  0  0  0  0  0
    5.7479    1.6733    6.8382 H   0  0  0  0  0  0  0  0  0  0  0  0
    6.1254   -0.0863    6.8428 H   0  0  0  0  0  0  0  0  0  0  0  0
    6.8279   -1.7452    5.3653 H   0  0  0  0  0  0  0  0  0  0  0  0
    8.0881   -2.0242    4.1230 H   0  0  0  0  0  0  0  0  0  0  0  0
    6.1544   -2.7017    3.1507 H   0  0  0  0  0  0  0  0  0  0  0  0
    6.6284   -1.1785    2.3065 H   0  0  0  0  0  0  0  0  0  0  0  0
    5.0482   -2.3101    1.0655 H   0  0  0  0  0  0  0  0  0  0  0  0
    3.1127   -2.9263   -0.3069 H   0  0  0  0  0  0  0  0  0  0  0  0
    0.9242   -3.4386   -1.3410 H   0  0  0  0  0  0  0  0  0  0  0  0
   -1.4342   -3.7892   -1.9960 H   0  0  0  0  0  0  0  0  0  0  0  0
   -4.7813   -2.5156    0.8914 H   0  0  0  0  0  0  0  0  0  0  0  0
   -5.2185   -3.9249   -0.1149 H   0  0  0  0  0  0  0  0  0  0  0  0
   -5.2819   -2.2943   -2.1493 H   0  0  0  0  0  0  0  0  0  0  0  0
   -5.2084   -0.9785   -0.9647 H   0  0  0  0  0  0  0  0  0  0  0  0
   -7.3249   -1.2987   -1.7191 H   0  0  0  0  0  0  0  0  0  0  0  0
   -7.0372   -3.6636   -2.4784 H   0  0  0  0  0  0  0  0  0  0  0  0
   -8.6461   -3.0301   -2.0975 H   0  0  0  0  0  0  0  0  0  0  0  0
   -7.0619   -4.8754   -0.1891 H   0  0  0  0  0  0  0  0  0  0  0  0
   -8.4062   -5.2944   -1.2681 H   0  0  0  0  0  0  0  0  0  0  0  0
   -8.6904   -4.1875    0.0989 H   0  0  0  0  0  0  0  0  0  0  0  0
   -7.1148   -0.7191    0.6116 H   0  0  0  0  0  0  0  0  0  0  0  0
   -7.4691   -2.4242    1.0307 H   0  0  0  0  0  0  0  0  0  0  0  0
   -9.2827   -0.4781   -0.5806 H   0  0  0  0  0  0  0  0  0  0  0  0
   -9.5111   -0.9622    1.1397 H   0  0  0  0  0  0  0  0  0  0  0  0
   -9.7340   -2.1680   -0.1671 H   0  0  0  0  0  0  0  0  0  0  0  0
   -2.7527   -1.8440    1.6537 H   0  0  0  0  0  0  0  0  0  0  0  0
    2.3869   -0.6509    4.0846 H   0  0  0  0  0  0  0  0  0  0  0  0
  1 31  1  0  0  0  0
  1 32  1  0  0  0  0
  1 33  1  0  0  0  0
  2  1  1  0  0  0  0
  2 34  1  0  0  0  0
  2 35  1  0  0  0  0
  3  2  1  0  0  0  0
  3 36  1  0  0  0  0
  4  3  1  0  0  0  0
  4 37  1  0  0  0  0
  4 38  1  0  0  0  0
  5  4  1  0  0  0  0
  5 39  1  0  0  0  0
  5 40  1  0  0  0  0
  5 41  1  0  0  0  0
  6  3  1  0  0  0  0
  6 42  1  0  0  0  0
  6 43  1  0  0  0  0
  7  6  1  0  0  0  0
  7 44  1  0  0  0  0
  7 45  1  0  0  0  0
  8  7  1  0  0  0  0
  9  8  1  0  0  0  0
 10  9  2  0  0  0  0
 10 46  1  0  0  0  0
 11 10  1  0  0  0  0
 11 47  1  0  0  0  0
 12 11  2  0  0  0  0
 13 12  1  0  0  0  0
 14 13  2  0  0  0  0
 14 48  1  0  0  0  0
 15 14  1  0  0  0  0
 15 49  1  0  0  0  0
 16 15  2  0  0  0  0
 17 16  1  0  0  0  0
 18 17  1  0  0  0  0
 18 50  1  0  0  0  0
 18 51  1  0  0  0  0
 19 18  1  0  0  0  0
 19 52  1  0  0  0  0
 19 53  1  0  0  0  0
 20 19  1  0  0  0  0
 20 54  1  0  0  0  0
 21 20  1  0  0  0  0
 21 55  1  0  0  0  0
 21 56  1  0  0  0  0
 22 21  1  0  0  0  0
 22 57  1  0  0  0  0
 22 58  1  0  0  0  0
 22 59  1  0  0  0  0
 23 20  1  0  0  0  0
 23 60  1  0  0  0  0
 23 61  1  0  0  0  0
 24 23  1  0  0  0  0
 24 62  1  0  0  0  0
 24 63  1  0  0  0  0
 24 64  1  0  0  0  0
 25 16  1  0  0  0  0
 25 65  1  0  0  0  0
 26 25  2  0  0  0  0
 26 13  1  0  0  0  0
 27 26  1  0  0  0  0
 28 27  2  0  0  0  0
 29 27  1  0  0  0  0
 29 12  1  0  0  0  0
 30 29  2  0  0  0  0
 30  9  1  0  0  0  0
 30 66  1  0  0  0  0
M  CHG  2   3   1  20   1
M  END
>  <MOL Chiral Flag>
0

>  <energy>
126.06816269885263

$$$$
> 554_AKC_journal.pntd.0000962
>537.sdf
 OpenBabel10062215103D

 36 35  0  0  0  0  0  0  0  0999 V2000
   -1.0215   -0.3390   -0.9329 C   0  0  0  0  0  0  0  0  0  0  0  0
   -1.8496    0.9199   -1.1933 C   0  0  0  0  0  0  0  0  0  0  0  0
   -1.7766    1.8491   -0.0570 N   0  0  0  0  0  0  0  0  0  0  0  0
   -2.9283    2.0480    0.8481 C   0  0  0  0  0  0  0  0  0  0  0  0
   -4.1706    1.1810    0.6021 C   0  0  0  0  0  0  0  0  0  0  0  0
   -0.5434    2.5878    0.1816 C   0  0  0  0  0  0  0  0  0  0  0  0
   -0.3808    3.3990    1.3671 S   0  0  0  0  0  0  0  0  0  0  0  0
    0.8632    2.4830   -0.9652 S   0  0  0  0  0  0  0  0  0  0  0  0
    0.9280    4.5734   -1.4438 S   0  0  0  0  0  0  0  0  0  0  0  0
    2.7378    4.7149   -1.4966 C   0  0  0  0  0  0  0  0  0  0  0  0
    3.4151    4.1533   -2.6406 S   0  0  0  0  0  0  0  0  0  0  0  0
    3.4671    5.4089   -0.4502 N   0  0  0  0  0  0  0  0  0  0  0  0
    4.8504    5.8813   -0.6706 C   0  0  0  0  0  0  0  0  0  0  0  0
    4.9254    6.9266   -1.7961 C   0  0  0  0  0  0  0  0  0  0  0  0
    2.7861    5.5912    0.8405 C   0  0  0  0  0  0  0  0  0  0  0  0
    3.6661    5.9979    2.0320 C   0  0  0  0  0  0  0  0  0  0  0  0
   -1.1165   -1.0312   -1.7964 H   0  0  0  0  0  0  0  0  0  0  0  0
    0.0506   -0.1125   -0.7853 H   0  0  0  0  0  0  0  0  0  0  0  0
   -1.4024   -0.8547   -0.0254 H   0  0  0  0  0  0  0  0  0  0  0  0
   -1.5335    1.4323   -2.1263 H   0  0  0  0  0  0  0  0  0  0  0  0
   -2.8744    0.5614   -1.3925 H   0  0  0  0  0  0  0  0  0  0  0  0
   -2.6028    1.8160    1.8855 H   0  0  0  0  0  0  0  0  0  0  0  0
   -3.2432    3.1136    0.8059 H   0  0  0  0  0  0  0  0  0  0  0  0
   -3.9130    0.1023    0.6774 H   0  0  0  0  0  0  0  0  0  0  0  0
   -4.6336    1.4030   -0.3820 H   0  0  0  0  0  0  0  0  0  0  0  0
   -4.9307    1.4028    1.3815 H   0  0  0  0  0  0  0  0  0  0  0  0
    5.5219    5.0282   -0.8989 H   0  0  0  0  0  0  0  0  0  0  0  0
    5.2751    6.3864    0.2136 H   0  0  0  0  0  0  0  0  0  0  0  0
    5.9628    7.3154   -1.8792 H   0  0  0  0  0  0  0  0  0  0  0  0
    4.2440    7.7777   -1.5854 H   0  0  0  0  0  0  0  0  0  0  0  0
    4.6613    6.5029   -2.7839 H   0  0  0  0  0  0  0  0  0  0  0  0
    1.9472    6.3111    0.7266 H   0  0  0  0  0  0  0  0  0  0  0  0
    2.3646    4.6078    1.1377 H   0  0  0  0  0  0  0  0  0  0  0  0
    4.4850    5.2562    2.1666 H   0  0  0  0  0  0  0  0  0  0  0  0
    4.0849    7.0185    1.9183 H   0  0  0  0  0  0  0  0  0  0  0  0
    3.0544    5.9929    2.9592 H   0  0  0  0  0  0  0  0  0  0  0  0
  1 17  1  0  0  0  0
  1 18  1  0  0  0  0
  1 19  1  0  0  0  0
  2  1  1  0  0  0  0
  2 20  1  0  0  0  0
  2 21  1  0  0  0  0
  3  2  1  0  0  0  0
  4  3  1  0  0  0  0
  4 22  1  0  0  0  0
  4 23  1  0  0  0  0
  5  4  1  0  0  0  0
  5 24  1  0  0  0  0
  5 25  1  0  0  0  0
  5 26  1  0  0  0  0
  6  3  1  0  0  0  0
  7  6  2  0  0  0  0
  8  6  1  0  0  0  0
  9  8  1  0  0  0  0
 10  9  1  0  0  0  0
 11 10  2  0  0  0  0
 12 10  1  0  0  0  0
 13 12  1  0  0  0  0
 13 27  1  0  0  0  0
 13 28  1  0  0  0  0
 14 13  1  0  0  0  0
 14 29  1  0  0  0  0
 14 30  1  0  0  0  0
 14 31  1  0  0  0  0
 15 12  1  0  0  0  0
 15 32  1  0  0  0  0
 15 33  1  0  0  0  0
 16 15  1  0  0  0  0
 16 34  1  0  0  0  0
 16 35  1  0  0  0  0
 16 36  1  0  0  0  0
M  END
>  <MOL Chiral Flag>
0

>  <energy>
-1.4150778486367059

$$$$
> 555_AKC_AAC.00436-10
>538.sdf
 OpenBabel10062215113D

 51 54  0  0  0  0  0  0  0  0999 V2000
    2.0755   -0.2921   -2.2642 C   0  0  0  0  0  0  0  0  0  0  0  0
    1.1402   -1.2902   -1.5590 C   0  0  1  0  0  0  0  0  0  0  0  0
    0.0947   -0.6122   -0.6435 C   0  0  1  0  0  0  0  0  0  0  0  0
   -0.7862   -1.6360   -0.0508 N   0  0  0  0  0  0  0  0  0  0  0  0
   -1.6971   -1.2548    1.0256 C   0  0  0  0  0  0  0  0  0  0  0  0
   -2.1412   -2.5057    1.7952 C   0  0  1  0  0  0  0  0  0  0  0  0
   -2.9490   -2.1038    3.0580 C   0  0  0  0  0  0  0  0  0  0  0  0
   -3.3266   -3.2568    3.9669 C   0  0  0  0  0  0  0  0  0  0  0  0
   -4.3285   -4.1738    3.5989 C   0  0  0  0  0  0  0  0  0  0  0  0
   -4.6737   -5.2250    4.4535 C   0  0  0  0  0  0  0  0  0  0  0  0
   -4.0287   -5.3697    5.6847 C   0  0  0  0  0  0  0  0  0  0  0  0
   -4.4647   -6.6897    6.7546 Cl  0  0  0  0  0  0  0  0  0  0  0  0
   -3.0407   -4.4575    6.0654 C   0  0  0  0  0  0  0  0  0  0  0  0
   -2.6930   -3.4036    5.2149 C   0  0  0  0  0  0  0  0  0  0  0  0
   -2.9107   -3.4423    0.8434 C   0  0  0  0  0  0  0  0  0  0  0  0
   -2.2503   -3.6077   -0.4357 N   0  0  0  0  0  0  0  0  0  0  0  0
   -1.1940   -2.7564   -0.8685 C   0  0  0  0  0  0  0  0  0  0  0  0
   -0.6676   -2.9616   -2.0316 N   0  0  0  0  0  0  0  0  0  0  0  0
    0.3776   -2.1483   -2.5268 C   0  0  0  0  0  0  0  0  0  0  0  0
    0.6190   -2.1321   -3.7245 O   0  0  0  0  0  0  0  0  0  0  0  0
    0.7930    0.2147    0.4281 C   0  0  0  0  0  0  0  0  0  0  0  0
    1.6271   -0.3982    1.3799 C   0  0  0  0  0  0  0  0  0  0  0  0
    2.2628    0.3683    2.3598 C   0  0  0  0  0  0  0  0  0  0  0  0
    2.0770    1.7589    2.4075 C   0  0  0  0  0  0  0  0  0  0  0  0
    1.2409    2.3723    1.4575 C   0  0  0  0  0  0  0  0  0  0  0  0
    0.6043    1.6055    0.4776 C   0  0  0  0  0  0  0  0  0  0  0  0
    2.7758    2.5637    3.4750 C   0  0  0  0  0  0  0  0  0  0  0  0
    2.3782    2.1170    4.7220 F   0  0  0  0  0  0  0  0  0  0  0  0
    4.1436    2.4001    3.3525 F   0  0  0  0  0  0  0  0  0  0  0  0
    2.4839    3.9134    3.3776 F   0  0  0  0  0  0  0  0  0  0  0  0
    2.6513    0.2989   -1.5218 H   0  0  0  0  0  0  0  0  0  0  0  0
    1.4903    0.4062   -2.9002 H   0  0  0  0  0  0  0  0  0  0  0  0
    2.8056   -0.8361   -2.9006 H   0  0  0  0  0  0  0  0  0  0  0  0
    1.7548   -1.9751   -0.9353 H   0  0  0  0  0  0  0  0  0  0  0  0
   -0.5348    0.0553   -1.2763 H   0  0  0  0  0  0  0  0  0  0  0  0
   -1.1883   -0.5772    1.7411 H   0  0  0  0  0  0  0  0  0  0  0  0
   -2.5759   -0.7149    0.6087 H   0  0  0  0  0  0  0  0  0  0  0  0
   -1.2115   -3.0215    2.1282 H   0  0  0  0  0  0  0  0  0  0  0  0
   -3.8646   -1.5352    2.7855 H   0  0  0  0  0  0  0  0  0  0  0  0
   -2.2994   -1.4082    3.6343 H   0  0  0  0  0  0  0  0  0  0  0  0
   -4.8525   -4.0711    2.6590 H   0  0  0  0  0  0  0  0  0  0  0  0
   -5.4459   -5.9246    4.1594 H   0  0  0  0  0  0  0  0  0  0  0  0
   -2.5424   -4.5637    7.0206 H   0  0  0  0  0  0  0  0  0  0  0  0
   -1.9257   -2.7060    5.5269 H   0  0  0  0  0  0  0  0  0  0  0  0
   -3.9318   -3.0512    0.6437 H   0  0  0  0  0  0  0  0  0  0  0  0
   -2.9887   -4.4373    1.3270 H   0  0  0  0  0  0  0  0  0  0  0  0
   -2.6245   -4.3091   -1.0927 H   0  0  0  0  0  0  0  0  0  0  0  0
    1.7811   -1.4695    1.3648 H   0  0  0  0  0  0  0  0  0  0  0  0
    2.9015   -0.1211    3.0849 H   0  0  0  0  0  0  0  0  0  0  0  0
    1.0786    3.4422    1.4708 H   0  0  0  0  0  0  0  0  0  0  0  0
   -0.0352    2.0973   -0.2447 H   0  0  0  0  0  0  0  0  0  0  0  0
  1 31  1  0  0  0  0
  1 32  1  0  0  0  0
  1 33  1  0  0  0  0
  2  1  1  0  0  0  0
  2 34  1  1  0  0  0
  3  2  1  0  0  0  0
  3 35  1  6  0  0  0
  4  3  1  0  0  0  0
  5  4  1  0  0  0  0
  5 36  1  0  0  0  0
  5 37  1  0  0  0  0
  6  5  1  0  0  0  0
  6 38  1  1  0  0  0
  7  6  1  0  0  0  0
  7 39  1  0  0  0  0
  7 40  1  0  0  0  0
  8  7  1  0  0  0  0
  9  8  2  0  0  0  0
  9 41  1  0  0  0  0
 10  9  1  0  0  0  0
 10 42  1  0  0  0  0
 11 10  2  0  0  0  0
 12 11  1  0  0  0  0
 13 11  1  0  0  0  0
 13 43  1  0  0  0  0
 14 13  2  0  0  0  0
 14  8  1  0  0  0  0
 14 44  1  0  0  0  0
 15  6  1  0  0  0  0
 15 45  1  0  0  0  0
 15 46  1  0  0  0  0
 16 15  1  0  0  0  0
 16 47  1  0  0  0  0
 17 16  1  0  0  0  0
 17  4  1  0  0  0  0
 18 17  2  0  0  0  0
 19 18  1  0  0  0  0
 19  2  1  0  0  0  0
 20 19  2  0  0  0  0
 21  3  1  0  0  0  0
 22 21  2  0  0  0  0
 22 48  1  0  0  0  0
 23 22  1  0  0  0  0
 23 49  1  0  0  0  0
 24 23  2  0  0  0  0
 25 24  1  0  0  0  0
 25 50  1  0  0  0  0
 26 25  2  0  0  0  0
 26 21  1  0  0  0  0
 26 51  1  0  0  0  0
 27 24  1  0  0  0  0
 28 27  1  0  0  0  0
 29 27  1  0  0  0  0
 30 27  1  0  0  0  0
M  END
>  <MOL Chiral Flag>
0

>  <energy>
-79.765340454549275

$$$$
> 556_AKC_j.actatropica.2010.10.011
>539.sdf
 OpenBabel10062215113D

 46 49  0  0  0  0  0  0  0  0999 V2000
    4.7124    0.9135    7.2037 Cl  0  0  0  0  0  0  0  0  0  0  0  0
    3.9497    1.1675    5.6452 C   0  0  0  0  0  0  0  0  0  0  0  0
    3.0219    0.2384    5.1602 C   0  0  0  0  0  0  0  0  0  0  0  0
    2.4242    0.4266    3.9040 C   0  0  0  0  0  0  0  0  0  0  0  0
    1.4513   -0.6006    3.3894 C   0  0  0  0  0  0  0  0  0  0  0  0
    1.1497   -0.3863    2.0615 O   0  0  0  0  0  0  0  0  0  0  0  0
   -0.0719   -0.1069    1.6766 N   0  0  0  0  0  0  0  0  0  0  0  0
   -0.5011   -0.3079    0.4734 C   0  0  0  0  0  0  0  0  0  0  0  0
    0.3160   -1.0004   -0.6390 C   0  0  2  0  0  0  0  0  0  0  0  0
    1.8478   -1.3423   -0.5179 C   0  0  0  0  0  0  0  0  0  0  0  0
    2.8237   -0.4370   -1.1600 N   0  0  0  0  0  0  0  0  0  0  0  0
    3.4757   -0.7227   -2.3032 C   0  0  0  0  0  0  0  0  0  0  0  0
    4.3721    0.2866   -2.5570 C   0  0  0  0  0  0  0  0  0  0  0  0
    4.2841    1.2048   -1.5754 N   0  0  0  0  0  0  0  0  0  0  0  0
    3.3286    0.7385   -0.7346 C   0  0  0  0  0  0  0  0  0  0  0  0
   -0.0362   -0.3372   -1.9747 C   0  0  0  0  0  0  0  0  0  0  0  0
   -1.5382   -0.4826   -2.2893 C   0  0  0  0  0  0  0  0  0  0  0  0
   -2.4558   -0.1473   -1.1298 C   0  0  0  0  0  0  0  0  0  0  0  0
   -1.9483   -0.0380    0.1903 C   0  0  0  0  0  0  0  0  0  0  0  0
   -2.8353    0.2755    1.2430 C   0  0  0  0  0  0  0  0  0  0  0  0
   -4.1961    0.4602    0.9960 C   0  0  0  0  0  0  0  0  0  0  0  0
   -4.6973    0.3351   -0.2966 C   0  0  0  0  0  0  0  0  0  0  0  0
   -3.8417    0.0298   -1.3589 C   0  0  0  0  0  0  0  0  0  0  0  0
   -4.5338   -0.1168   -2.9725 Cl  0  0  0  0  0  0  0  0  0  0  0  0
    2.7515    1.5696    3.1514 C   0  0  0  0  0  0  0  0  0  0  0  0
    3.6710    2.4971    3.6415 C   0  0  0  0  0  0  0  0  0  0  0  0
    4.2744    2.2951    4.8839 C   0  0  0  0  0  0  0  0  0  0  0  0
    2.7782   -0.6362    5.7518 H   0  0  0  0  0  0  0  0  0  0  0  0
    1.9171   -1.6063    3.4575 H   0  0  0  0  0  0  0  0  0  0  0  0
    0.5393   -0.5990    4.0300 H   0  0  0  0  0  0  0  0  0  0  0  0
   -0.1537   -2.0100   -0.6640 H   0  0  0  0  0  0  0  0  0  0  0  0
    1.9351   -2.2892   -1.0926 H   0  0  0  0  0  0  0  0  0  0  0  0
    2.1914   -1.6536    0.4840 H   0  0  0  0  0  0  0  0  0  0  0  0
    3.3228   -1.6108   -2.9026 H   0  0  0  0  0  0  0  0  0  0  0  0
    5.0579    0.3363   -3.3958 H   0  0  0  0  0  0  0  0  0  0  0  0
    3.0550    1.2358    0.1763 H   0  0  0  0  0  0  0  0  0  0  0  0
    0.2363    0.7405   -1.9096 H   0  0  0  0  0  0  0  0  0  0  0  0
    0.5251   -0.7866   -2.8218 H   0  0  0  0  0  0  0  0  0  0  0  0
   -1.7692   -1.5278   -2.5918 H   0  0  0  0  0  0  0  0  0  0  0  0
   -1.7462    0.1811   -3.1557 H   0  0  0  0  0  0  0  0  0  0  0  0
   -2.4811    0.3544    2.2626 H   0  0  0  0  0  0  0  0  0  0  0  0
   -4.8684    0.6892    1.8138 H   0  0  0  0  0  0  0  0  0  0  0  0
   -5.7573    0.4742   -0.4741 H   0  0  0  0  0  0  0  0  0  0  0  0
    2.2902    1.7512    2.1931 H   0  0  0  0  0  0  0  0  0  0  0  0
    3.9161    3.3727    3.0547 H   0  0  0  0  0  0  0  0  0  0  0  0
    4.9918    3.0151    5.2546 H   0  0  0  0  0  0  0  0  0  0  0  0
  2  1  1  0  0  0  0
  3  2  2  0  0  0  0
  3 28  1  0  0  0  0
  4  3  1  0  0  0  0
  5  4  1  0  0  0  0
  5 29  1  0  0  0  0
  5 30  1  0  0  0  0
  6  5  1  0  0  0  0
  7  6  1  0  0  0  0
  8  7  2  0  0  0  0
  9  8  1  0  0  0  0
  9 31  1  6  0  0  0
 10  9  1  0  0  0  0
 10 32  1  0  0  0  0
 10 33  1  0  0  0  0
 11 10  1  0  0  0  0
 12 11  1  0  0  0  0
 12 34  1  0  0  0  0
 13 12  2  0  0  0  0
 13 35  1  0  0  0  0
 14 13  1  0  0  0  0
 15 14  2  0  0  0  0
 15 11  1  0  0  0  0
 15 36  1  0  0  0  0
 16  9  1  0  0  0  0
 16 37  1  0  0  0  0
 16 38  1  0  0  0  0
 17 16  1  0  0  0  0
 17 39  1  0  0  0  0
 17 40  1  0  0  0  0
 18 17  1  0  0  0  0
 19 18  2  0  0  0  0
 19  8  1  0  0  0  0
 20 19  1  0  0  0  0
 20 41  1  0  0  0  0
 21 20  2  0  0  0  0
 21 42  1  0  0  0  0
 22 21  1  0  0  0  0
 22 43  1  0  0  0  0
 23 22  2  0  0  0  0
 23 18  1  0  0  0  0
 24 23  1  0  0  0  0
 25  4  2  0  0  0  0
 25 44  1  0  0  0  0
 26 25  1  0  0  0  0
 26 45  1  0  0  0  0
 27 26  2  0  0  0  0
 27  2  1  0  0  0  0
 27 46  1  0  0  0  0
M  END
>  <MOL Chiral Flag>
0

>  <energy>
77.810599006638796

$$$$
> 557_AKC_md9112369
>540.sdf
 OpenBabel10062215123D

 60 62  0  0  0  0  0  0  0  0999 V2000
    4.2788   -0.9951   -0.8495 C   0  0  0  0  0  0  0  0  0  0  0  0
    4.0445   -0.8399    0.6594 C   0  0  0  0  0  0  0  0  0  0  0  0
    5.3869   -0.4978    1.3312 C   0  0  0  0  0  0  0  0  0  0  0  0
    2.9006    0.1592    1.0783 C   0  0  1  0  0  0  0  0  0  0  0  0
    2.7282    0.0752    2.4786 O   0  0  0  0  0  0  0  0  0  0  0  0
    3.0378    1.6569    0.6963 C   0  0  0  0  0  0  0  0  0  0  0  0
    2.3771    1.7941   -0.6581 C   0  0  0  0  0  0  0  0  0  0  0  0
    1.1266    0.8760   -0.5971 C   0  0  2  0  0  0  0  0  0  0  0  0
    0.9139    0.3442   -2.0411 C   0  0  0  0  0  0  0  0  0  0  0  0
   -0.1206    1.6437   -0.0506 C   0  0  0  0  0  0  0  0  0  0  0  0
   -1.5192    0.9134   -0.0603 C   0  0  2  0  0  0  0  0  0  0  0  0
   -1.8130    0.5507   -1.3896 O   0  0  0  0  0  0  0  0  0  0  0  0
   -2.6788    1.8302    0.3998 C   0  0  0  0  0  0  0  0  0  0  0  0
   -2.5146    3.0879    0.8590 C   0  0  0  0  0  0  0  0  0  0  0  0
   -4.0746    1.2506    0.3137 C   0  0  0  0  0  0  0  0  0  0  0  0
   -4.1450   -0.0254    1.1516 C   0  0  0  0  0  0  0  0  0  0  0  0
   -3.0362   -1.0219    0.7470 C   0  0  1  0  0  0  0  0  0  0  0  0
   -3.2822   -1.4566   -0.5499 O   0  0  0  0  0  0  0  0  0  0  0  0
   -3.5533   -2.7392   -0.9120 C   0  0  0  0  0  0  0  0  0  0  0  0
   -3.7540   -3.0609   -2.3572 C   0  0  0  0  0  0  0  0  0  0  0  0
   -3.6316   -3.6286   -0.0761 O   0  0  0  0  0  0  0  0  0  0  0  0
   -1.5882   -0.3943    0.8497 C   0  0  2  0  0  0  0  0  0  0  0  0
   -1.3139   -0.0451    2.3495 C   0  0  0  0  0  0  0  0  0  0  0  0
   -0.5713   -1.5081    0.4057 C   0  0  0  0  0  0  0  0  0  0  0  0
    0.8515   -1.2275    0.8149 C   0  0  0  0  0  0  0  0  0  0  0  0
    1.5750   -0.1676    0.4100 C   0  0  0  0  0  0  0  0  0  0  0  0
    3.3510   -1.3210   -1.3551 H   0  0  0  0  0  0  0  0  0  0  0  0
    4.6737   -0.0652   -1.3020 H   0  0  0  0  0  0  0  0  0  0  0  0
    5.0355   -1.7881   -1.0317 H   0  0  0  0  0  0  0  0  0  0  0  0
    3.7417   -1.8452    1.0288 H   0  0  0  0  0  0  0  0  0  0  0  0
    5.2967   -0.4955    2.4362 H   0  0  0  0  0  0  0  0  0  0  0  0
    5.7599    0.4919    0.9949 H   0  0  0  0  0  0  0  0  0  0  0  0
    6.1509   -1.2621    1.0723 H   0  0  0  0  0  0  0  0  0  0  0  0
    3.4089    0.6460    2.9219 H   0  0  0  0  0  0  0  0  0  0  0  0
    4.0581    2.0834    0.7841 H   0  0  0  0  0  0  0  0  0  0  0  0
    2.3883    2.2444    1.3847 H   0  0  0  0  0  0  0  0  0  0  0  0
    2.1740    2.8365   -0.9858 H   0  0  0  0  0  0  0  0  0  0  0  0
    3.1126    1.3940   -1.3778 H   0  0  0  0  0  0  0  0  0  0  0  0
    0.6433    1.1838   -2.7170 H   0  0  0  0  0  0  0  0  0  0  0  0
    1.8328   -0.1203   -2.4479 H   0  0  0  0  0  0  0  0  0  0  0  0
    0.1471   -0.4361   -2.1332 H   0  0  0  0  0  0  0  0  0  0  0  0
    0.1058    2.0092    0.9723 H   0  0  0  0  0  0  0  0  0  0  0  0
   -0.2327    2.5424   -0.6972 H   0  0  0  0  0  0  0  0  0  0  0  0
   -1.8911    1.3793   -1.9335 H   0  0  0  0  0  0  0  0  0  0  0  0
   -3.3737    3.6771    1.1644 H   0  0  0  0  0  0  0  0  0  0  0  0
   -1.5437    3.5566    0.9435 H   0  0  0  0  0  0  0  0  0  0  0  0
   -4.8556    1.9619    0.6613 H   0  0  0  0  0  0  0  0  0  0  0  0
   -4.2949    1.0080   -0.7481 H   0  0  0  0  0  0  0  0  0  0  0  0
   -5.1430   -0.4998    1.0304 H   0  0  0  0  0  0  0  0  0  0  0  0
   -4.0513    0.2406    2.2238 H   0  0  0  0  0  0  0  0  0  0  0  0
   -3.1028   -1.8769    1.4576 H   0  0  0  0  0  0  0  0  0  0  0  0
   -3.9662   -4.1428   -2.4952 H   0  0  0  0  0  0  0  0  0  0  0  0
   -4.6079   -2.4726   -2.7526 H   0  0  0  0  0  0  0  0  0  0  0  0
   -2.8359   -2.7991   -2.9234 H   0  0  0  0  0  0  0  0  0  0  0  0
   -0.2944    0.3582    2.5071 H   0  0  0  0  0  0  0  0  0  0  0  0
   -1.9987    0.7279    2.7466 H   0  0  0  0  0  0  0  0  0  0  0  0
   -1.4129   -0.9523    2.9835 H   0  0  0  0  0  0  0  0  0  0  0  0
   -0.6621   -1.7537   -0.6674 H   0  0  0  0  0  0  0  0  0  0  0  0
   -0.8376   -2.4424    0.9484 H   0  0  0  0  0  0  0  0  0  0  0  0
    1.2799   -1.8871    1.5656 H   0  0  0  0  0  0  0  0  0  0  0  0
  1 27  1  0  0  0  0
  1 28  1  0  0  0  0
  1 29  1  0  0  0  0
  2  1  1  0  0  0  0
  2 30  1  0  0  0  0
  3  2  1  0  0  0  0
  3 31  1  0  0  0  0
  3 32  1  0  0  0  0
  3 33  1  0  0  0  0
  4  2  1  6  0  0  0
  5  4  1  0  0  0  0
  5 34  1  0  0  0  0
  6  4  1  0  0  0  0
  6 35  1  0  0  0  0
  6 36  1  0  0  0  0
  7  6  1  0  0  0  0
  7 37  1  0  0  0  0
  7 38  1  0  0  0  0
  8  7  1  0  0  0  0
  8  9  1  6  0  0  0
  9 39  1  0  0  0  0
  9 40  1  0  0  0  0
  9 41  1  0  0  0  0
 10  8  1  0  0  0  0
 10 42  1  0  0  0  0
 10 43  1  0  0  0  0
 11 10  1  0  0  0  0
 11 12  1  6  0  0  0
 12 44  1  0  0  0  0
 13 11  1  0  0  0  0
 14 13  2  0  0  0  0
 14 45  1  0  0  0  0
 14 46  1  0  0  0  0
 15 13  1  0  0  0  0
 15 47  1  0  0  0  0
 15 48  1  0  0  0  0
 16 15  1  0  0  0  0
 16 49  1  0  0  0  0
 16 50  1  0  0  0  0
 17 16  1  0  0  0  0
 17 51  1  1  0  0  0
 18 17  1  0  0  0  0
 19 18  1  0  0  0  0
 20 19  1  0  0  0  0
 20 52  1  0  0  0  0
 20 53  1  0  0  0  0
 20 54  1  0  0  0  0
 21 19  2  0  0  0  0
 22 17  1  0  0  0  0
 22 11  1  0  0  0  0
 22 23  1  1  0  0  0
 23 55  1  0  0  0  0
 23 56  1  0  0  0  0
 23 57  1  0  0  0  0
 24 22  1  0  0  0  0
 24 58  1  0  0  0  0
 24 59  1  0  0  0  0
 25 24  1  0  0  0  0
 25 60  1  0  0  0  0
 26 25  2  0  0  0  0
 26  4  1  0  0  0  0
 26  8  1  0  0  0  0
M  END
>  <MOL Chiral Flag>
0

>  <energy>
58.364285293620455

$$$$
> 558_AKC_0971-5916.91005
>541.sdf
 OpenBabel10062215123D

 35 38  0  0  0  0  0  0  0  0999 V2000
   10.5803   -3.6900    1.9479 C   0  0  0  0  0  0  0  0  0  0  0  0
    9.6418   -3.0926    1.1252 O   0  0  0  0  0  0  0  0  0  0  0  0
    9.1633   -3.6478   -0.0195 C   0  0  0  0  0  0  0  0  0  0  0  0
    9.7066   -4.6303   -0.5077 O   0  0  0  0  0  0  0  0  0  0  0  0
    7.8763   -3.1629   -0.5733 C   0  0  0  0  0  0  0  0  0  0  0  0
    7.2115   -3.8669   -1.5111 C   0  0  0  0  0  0  0  0  0  0  0  0
    5.9264   -3.5207   -1.7757 O   0  0  0  0  0  0  0  0  0  0  0  0
    5.1208   -3.2281   -0.6787 C   0  0  2  0  0  0  0  0  0  0  0  0
    3.8175   -2.8962   -1.0804 O   0  0  0  0  0  0  0  0  0  0  0  0
    3.6167   -1.5312   -0.7922 C   0  0  1  0  0  0  0  0  0  0  0  0
    2.7936   -1.2818    0.4477 C   0  0  0  0  0  0  0  0  0  0  0  0
    1.6391   -1.8611    0.8333 C   0  0  0  0  0  0  0  0  0  0  0  0
    0.9501   -2.9546    0.0687 C   0  0  0  0  0  0  0  0  0  0  0  0
    3.4827   -0.2562    1.1993 C   0  0  0  0  0  0  0  0  0  0  0  0
    3.0676    0.2845    2.2113 O   0  0  0  0  0  0  0  0  0  0  0  0
    4.6758    0.0138    0.6606 O   0  0  0  0  0  0  0  0  0  0  0  0
    4.9586   -0.8917   -0.3481 C   0  0  2  0  0  0  0  0  0  0  0  0
    5.9021   -0.3554   -1.3589 C   0  0  0  0  0  0  0  0  0  0  0  0
    7.1579   -0.8813   -1.1931 C   0  0  0  0  0  0  0  0  0  0  0  0
    7.2173   -1.8837   -0.0768 C   0  0  1  0  0  0  0  0  0  0  0  0
    5.7060   -2.0978    0.2023 C   0  0  2  0  0  0  0  0  0  0  0  0
   10.9143   -4.6826    1.5747 H   0  0  0  0  0  0  0  0  0  0  0  0
   10.1259   -3.8471    2.9495 H   0  0  0  0  0  0  0  0  0  0  0  0
   11.4612   -3.0272    2.0539 H   0  0  0  0  0  0  0  0  0  0  0  0
    7.6314   -4.7570   -1.9681 H   0  0  0  0  0  0  0  0  0  0  0  0
    5.0768   -4.1497   -0.0544 H   0  0  0  0  0  0  0  0  0  0  0  0
    3.1392   -1.0013   -1.6449 H   0  0  0  0  0  0  0  0  0  0  0  0
    1.1905   -1.5546    1.7739 H   0  0  0  0  0  0  0  0  0  0  0  0
    0.9276   -3.8660    0.7047 H   0  0  0  0  0  0  0  0  0  0  0  0
    1.4454   -3.2103   -0.8860 H   0  0  0  0  0  0  0  0  0  0  0  0
   -0.0913   -2.6483   -0.1525 H   0  0  0  0  0  0  0  0  0  0  0  0
    5.6695    0.4257   -2.0712 H   0  0  0  0  0  0  0  0  0  0  0  0
    8.0143   -0.5557   -1.7702 H   0  0  0  0  0  0  0  0  0  0  0  0
    7.7619   -1.3898    0.7558 H   0  0  0  0  0  0  0  0  0  0  0  0
    5.4278   -2.3410    1.2528 H   0  0  0  0  0  0  0  0  0  0  0  0
  1 22  1  0  0  0  0
  1 23  1  0  0  0  0
  1 24  1  0  0  0  0
  2  1  1  0  0  0  0
  3  2  1  0  0  0  0
  4  3  2  0  0  0  0
  5  3  1  0  0  0  0
  6  5  2  0  0  0  0
  6 25  1  0  0  0  0
  7  6  1  0  0  0  0
  8  7  1  0  0  0  0
  8 26  1  1  0  0  0
  9  8  1  0  0  0  0
 10  9  1  0  0  0  0
 10 27  1  6  0  0  0
 11 10  1  0  0  0  0
 12 11  2  0  0  0  0
 12 28  1  0  0  0  0
 13 12  1  0  0  0  0
 13 29  1  0  0  0  0
 13 30  1  0  0  0  0
 13 31  1  0  0  0  0
 14 11  1  0  0  0  0
 15 14  2  0  0  0  0
 16 14  1  0  0  0  0
 17 16  1  1  0  0  0
 17 10  1  0  0  0  0
 18 17  1  0  0  0  0
 18 32  1  0  0  0  0
 19 18  2  0  0  0  0
 19 33  1  0  0  0  0
 20 19  1  0  0  0  0
 20  5  1  0  0  0  0
 20 34  1  1  0  0  0
 21 20  1  0  0  0  0
 21  8  1  0  0  0  0
 21 17  1  0  0  0  0
 21 35  1  1  0  0  0
M  END
>  <MOL Chiral Flag>
0

>  <energy>
27.312585781696264

$$$$
> 559_AKC_s00436-010-2073-x
>542.sdf
 OpenBabel10062215123D

 33 34  0  0  0  0  0  0  0  0999 V2000
    0.0377    1.9465   -2.2733 C   0  0  0  0  0  0  0  0  0  0  0  0
   -0.2227    3.3878   -0.9967 Se  0  0  0  0  0  0  0  0  0  0  0  0
   -0.1558    2.2126    0.5556 C   0  0  0  0  0  0  0  0  0  0  0  0
   -1.3655    1.5349    0.8999 N   0  0  0  0  0  0  0  0  0  0  0  0
   -1.5869    0.7884    2.0205 C   0  0  0  0  0  0  0  0  0  0  0  0
   -0.7674    0.7846    2.9317 O   0  0  0  0  0  0  0  0  0  0  0  0
   -2.8383   -0.0293    2.1504 C   0  0  0  0  0  0  0  0  0  0  0  0
   -3.5688   -0.4273    1.0084 C   0  0  0  0  0  0  0  0  0  0  0  0
   -4.7101   -1.2150    1.1417 C   0  0  0  0  0  0  0  0  0  0  0  0
   -5.1333   -1.5987    2.4108 C   0  0  0  0  0  0  0  0  0  0  0  0
   -4.4273   -1.2157    3.5085 N   0  0  0  0  0  0  0  0  0  0  0  0
   -3.2993   -0.4581    3.4086 C   0  0  0  0  0  0  0  0  0  0  0  0
    0.9548    2.0111    1.2034 N   0  0  0  0  0  0  0  0  0  0  0  0
    2.2127    2.4430    0.6735 C   0  0  0  0  0  0  0  0  0  0  0  0
    2.4602    2.2298   -0.5050 O   0  0  0  0  0  0  0  0  0  0  0  0
    3.2450    3.1233    1.4952 C   0  0  0  0  0  0  0  0  0  0  0  0
    3.0693    3.3816    2.8630 C   0  0  0  0  0  0  0  0  0  0  0  0
    4.0353    4.0438    3.5610 N   0  0  0  0  0  0  0  0  0  0  0  0
    5.1837    4.4724    2.9674 C   0  0  0  0  0  0  0  0  0  0  0  0
    5.4011    4.2333    1.6127 C   0  0  0  0  0  0  0  0  0  0  0  0
    4.4336    3.5575    0.8778 C   0  0  0  0  0  0  0  0  0  0  0  0
    0.9008    2.2020   -2.9215 H   0  0  0  0  0  0  0  0  0  0  0  0
   -0.8878    1.8123   -2.8674 H   0  0  0  0  0  0  0  0  0  0  0  0
    0.2752    0.9964   -1.7527 H   0  0  0  0  0  0  0  0  0  0  0  0
   -2.1232    1.6153    0.2086 H   0  0  0  0  0  0  0  0  0  0  0  0
   -3.2505   -0.1645    0.0109 H   0  0  0  0  0  0  0  0  0  0  0  0
   -5.2584   -1.5311    0.2623 H   0  0  0  0  0  0  0  0  0  0  0  0
   -6.0202   -2.2093    2.5217 H   0  0  0  0  0  0  0  0  0  0  0  0
   -2.7731   -0.1781    4.3114 H   0  0  0  0  0  0  0  0  0  0  0  0
    2.1689    3.0673    3.3729 H   0  0  0  0  0  0  0  0  0  0  0  0
    5.9291    5.0027    3.5449 H   0  0  0  0  0  0  0  0  0  0  0  0
    6.3095    4.5733    1.1304 H   0  0  0  0  0  0  0  0  0  0  0  0
    4.6070    3.3832   -0.1776 H   0  0  0  0  0  0  0  0  0  0  0  0
  1 22  1  0  0  0  0
  1 23  1  0  0  0  0
  1 24  1  0  0  0  0
  2  1  1  0  0  0  0
  3  2  1  0  0  0  0
  4  3  1  0  0  0  0
  4 25  1  0  0  0  0
  5  4  1  0  0  0  0
  6  5  2  0  0  0  0
  7  5  1  0  0  0  0
  8  7  2  0  0  0  0
  8 26  1  0  0  0  0
  9  8  1  0  0  0  0
  9 27  1  0  0  0  0
 10  9  2  0  0  0  0
 10 28  1  0  0  0  0
 11 10  1  0  0  0  0
 12 11  2  0  0  0  0
 12  7  1  0  0  0  0
 12 29  1  0  0  0  0
 13  3  2  0  0  0  0
 14 13  1  0  0  0  0
 15 14  2  0  0  0  0
 16 14  1  0  0  0  0
 17 16  2  0  0  0  0
 17 30  1  0  0  0  0
 18 17  1  0  0  0  0
 19 18  2  0  0  0  0
 19 31  1  0  0  0  0
 20 19  1  0  0  0  0
 20 32  1  0  0  0  0
 21 20  2  0  0  0  0
 21 16  1  0  0  0  0
 21 33  1  0  0  0  0
M  END
>  <MOL Chiral Flag>
0

>  <energy>
23.597600462794652

$$$$
> 560_AKC_AAC.00985-10
>543.sdf
 OpenBabel10062215133D

 62 64  0  0  0  0  0  0  0  0999 V2000
   -1.0717   -4.3273    4.0512 C   0  0  0  0  0  0  0  0  0  0  0  0
   -2.0916   -3.8937    3.2299 O   0  0  0  0  0  0  0  0  0  0  0  0
   -1.9497   -2.8785    2.3436 C   0  0  0  0  0  0  0  0  0  0  0  0
   -3.0461   -2.4513    1.6136 C   0  0  0  0  0  0  0  0  0  0  0  0
   -2.9257   -1.3779    0.7208 C   0  0  0  0  0  0  0  0  0  0  0  0
   -4.1688   -0.9681   -0.0354 C   0  0  0  0  0  0  0  0  0  0  0  0
   -1.6528   -0.7314    0.5680 C   0  0  0  0  0  0  0  0  0  0  0  0
   -1.4546    0.3851   -0.2966 C   0  0  0  0  0  0  0  0  0  0  0  0
   -2.5158    0.9191   -0.9666 O   0  0  0  0  0  0  0  0  0  0  0  0
   -2.5051    1.6084   -2.1347 C   0  0  0  0  0  0  0  0  0  0  0  0
   -1.8332    1.1151   -3.2647 C   0  0  0  0  0  0  0  0  0  0  0  0
   -1.8523    1.8390   -4.4604 C   0  0  0  0  0  0  0  0  0  0  0  0
   -2.5286    3.0605   -4.5323 C   0  0  0  0  0  0  0  0  0  0  0  0
   -3.2008    3.5670   -3.4079 C   0  0  0  0  0  0  0  0  0  0  0  0
   -3.1947    2.8244   -2.2125 C   0  0  0  0  0  0  0  0  0  0  0  0
   -3.9070    4.8975   -3.5011 C   0  0  0  0  0  0  0  0  0  0  0  0
   -4.8854    4.8367   -4.4761 F   0  0  0  0  0  0  0  0  0  0  0  0
   -2.9918    5.8776   -3.8416 F   0  0  0  0  0  0  0  0  0  0  0  0
   -4.5005    5.2520   -2.3015 F   0  0  0  0  0  0  0  0  0  0  0  0
   -0.1761    0.9791   -0.3906 C   0  0  0  0  0  0  0  0  0  0  0  0
   -0.0127    2.0737   -1.1856 O   0  0  0  0  0  0  0  0  0  0  0  0
    1.1460    2.8044   -1.3459 C   0  0  0  0  0  0  0  0  0  0  0  0
    0.8933    0.4601    0.3566 C   0  0  0  0  0  0  0  0  0  0  0  0
    0.7436   -0.6413    1.2144 C   0  0  0  0  0  0  0  0  0  0  0  0
    1.9244   -1.0746    1.9388 N   0  0  0  0  0  0  0  0  0  0  0  0
    2.1586   -2.3915    2.5390 C   0  0  1  0  0  0  0  0  0  0  0  0
    2.5724   -3.3837    1.4527 C   0  0  0  0  0  0  0  0  0  0  0  0
    3.1128   -2.3145    3.7736 C   0  0  0  0  0  0  0  0  0  0  0  0
    4.4496   -1.5320    3.7010 C   0  0  0  0  0  0  0  0  0  0  0  0
    5.6430   -2.1655    2.9640 C   0  0  0  0  0  0  0  0  0  0  0  0
    6.1364   -3.3703    3.6373 N   0  3  0  0  0  0  0  0  0  0  0  0
   -0.5473   -1.2347    1.3244 C   0  0  0  0  0  0  0  0  0  0  0  0
   -0.7514   -2.2704    2.1745 N   0  0  0  0  0  0  0  0  0  0  0  0
   -1.4452   -5.1503    4.6935 H   0  0  0  0  0  0  0  0  0  0  0  0
   -0.7286   -3.4957    4.7050 H   0  0  0  0  0  0  0  0  0  0  0  0
   -0.2215   -4.7050    3.4446 H   0  0  0  0  0  0  0  0  0  0  0  0
   -3.9981   -2.9497    1.7529 H   0  0  0  0  0  0  0  0  0  0  0  0
   -5.0414   -1.6071    0.2182 H   0  0  0  0  0  0  0  0  0  0  0  0
   -3.9998   -1.0720   -1.1284 H   0  0  0  0  0  0  0  0  0  0  0  0
   -4.4511    0.0742    0.2199 H   0  0  0  0  0  0  0  0  0  0  0  0
   -1.3082    0.1696   -3.2184 H   0  0  0  0  0  0  0  0  0  0  0  0
   -1.3406    1.4548   -5.3334 H   0  0  0  0  0  0  0  0  0  0  0  0
   -2.5288    3.6154   -5.4628 H   0  0  0  0  0  0  0  0  0  0  0  0
   -3.7075    3.1920   -1.3330 H   0  0  0  0  0  0  0  0  0  0  0  0
    0.9502    3.6316   -2.0593 H   0  0  0  0  0  0  0  0  0  0  0  0
    1.9532    2.1658   -1.7623 H   0  0  0  0  0  0  0  0  0  0  0  0
    1.4582    3.2449   -0.3752 H   0  0  0  0  0  0  0  0  0  0  0  0
    1.8670    0.9245    0.2811 H   0  0  0  0  0  0  0  0  0  0  0  0
    2.7819   -0.5539    1.7082 H   0  0  0  0  0  0  0  0  0  0  0  0
    1.2539   -2.8106    2.9884 H   0  0  0  0  0  0  0  0  0  0  0  0
    3.5004   -3.0726    0.9398 H   0  0  0  0  0  0  0  0  0  0  0  0
    1.7601   -3.4412    0.6930 H   0  0  0  0  0  0  0  0  0  0  0  0
    2.6983   -4.3987    1.8853 H   0  0  0  0  0  0  0  0  0  0  0  0
    3.2881   -3.3343    4.1817 H   0  0  0  0  0  0  0  0  0  0  0  0
    2.5246   -1.7674    4.5425 H   0  0  0  0  0  0  0  0  0  0  0  0
    4.2621   -0.5196    3.2945 H   0  0  0  0  0  0  0  0  0  0  0  0
    4.7905   -1.3753    4.7485 H   0  0  0  0  0  0  0  0  0  0  0  0
    6.4636   -1.4116    2.9809 H   0  0  0  0  0  0  0  0  0  0  0  0
    5.4138   -2.3757    1.9016 H   0  0  0  0  0  0  0  0  0  0  0  0
    5.4475   -4.1498    3.5520 H   0  0  0  0  0  0  0  0  0  0  0  0
    7.0378   -3.6634    3.1940 H   0  0  0  0  0  0  0  0  0  0  0  0
    6.3270   -3.1710    4.6475 H   0  0  0  0  0  0  0  0  0  0  0  0
  1 34  1  0  0  0  0
  1 35  1  0  0  0  0
  1 36  1  0  0  0  0
  2  1  1  0  0  0  0
  3  2  1  0  0  0  0
  4  3  2  0  0  0  0
  4 37  1  0  0  0  0
  5  4  1  0  0  0  0
  6  5  1  0  0  0  0
  6 38  1  0  0  0  0
  6 39  1  0  0  0  0
  6 40  1  0  0  0  0
  7  5  2  0  0  0  0
  8  7  1  0  0  0  0
  9  8  1  0  0  0  0
 10  9  1  0  0  0  0
 11 10  2  0  0  0  0
 11 41  1  0  0  0  0
 12 11  1  0  0  0  0
 12 42  1  0  0  0  0
 13 12  2  0  0  0  0
 13 43  1  0  0  0  0
 14 13  1  0  0  0  0
 15 14  2  0  0  0  0
 15 10  1  0  0  0  0
 15 44  1  0  0  0  0
 16 14  1  0  0  0  0
 17 16  1  0  0  0  0
 18 16  1  0  0  0  0
 19 16  1  0  0  0  0
 20  8  2  0  0  0  0
 21 20  1  0  0  0  0
 22 21  1  0  0  0  0
 22 45  1  0  0  0  0
 22 46  1  0  0  0  0
 22 47  1  0  0  0  0
 23 20  1  0  0  0  0
 23 48  1  0  0  0  0
 24 23  2  0  0  0  0
 25 24  1  0  0  0  0
 25 49  1  0  0  0  0
 26 25  1  0  0  0  0
 26 50  1  1  0  0  0
 27 26  1  0  0  0  0
 27 51  1  0  0  0  0
 27 52  1  0  0  0  0
 27 53  1  0  0  0  0
 28 26  1  0  0  0  0
 28 54  1  0  0  0  0
 28 55  1  0  0  0  0
 29 28  1  0  0  0  0
 29 56  1  0  0  0  0
 29 57  1  0  0  0  0
 30 29  1  0  0  0  0
 30 58  1  0  0  0  0
 30 59  1  0  0  0  0
 31 30  1  0  0  0  0
 31 60  1  0  0  0  0
 31 61  1  0  0  0  0
 31 62  1  0  0  0  0
 32 24  1  0  0  0  0
 32  7  1  0  0  0  0
 33 32  2  0  0  0  0
 33  3  1  0  0  0  0
M  CHG  1  31   1
M  END
>  <MOL Chiral Flag>
0

>  <energy>
171.3788851979005

$$$$
> 561_AKC_AAC.00327-10
>544.sdf
 OpenBabel10062215133D

 88 91  0  0  0  0  0  0  0  0999 V2000
   -3.7152   -5.0537   -0.8070 C   0  0  0  0  0  0  0  0  0  0  0  0
   -3.7354   -3.5328   -1.0333 C   0  0  0  0  0  0  0  0  0  0  0  0
   -3.4532   -3.2616   -2.5199 C   0  0  0  0  0  0  0  0  0  0  0  0
   -2.7074   -2.8653   -0.0817 C   0  0  0  0  0  0  0  0  0  0  0  0
   -2.7809   -1.3190    0.0624 C   0  0  2  0  0  0  0  0  0  0  0  0
   -2.4574   -0.6504   -1.1870 N   0  0  0  0  0  0  0  0  0  0  0  0
   -3.3022    0.2152   -1.8093 C   0  0  0  0  0  0  0  0  0  0  0  0
   -4.4303    0.3955   -1.3775 O   0  0  0  0  0  0  0  0  0  0  0  0
   -2.8336    0.9153   -2.8795 O   0  0  0  0  0  0  0  0  0  0  0  0
   -3.3707    1.9958   -3.5790 C   0  0  0  0  0  0  0  0  0  0  0  0
   -2.4338    3.1888   -3.3428 C   0  0  0  0  0  0  0  0  0  0  0  0
   -4.7999    2.4069   -3.1595 C   0  0  0  0  0  0  0  0  0  0  0  0
   -3.3758    1.6285   -5.0687 C   0  0  0  0  0  0  0  0  0  0  0  0
   -1.7781   -0.8153    1.1018 C   0  0  0  0  0  0  0  0  0  0  0  0
   -0.9973   -1.6109    1.6093 O   0  0  0  0  0  0  0  0  0  0  0  0
   -1.7122    0.5104    1.4611 N   0  0  0  0  0  0  0  0  0  0  0  0
   -2.6565    1.5186    1.0353 C   0  0  0  0  0  0  0  0  0  0  0  0
   -2.5024    2.5846    2.1177 C   0  0  0  0  0  0  0  0  0  0  0  0
   -1.0136    2.5361    2.3940 C   0  0  0  0  0  0  0  0  0  0  0  0
   -0.7275    1.0256    2.3972 C   0  0  2  0  0  0  0  0  0  0  0  0
    0.7051    0.8069    1.9550 C   0  0  0  0  0  0  0  0  0  0  0  0
    1.6104    1.1099    2.7207 O   0  0  0  0  0  0  0  0  0  0  0  0
    0.9639    0.4364    0.6603 N   0  0  0  0  0  0  0  0  0  0  0  0
    2.1115    0.9626   -0.0241 C   0  0  1  0  0  0  0  0  0  0  0  0
    1.9199   -0.5690    0.3001 C   0  0  1  0  0  0  0  0  0  0  0  0
    3.0710   -0.9434    1.1934 C   0  0  0  0  0  0  0  0  0  0  0  0
    4.2063   -0.8886    0.7393 O   0  0  0  0  0  0  0  0  0  0  0  0
    2.8585   -1.3231    2.4813 O   0  0  0  0  0  0  0  0  0  0  0  0
    3.8672   -1.4274    3.4273 C   0  0  0  0  0  0  0  0  0  0  0  0
    3.5751   -0.4672    4.5445 C   0  0  0  0  0  0  0  0  0  0  0  0
    4.4255    0.6253    4.7909 C   0  0  0  0  0  0  0  0  0  0  0  0
    4.1292    1.5277    5.8170 C   0  0  0  0  0  0  0  0  0  0  0  0
    2.9912    1.3416    6.6066 C   0  0  0  0  0  0  0  0  0  0  0  0
    2.1452    0.2544    6.3698 C   0  0  0  0  0  0  0  0  0  0  0  0
    2.4323   -0.6460    5.3398 C   0  0  0  0  0  0  0  0  0  0  0  0
    1.7518    1.5075   -1.3748 C   0  0  0  0  0  0  0  0  0  0  0  0
    0.5917    1.5469   -1.7632 O   0  0  0  0  0  0  0  0  0  0  0  0
    2.7637    2.0165   -2.1229 O   0  0  0  0  0  0  0  0  0  0  0  0
    2.6479    2.7866   -3.2643 C   0  0  0  0  0  0  0  0  0  0  0  0
    1.9973    2.0537   -4.4057 C   0  0  0  0  0  0  0  0  0  0  0  0
    2.4950    0.8111   -4.8296 C   0  0  0  0  0  0  0  0  0  0  0  0
    1.8971    0.1463   -5.9055 C   0  0  0  0  0  0  0  0  0  0  0  0
    0.8087    0.7219   -6.5679 C   0  0  0  0  0  0  0  0  0  0  0  0
    0.3161    1.9624   -6.1555 C   0  0  0  0  0  0  0  0  0  0  0  0
    0.9057    2.6260   -5.0770 C   0  0  0  0  0  0  0  0  0  0  0  0
   -4.4676   -5.5529   -1.4549 H   0  0  0  0  0  0  0  0  0  0  0  0
   -2.7121   -5.4748   -1.0354 H   0  0  0  0  0  0  0  0  0  0  0  0
   -3.9691   -5.2923    0.2481 H   0  0  0  0  0  0  0  0  0  0  0  0
   -4.7569   -3.1727   -0.7807 H   0  0  0  0  0  0  0  0  0  0  0  0
   -2.4318   -3.6055   -2.7920 H   0  0  0  0  0  0  0  0  0  0  0  0
   -3.5550   -2.1961   -2.7782 H   0  0  0  0  0  0  0  0  0  0  0  0
   -4.1879   -3.8050   -3.1517 H   0  0  0  0  0  0  0  0  0  0  0  0
   -1.6804   -3.1819   -0.3701 H   0  0  0  0  0  0  0  0  0  0  0  0
   -2.9110   -3.2641    0.9384 H   0  0  0  0  0  0  0  0  0  0  0  0
   -3.8059   -1.0749    0.4164 H   0  0  0  0  0  0  0  0  0  0  0  0
   -1.5127   -0.7831   -1.5796 H   0  0  0  0  0  0  0  0  0  0  0  0
   -1.4003    2.9244   -3.6356 H   0  0  0  0  0  0  0  0  0  0  0  0
   -2.7557    4.0794   -3.9238 H   0  0  0  0  0  0  0  0  0  0  0  0
   -2.4172    3.4549   -2.2631 H   0  0  0  0  0  0  0  0  0  0  0  0
   -5.5154    1.5735   -3.3259 H   0  0  0  0  0  0  0  0  0  0  0  0
   -5.1452    3.2732   -3.7645 H   0  0  0  0  0  0  0  0  0  0  0  0
   -4.8299    2.7182   -2.0932 H   0  0  0  0  0  0  0  0  0  0  0  0
   -2.3545    1.3461   -5.3981 H   0  0  0  0  0  0  0  0  0  0  0  0
   -4.0452    0.7607   -5.2490 H   0  0  0  0  0  0  0  0  0  0  0  0
   -3.7227    2.4836   -5.6884 H   0  0  0  0  0  0  0  0  0  0  0  0
   -3.7127    1.1769    1.0376 H   0  0  0  0  0  0  0  0  0  0  0  0
   -2.3425    1.9071    0.0425 H   0  0  0  0  0  0  0  0  0  0  0  0
   -2.9040    3.5822    1.8382 H   0  0  0  0  0  0  0  0  0  0  0  0
   -3.0208    2.2313    3.0378 H   0  0  0  0  0  0  0  0  0  0  0  0
   -0.6642    3.0798    3.2969 H   0  0  0  0  0  0  0  0  0  0  0  0
   -0.5326    2.9986    1.4986 H   0  0  0  0  0  0  0  0  0  0  0  0
   -0.9266    0.5482    3.3827 H   0  0  0  0  0  0  0  0  0  0  0  0
    2.6573    1.6643    0.6458 H   0  0  0  0  0  0  0  0  0  0  0  0
    1.6338   -1.1900   -0.5748 H   0  0  0  0  0  0  0  0  0  0  0  0
    3.9158   -2.4646    3.8200 H   0  0  0  0  0  0  0  0  0  0  0  0
    4.8643   -1.1969    2.9905 H   0  0  0  0  0  0  0  0  0  0  0  0
    5.3067    0.7856    4.1818 H   0  0  0  0  0  0  0  0  0  0  0  0
    4.7805    2.3732    5.9980 H   0  0  0  0  0  0  0  0  0  0  0  0
    2.7640    2.0408    7.4007 H   0  0  0  0  0  0  0  0  0  0  0  0
    1.2648    0.1109    6.9823 H   0  0  0  0  0  0  0  0  0  0  0  0
    1.7688   -1.4828    5.1602 H   0  0  0  0  0  0  0  0  0  0  0  0
    3.6760    3.0568   -3.5834 H   0  0  0  0  0  0  0  0  0  0  0  0
    2.1142    3.7325   -3.0244 H   0  0  0  0  0  0  0  0  0  0  0  0
    3.3413    0.3608   -4.3260 H   0  0  0  0  0  0  0  0  0  0  0  0
    2.2802   -0.8127   -6.2287 H   0  0  0  0  0  0  0  0  0  0  0  0
    0.3501    0.2096   -7.4036 H   0  0  0  0  0  0  0  0  0  0  0  0
   -0.5207    2.4126   -6.6736 H   0  0  0  0  0  0  0  0  0  0  0  0
    0.5219    3.5919   -4.7736 H   0  0  0  0  0  0  0  0  0  0  0  0
  1 46  1  0  0  0  0
  1 47  1  0  0  0  0
  1 48  1  0  0  0  0
  2  1  1  0  0  0  0
  2 49  1  0  0  0  0
  3  2  1  0  0  0  0
  3 50  1  0  0  0  0
  3 51  1  0  0  0  0
  3 52  1  0  0  0  0
  4  2  1  0  0  0  0
  4 53  1  0  0  0  0
  4 54  1  0  0  0  0
  5  4  1  0  0  0  0
  5 55  1  1  0  0  0
  6  5  1  0  0  0  0
  6 56  1  0  0  0  0
  7  6  1  0  0  0  0
  8  7  2  0  0  0  0
  9  7  1  0  0  0  0
 10  9  1  0  0  0  0
 11 10  1  0  0  0  0
 11 57  1  0  0  0  0
 11 58  1  0  0  0  0
 11 59  1  0  0  0  0
 12 10  1  0  0  0  0
 12 60  1  0  0  0  0
 12 61  1  0  0  0  0
 12 62  1  0  0  0  0
 13 10  1  0  0  0  0
 13 63  1  0  0  0  0
 13 64  1  0  0  0  0
 13 65  1  0  0  0  0
 14  5  1  0  0  0  0
 15 14  2  0  0  0  0
 16 14  1  0  0  0  0
 17 16  1  0  0  0  0
 17 66  1  0  0  0  0
 17 67  1  0  0  0  0
 18 17  1  0  0  0  0
 18 68  1  0  0  0  0
 18 69  1  0  0  0  0
 19 18  1  0  0  0  0
 19 70  1  0  0  0  0
 19 71  1  0  0  0  0
 20 19  1  0  0  0  0
 20 16  1  0  0  0  0
 20 72  1  1  0  0  0
 21 20  1  0  0  0  0
 22 21  2  0  0  0  0
 23 21  1  0  0  0  0
 24 23  1  0  0  0  0
 24 73  1  1  0  0  0
 25 24  1  0  0  0  0
 25 23  1  0  0  0  0
 25 74  1  6  0  0  0
 26 25  1  0  0  0  0
 27 26  2  0  0  0  0
 28 26  1  0  0  0  0
 29 28  1  0  0  0  0
 29 75  1  0  0  0  0
 29 76  1  0  0  0  0
 30 29  1  0  0  0  0
 31 30  2  0  0  0  0
 31 77  1  0  0  0  0
 32 31  1  0  0  0  0
 32 78  1  0  0  0  0
 33 32  2  0  0  0  0
 33 79  1  0  0  0  0
 34 33  1  0  0  0  0
 34 80  1  0  0  0  0
 35 34  2  0  0  0  0
 35 30  1  0  0  0  0
 35 81  1  0  0  0  0
 36 24  1  0  0  0  0
 37 36  2  0  0  0  0
 38 36  1  0  0  0  0
 39 38  1  0  0  0  0
 39 82  1  0  0  0  0
 39 83  1  0  0  0  0
 40 39  1  0  0  0  0
 41 40  2  0  0  0  0
 41 84  1  0  0  0  0
 42 41  1  0  0  0  0
 42 85  1  0  0  0  0
 43 42  2  0  0  0  0
 43 86  1  0  0  0  0
 44 43  1  0  0  0  0
 44 87  1  0  0  0  0
 45 44  2  0  0  0  0
 45 40  1  0  0  0  0
 45 88  1  0  0  0  0
M  END
>  <MOL Chiral Flag>
0

>  <energy>
59.199248460903533

$$$$
> 562_AKC_AAC.00327-10
>545.sdf
 OpenBabel10062215143D

 88 91  0  0  0  0  0  0  0  0999 V2000
   -5.1194    1.0398    3.2766 C   0  0  0  0  0  0  0  0  0  0  0  0
   -3.6282    1.3956    3.3166 C   0  0  0  0  0  0  0  0  0  0  0  0
   -2.8128    0.3351    2.5576 C   0  0  0  0  0  0  0  0  0  0  0  0
   -3.3021    2.8360    2.8252 C   0  0  0  0  0  0  0  0  0  0  0  0
   -3.7545    3.1893    1.3840 C   0  0  1  0  0  0  0  0  0  0  0  0
   -5.1982    3.4218    1.3942 N   0  0  0  0  0  0  0  0  0  0  0  0
   -6.0824    2.8660    0.5197 C   0  0  0  0  0  0  0  0  0  0  0  0
   -5.6913    2.0626   -0.3106 O   0  0  0  0  0  0  0  0  0  0  0  0
   -7.4116    3.2123    0.5171 O   0  0  0  0  0  0  0  0  0  0  0  0
   -8.1446    4.1274    1.2838 C   0  0  0  0  0  0  0  0  0  0  0  0
   -7.6368    5.5813    1.1039 C   0  0  0  0  0  0  0  0  0  0  0  0
   -9.5901    4.0907    0.7547 C   0  0  0  0  0  0  0  0  0  0  0  0
   -8.1886    3.7202    2.7752 C   0  0  0  0  0  0  0  0  0  0  0  0
   -3.1496    4.4924    0.8615 C   0  0  0  0  0  0  0  0  0  0  0  0
   -3.6018    5.5466    1.2905 O   0  0  0  0  0  0  0  0  0  0  0  0
   -2.2362    4.5302   -0.1676 N   0  0  0  0  0  0  0  0  0  0  0  0
   -2.0312    5.7344   -0.9392 C   0  0  0  0  0  0  0  0  0  0  0  0
   -1.5891    5.1643   -2.2821 C   0  0  0  0  0  0  0  0  0  0  0  0
   -0.6597    4.0586   -1.8337 C   0  0  0  0  0  0  0  0  0  0  0  0
   -1.4280    3.4150   -0.6580 C   0  0  1  0  0  0  0  0  0  0  0  0
   -0.3977    2.9832    0.3795 C   0  0  0  0  0  0  0  0  0  0  0  0
   -0.4306    3.4649    1.4997 O   0  0  0  0  0  0  0  0  0  0  0  0
    0.6658    2.2162    0.0367 N   0  0  0  0  0  0  0  0  0  0  0  0
    1.3267    1.5635   -0.9688 C   0  0  1  0  0  0  0  0  0  0  0  0
    1.8755    1.8519    0.6029 C   0  0  1  0  0  0  0  0  0  0  0  0
    2.6716    3.1221    0.7978 C   0  0  0  0  0  0  0  0  0  0  0  0
    2.9275    3.8220   -0.1750 O   0  0  0  0  0  0  0  0  0  0  0  0
    3.0780    3.5099    2.0386 O   0  0  0  0  0  0  0  0  0  0  0  0
    3.5656    4.7879    2.2668 C   0  0  0  0  0  0  0  0  0  0  0  0
    4.0752    4.9551    3.6725 C   0  0  0  0  0  0  0  0  0  0  0  0
    3.2250    4.7558    4.7727 C   0  0  0  0  0  0  0  0  0  0  0  0
    3.7060    4.9429    6.0746 C   0  0  0  0  0  0  0  0  0  0  0  0
    5.0327    5.3325    6.2843 C   0  0  0  0  0  0  0  0  0  0  0  0
    5.8824    5.5336    5.1945 C   0  0  0  0  0  0  0  0  0  0  0  0
    5.4087    5.3455    3.8937 C   0  0  0  0  0  0  0  0  0  0  0  0
    0.8362    0.1850   -1.2668 C   0  0  0  0  0  0  0  0  0  0  0  0
    1.2891   -0.7696   -0.6505 O   0  0  0  0  0  0  0  0  0  0  0  0
    0.1180   -0.0004   -2.4038 O   0  0  0  0  0  0  0  0  0  0  0  0
    0.2432   -1.0988   -3.2360 C   0  0  0  0  0  0  0  0  0  0  0  0
   -1.0484   -1.8574   -3.3487 C   0  0  0  0  0  0  0  0  0  0  0  0
   -1.0853   -3.2337   -3.0673 C   0  0  0  0  0  0  0  0  0  0  0  0
   -2.2777   -3.9488   -3.2088 C   0  0  0  0  0  0  0  0  0  0  0  0
   -3.4406   -3.2960   -3.6258 C   0  0  0  0  0  0  0  0  0  0  0  0
   -3.4131   -1.9258   -3.9024 C   0  0  0  0  0  0  0  0  0  0  0  0
   -2.2206   -1.2066   -3.7680 C   0  0  0  0  0  0  0  0  0  0  0  0
   -5.4848    0.9662    2.2347 H   0  0  0  0  0  0  0  0  0  0  0  0
   -5.7153    1.7919    3.8328 H   0  0  0  0  0  0  0  0  0  0  0  0
   -5.2846    0.0466    3.7462 H   0  0  0  0  0  0  0  0  0  0  0  0
   -3.3065    1.3490    4.3806 H   0  0  0  0  0  0  0  0  0  0  0  0
   -1.7265    0.5522    2.6447 H   0  0  0  0  0  0  0  0  0  0  0  0
   -2.9943   -0.6704    2.9943 H   0  0  0  0  0  0  0  0  0  0  0  0
   -3.0848    0.2964    1.4831 H   0  0  0  0  0  0  0  0  0  0  0  0
   -2.2084    2.9384    2.9163 H   0  0  0  0  0  0  0  0  0  0  0  0
   -3.7363    3.5801    3.5284 H   0  0  0  0  0  0  0  0  0  0  0  0
   -3.4605    2.3747    0.6988 H   0  0  0  0  0  0  0  0  0  0  0  0
   -5.5310    4.1080    2.0710 H   0  0  0  0  0  0  0  0  0  0  0  0
   -8.2943    6.2887    1.6554 H   0  0  0  0  0  0  0  0  0  0  0  0
   -6.6162    5.7641    1.4771 H   0  0  0  0  0  0  0  0  0  0  0  0
   -7.6494    5.8634    0.0298 H   0  0  0  0  0  0  0  0  0  0  0  0
   -9.6190    4.3779   -0.3187 H   0  0  0  0  0  0  0  0  0  0  0  0
  -10.0181    3.0703    0.8510 H   0  0  0  0  0  0  0  0  0  0  0  0
  -10.2400    4.7966    1.3189 H   0  0  0  0  0  0  0  0  0  0  0  0
   -8.6018    2.6942    2.8793 H   0  0  0  0  0  0  0  0  0  0  0  0
   -8.8417    4.4162    3.3459 H   0  0  0  0  0  0  0  0  0  0  0  0
   -7.2052    3.7332    3.2737 H   0  0  0  0  0  0  0  0  0  0  0  0
   -2.9566    6.3337   -1.0846 H   0  0  0  0  0  0  0  0  0  0  0  0
   -1.2254    6.3382   -0.4669 H   0  0  0  0  0  0  0  0  0  0  0  0
   -1.1351    5.9054   -2.9735 H   0  0  0  0  0  0  0  0  0  0  0  0
   -2.4663    4.6906   -2.7804 H   0  0  0  0  0  0  0  0  0  0  0  0
   -0.3387    3.3452   -2.6224 H   0  0  0  0  0  0  0  0  0  0  0  0
    0.2482    4.5861   -1.4533 H   0  0  0  0  0  0  0  0  0  0  0  0
   -2.0748    2.5923   -1.0320 H   0  0  0  0  0  0  0  0  0  0  0  0
    1.6890    2.2287   -1.7788 H   0  0  0  0  0  0  0  0  0  0  0  0
    1.6214    1.2322    1.4896 H   0  0  0  0  0  0  0  0  0  0  0  0
    2.7504    5.5247    2.0920 H   0  0  0  0  0  0  0  0  0  0  0  0
    4.3859    5.0061    1.5470 H   0  0  0  0  0  0  0  0  0  0  0  0
    2.1939    4.4617    4.6210 H   0  0  0  0  0  0  0  0  0  0  0  0
    3.0499    4.7907    6.9217 H   0  0  0  0  0  0  0  0  0  0  0  0
    5.4022    5.4816    7.2908 H   0  0  0  0  0  0  0  0  0  0  0  0
    6.9081    5.8400    5.3563 H   0  0  0  0  0  0  0  0  0  0  0  0
    6.0780    5.5134    3.0589 H   0  0  0  0  0  0  0  0  0  0  0  0
    0.5139   -0.7242   -4.2456 H   0  0  0  0  0  0  0  0  0  0  0  0
    1.0696   -1.7690   -2.9094 H   0  0  0  0  0  0  0  0  0  0  0  0
   -0.1892   -3.7540   -2.7522 H   0  0  0  0  0  0  0  0  0  0  0  0
   -2.2982   -5.0107   -3.0002 H   0  0  0  0  0  0  0  0  0  0  0  0
   -4.3620   -3.8528   -3.7373 H   0  0  0  0  0  0  0  0  0  0  0  0
   -4.3148   -1.4226   -4.2265 H   0  0  0  0  0  0  0  0  0  0  0  0
   -2.2076   -0.1471   -3.9928 H   0  0  0  0  0  0  0  0  0  0  0  0
  1 46  1  0  0  0  0
  1 47  1  0  0  0  0
  1 48  1  0  0  0  0
  2  1  1  0  0  0  0
  2 49  1  0  0  0  0
  3  2  1  0  0  0  0
  3 50  1  0  0  0  0
  3 51  1  0  0  0  0
  3 52  1  0  0  0  0
  4  2  1  0  0  0  0
  4 53  1  0  0  0  0
  4 54  1  0  0  0  0
  5  4  1  0  0  0  0
  5 55  1  6  0  0  0
  6  5  1  0  0  0  0
  6 56  1  0  0  0  0
  7  6  1  0  0  0  0
  8  7  2  0  0  0  0
  9  7  1  0  0  0  0
 10  9  1  0  0  0  0
 11 10  1  0  0  0  0
 11 57  1  0  0  0  0
 11 58  1  0  0  0  0
 11 59  1  0  0  0  0
 12 10  1  0  0  0  0
 12 60  1  0  0  0  0
 12 61  1  0  0  0  0
 12 62  1  0  0  0  0
 13 10  1  0  0  0  0
 13 63  1  0  0  0  0
 13 64  1  0  0  0  0
 13 65  1  0  0  0  0
 14  5  1  0  0  0  0
 15 14  2  0  0  0  0
 16 14  1  0  0  0  0
 17 16  1  0  0  0  0
 17 66  1  0  0  0  0
 17 67  1  0  0  0  0
 18 17  1  0  0  0  0
 18 68  1  0  0  0  0
 18 69  1  0  0  0  0
 19 18  1  0  0  0  0
 19 70  1  0  0  0  0
 19 71  1  0  0  0  0
 20 19  1  0  0  0  0
 20 16  1  0  0  0  0
 20 72  1  6  0  0  0
 21 20  1  0  0  0  0
 22 21  2  0  0  0  0
 23 21  1  0  0  0  0
 24 23  1  0  0  0  0
 24 73  1  6  0  0  0
 25 24  1  0  0  0  0
 25 23  1  0  0  0  0
 25 74  1  1  0  0  0
 26 25  1  0  0  0  0
 27 26  2  0  0  0  0
 28 26  1  0  0  0  0
 29 28  1  0  0  0  0
 29 75  1  0  0  0  0
 29 76  1  0  0  0  0
 30 29  1  0  0  0  0
 31 30  2  0  0  0  0
 31 77  1  0  0  0  0
 32 31  1  0  0  0  0
 32 78  1  0  0  0  0
 33 32  2  0  0  0  0
 33 79  1  0  0  0  0
 34 33  1  0  0  0  0
 34 80  1  0  0  0  0
 35 34  2  0  0  0  0
 35 30  1  0  0  0  0
 35 81  1  0  0  0  0
 36 24  1  0  0  0  0
 37 36  2  0  0  0  0
 38 36  1  0  0  0  0
 39 38  1  0  0  0  0
 39 82  1  0  0  0  0
 39 83  1  0  0  0  0
 40 39  1  0  0  0  0
 41 40  2  0  0  0  0
 41 84  1  0  0  0  0
 42 41  1  0  0  0  0
 42 85  1  0  0  0  0
 43 42  2  0  0  0  0
 43 86  1  0  0  0  0
 44 43  1  0  0  0  0
 44 87  1  0  0  0  0
 45 44  2  0  0  0  0
 45 40  1  0  0  0  0
 45 88  1  0  0  0  0
M  END
>  <MOL Chiral Flag>
0

>  <energy>
68.975072034542961

$$$$
> 563_AKC_j.parint.2010.08.005
>546.sdf
 OpenBabel10102216143D

 38 40  0  0  0  0  0  0  0  0999 V2000
   -1.2786    1.3429   -1.8071 H   0  0  0  0  0  0  0  0  0  0  0  0
   -1.2128    1.1467   -0.7113 C   0  0  2  0  0  0  0  0  0  0  0  0
   -2.5655    1.4059    0.0139 C   0  0  0  0  0  0  0  0  0  0  0  0
   -3.2311    0.0448    0.1552 C   0  0  0  0  0  0  0  0  0  0  0  0
   -2.0402   -0.8938    0.4509 C   0  0  1  0  0  0  0  0  0  0  0  0
   -1.5388   -0.7729    1.9009 C   0  0  0  0  0  0  0  0  0  0  0  0
   -2.3928   -2.2471    0.2573 O   0  0  0  0  0  0  0  0  0  0  0  0
   -1.0314   -0.3950   -0.6146 C   0  0  2  0  0  0  0  0  0  0  0  0
   -1.5337   -0.7661   -1.5432 H   0  0  0  0  0  0  0  0  0  0  0  0
    0.3472   -1.0783   -0.7243 C   0  0  1  0  0  0  0  0  0  0  0  0
    0.8699   -1.1722   -2.0043 O   0  0  0  0  0  0  0  0  0  0  0  0
    2.1440   -1.5794   -1.9224 C   0  0  0  0  0  0  0  0  0  0  0  0
    2.7897   -1.9848   -2.8746 O   0  0  0  0  0  0  0  0  0  0  0  0
    2.6331   -1.4137   -0.5736 C   0  0  0  0  0  0  0  0  0  0  0  0
    3.8430   -1.7476   -0.1109 C   0  0  0  0  0  0  0  0  0  0  0  0
    1.5541   -0.7008    0.1885 C   0  0  1  0  0  0  0  0  0  0  0  0
    1.9644    0.7870    0.1833 C   0  0  0  0  0  0  0  0  0  0  0  0
    0.9503    1.7456    0.7826 C   0  0  0  0  0  0  0  0  0  0  0  0
   -0.1933    2.1286   -0.1442 C   0  0  0  0  0  0  0  0  0  0  0  0
   -0.3530    3.4309   -0.4606 C   0  0  0  0  0  0  0  0  0  0  0  0
   -2.3592    1.7260    1.0590 H   0  0  0  0  0  0  0  0  0  0  0  0
   -3.1900    2.2096   -0.4297 H   0  0  0  0  0  0  0  0  0  0  0  0
   -4.0518    0.0081    0.9036 H   0  0  0  0  0  0  0  0  0  0  0  0
   -3.6649   -0.2068   -0.8394 H   0  0  0  0  0  0  0  0  0  0  0  0
   -1.2264    0.2440    2.1821 H   0  0  0  0  0  0  0  0  0  0  0  0
   -0.6857   -1.4622    2.0631 H   0  0  0  0  0  0  0  0  0  0  0  0
   -2.3473   -1.0801    2.5975 H   0  0  0  0  0  0  0  0  0  0  0  0
   -2.8201   -2.3479   -0.6334 H   0  0  0  0  0  0  0  0  0  0  0  0
    0.1223   -2.1442   -0.4688 H   0  0  0  0  0  0  0  0  0  0  0  0
    4.1073   -1.5403    0.9217 H   0  0  0  0  0  0  0  0  0  0  0  0
    4.5668   -2.2338   -0.7561 H   0  0  0  0  0  0  0  0  0  0  0  0
    1.3912   -1.0776    1.2196 H   0  0  0  0  0  0  0  0  0  0  0  0
    2.2393    1.1502   -0.8338 H   0  0  0  0  0  0  0  0  0  0  0  0
    2.8783    0.8481    0.8164 H   0  0  0  0  0  0  0  0  0  0  0  0
    0.5901    1.3558    1.7510 H   0  0  0  0  0  0  0  0  0  0  0  0
    1.5192    2.6710    1.0278 H   0  0  0  0  0  0  0  0  0  0  0  0
   -1.1675    3.7488   -1.1062 H   0  0  0  0  0  0  0  0  0  0  0  0
    0.3201    4.1951   -0.0845 H   0  0  0  0  0  0  0  0  0  0  0  0
  2  1  1  6  0  0  0
  3  2  1  0  0  0  0
  3 21  1  0  0  0  0
  3 22  1  0  0  0  0
  4  3  1  0  0  0  0
  4 23  1  0  0  0  0
  4 24  1  0  0  0  0
  5  4  1  0  0  0  0
  5  6  1  1  0  0  0
  6 25  1  0  0  0  0
  6 26  1  0  0  0  0
  6 27  1  0  0  0  0
  7  5  1  0  0  0  0
  7 28  1  0  0  0  0
  8  5  1  0  0  0  0
  8  2  1  0  0  0  0
  8  9  1  6  0  0  0
 10  8  1  0  0  0  0
 10 29  1  1  0  0  0
 11 10  1  0  0  0  0
 12 11  1  0  0  0  0
 13 12  2  0  0  0  0
 14 12  1  0  0  0  0
 15 14  2  0  0  0  0
 15 30  1  0  0  0  0
 15 31  1  0  0  0  0
 16 14  1  0  0  0  0
 16 10  1  0  0  0  0
 16 32  1  1  0  0  0
 17 16  1  0  0  0  0
 17 33  1  0  0  0  0
 17 34  1  0  0  0  0
 18 17  1  0  0  0  0
 18 35  1  0  0  0  0
 18 36  1  0  0  0  0
 19 18  1  0  0  0  0
 19  2  1  0  0  0  0
 20 19  2  0  0  0  0
 20 37  1  0  0  0  0
 20 38  1  0  0  0  0
M  END
>  <MOL Chiral Flag>
0

>  <energy>
64.86592396338888

$$$$
> 564_AKC_j.bmcl.2010.08.119
>547.sdf
 OpenBabel10062215153D

 65 70  0  0  0  0  0  0  0  0999 V2000
   -5.4344   -2.8139   -1.0130 C   0  0  0  0  0  0  0  0  0  0  0  0
   -4.8384   -2.4918    0.3542 C   0  0  0  0  0  0  0  0  0  0  0  0
   -3.5924   -1.6445    0.2618 C   0  0  0  0  0  0  0  0  0  0  0  0
   -3.5315   -0.3914    0.8907 C   0  0  0  0  0  0  0  0  0  0  0  0
   -2.3500    0.3587    0.8666 C   0  0  0  0  0  0  0  0  0  0  0  0
   -1.1992   -0.1364    0.2151 C   0  0  0  0  0  0  0  0  0  0  0  0
   -1.2923   -1.3729   -0.4530 C   0  0  0  0  0  0  0  0  0  0  0  0
   -2.4688   -2.1186   -0.4244 C   0  0  0  0  0  0  0  0  0  0  0  0
    0.1484    0.5944    0.2704 C   0  0  1  0  0  0  0  0  0  0  0  0
    0.7802    0.7866   -1.0556 N   0  0  0  0  0  0  0  0  0  0  0  0
    0.3356    1.9528   -1.8481 C   0  0  2  0  0  0  0  0  0  0  0  0
    0.6867    3.2657   -1.0847 C   0  0  0  0  0  0  0  0  0  0  0  0
    0.4038    3.1210    0.3806 C   0  0  0  0  0  0  0  0  0  0  0  0
    0.1371    1.9118    0.9923 C   0  0  0  0  0  0  0  0  0  0  0  0
   -0.0363    2.0800    2.3223 N   0  0  0  0  0  0  0  0  0  0  0  0
    0.1411    3.3927    2.5567 C   0  0  0  0  0  0  0  0  0  0  0  0
    0.0961    4.0429    3.7857 C   0  0  0  0  0  0  0  0  0  0  0  0
    0.3348    5.4290    3.8059 C   0  0  0  0  0  0  0  0  0  0  0  0
    0.6092    6.1247    2.6043 C   0  0  0  0  0  0  0  0  0  0  0  0
    0.6520    5.4362    1.3751 C   0  0  0  0  0  0  0  0  0  0  0  0
    0.4148    4.0631    1.3884 C   0  0  0  0  0  0  0  0  0  0  0  0
   -1.1494    1.8318   -2.1362 C   0  0  0  0  0  0  0  0  0  0  0  0
   -1.5520    0.8882   -2.8028 O   0  0  0  0  0  0  0  0  0  0  0  0
   -2.0218    2.7526   -1.6394 O   0  0  0  0  0  0  0  0  0  0  0  0
   -3.3961    2.7041   -1.7831 C   0  0  0  0  0  0  0  0  0  0  0  0
    1.8781    0.0309   -1.4651 C   0  0  0  0  0  0  0  0  0  0  0  0
    2.4974    0.3681   -2.4632 O   0  0  0  0  0  0  0  0  0  0  0  0
    2.3617   -1.2004   -0.7248 C   0  0  0  0  0  0  0  0  0  0  0  0
    1.6105   -1.8069    0.0182 O   0  0  0  0  0  0  0  0  0  0  0  0
    3.7305   -1.7511   -0.8438 C   0  0  0  0  0  0  0  0  0  0  0  0
    4.0433   -2.8070   -0.1793 N   0  0  0  0  0  0  0  0  0  0  0  0
    5.3836   -3.0822   -0.3684 C   0  0  0  0  0  0  0  0  0  0  0  0
    6.0984   -4.1284    0.2023 C   0  0  0  0  0  0  0  0  0  0  0  0
    7.4671   -4.2244   -0.0856 C   0  0  0  0  0  0  0  0  0  0  0  0
    8.0779   -3.2745   -0.9338 C   0  0  0  0  0  0  0  0  0  0  0  0
    7.3159   -2.2283   -1.4956 C   0  0  0  0  0  0  0  0  0  0  0  0
    5.9554   -2.1590   -1.1887 C   0  0  0  0  0  0  0  0  0  0  0  0
    4.9118   -1.1593   -1.6167 C   0  0  0  0  0  0  0  0  0  0  0  0
   -5.7215   -1.8791   -1.5373 H   0  0  0  0  0  0  0  0  0  0  0  0
   -4.7130   -3.3805   -1.6381 H   0  0  0  0  0  0  0  0  0  0  0  0
   -6.3384   -3.4446   -0.8768 H   0  0  0  0  0  0  0  0  0  0  0  0
   -5.6137   -1.9791    0.9636 H   0  0  0  0  0  0  0  0  0  0  0  0
   -4.5789   -3.4438    0.8673 H   0  0  0  0  0  0  0  0  0  0  0  0
   -4.3904   -0.0057    1.4250 H   0  0  0  0  0  0  0  0  0  0  0  0
   -2.3364    1.3043    1.3879 H   0  0  0  0  0  0  0  0  0  0  0  0
   -0.4562   -1.7797   -0.9921 H   0  0  0  0  0  0  0  0  0  0  0  0
   -2.4938   -3.0794   -0.9224 H   0  0  0  0  0  0  0  0  0  0  0  0
    0.8054    0.0085    0.9233 H   0  0  0  0  0  0  0  0  0  0  0  0
    0.8314    2.0228   -2.8410 H   0  0  0  0  0  0  0  0  0  0  0  0
    1.7723    3.4835   -1.1721 H   0  0  0  0  0  0  0  0  0  0  0  0
    0.1341    4.1208   -1.5323 H   0  0  0  0  0  0  0  0  0  0  0  0
   -0.2275    1.3345    3.0284 H   0  0  0  0  0  0  0  0  0  0  0  0
   -0.1082    3.4979    4.6983 H   0  0  0  0  0  0  0  0  0  0  0  0
    0.3112    5.9639    4.7465 H   0  0  0  0  0  0  0  0  0  0  0  0
    0.7918    7.1909    2.6315 H   0  0  0  0  0  0  0  0  0  0  0  0
    0.8665    5.9594    0.4524 H   0  0  0  0  0  0  0  0  0  0  0  0
   -3.7424    3.6261   -2.2941 H   0  0  0  0  0  0  0  0  0  0  0  0
   -3.7401    1.8237   -2.3664 H   0  0  0  0  0  0  0  0  0  0  0  0
   -3.8629    2.6603   -0.7771 H   0  0  0  0  0  0  0  0  0  0  0  0
    5.6120   -4.8419    0.8561 H   0  0  0  0  0  0  0  0  0  0  0  0
    8.0522   -5.0247    0.3486 H   0  0  0  0  0  0  0  0  0  0  0  0
    9.1354   -3.3501   -1.1478 H   0  0  0  0  0  0  0  0  0  0  0  0
    7.7777   -1.4938   -2.1411 H   0  0  0  0  0  0  0  0  0  0  0  0
    5.1644   -0.1395   -1.2575 H   0  0  0  0  0  0  0  0  0  0  0  0
    4.7479   -1.1707   -2.7149 H   0  0  0  0  0  0  0  0  0  0  0  0
  1 39  1  0  0  0  0
  1 40  1  0  0  0  0
  1 41  1  0  0  0  0
  2  1  1  0  0  0  0
  2 42  1  0  0  0  0
  2 43  1  0  0  0  0
  3  2  1  0  0  0  0
  4  3  2  0  0  0  0
  4 44  1  0  0  0  0
  5  4  1  0  0  0  0
  5 45  1  0  0  0  0
  6  5  2  0  0  0  0
  7  6  1  0  0  0  0
  7 46  1  0  0  0  0
  8  7  2  0  0  0  0
  8  3  1  0  0  0  0
  8 47  1  0  0  0  0
  9  6  1  0  0  0  0
  9 48  1  1  0  0  0
 10  9  1  0  0  0  0
 11 10  1  0  0  0  0
 11 49  1  6  0  0  0
 12 11  1  0  0  0  0
 12 50  1  0  0  0  0
 12 51  1  0  0  0  0
 13 12  1  0  0  0  0
 14 13  2  0  0  0  0
 14  9  1  0  0  0  0
 15 14  1  0  0  0  0
 15 52  1  0  0  0  0
 16 15  1  0  0  0  0
 17 16  2  0  0  0  0
 17 53  1  0  0  0  0
 18 17  1  0  0  0  0
 18 54  1  0  0  0  0
 19 18  2  0  0  0  0
 19 55  1  0  0  0  0
 20 19  1  0  0  0  0
 20 56  1  0  0  0  0
 21 20  2  0  0  0  0
 21 13  1  0  0  0  0
 21 16  1  0  0  0  0
 22 11  1  0  0  0  0
 23 22  2  0  0  0  0
 24 22  1  0  0  0  0
 25 24  1  0  0  0  0
 25 57  1  0  0  0  0
 25 58  1  0  0  0  0
 25 59  1  0  0  0  0
 26 10  1  0  0  0  0
 27 26  2  0  0  0  0
 28 26  1  0  0  0  0
 29 28  2  0  0  0  0
 30 28  1  0  0  0  0
 31 30  2  0  0  0  0
 32 31  1  0  0  0  0
 33 32  2  0  0  0  0
 33 60  1  0  0  0  0
 34 33  1  0  0  0  0
 34 61  1  0  0  0  0
 35 34  2  0  0  0  0
 35 62  1  0  0  0  0
 36 35  1  0  0  0  0
 36 63  1  0  0  0  0
 37 36  2  0  0  0  0
 37 32  1  0  0  0  0
 38 37  1  0  0  0  0
 38 30  1  0  0  0  0
 38 64  1  0  0  0  0
 38 65  1  0  0  0  0
M  END
>  <MOL Chiral Flag>
0

>  <energy>
140.00896824095773

$$$$
> 565_AKC_j.bmcl.2010.07.078
>548.sdf
 OpenBabel10062215153D

 80 82  0  0  0  0  0  0  0  0999 V2000
    7.5608    7.7380   -1.1680 C   0  0  0  0  0  0  0  0  0  0  0  0
    7.9879    6.3811   -1.7257 C   0  0  0  0  0  0  0  0  0  0  0  0
    6.8936    5.2936   -1.7008 C   0  0  0  0  0  0  0  0  0  0  0  0
    5.6213    5.7226   -2.4477 C   0  0  0  0  0  0  0  0  0  0  0  0
    4.7367    4.5546   -2.9107 C   0  0  0  0  0  0  0  0  0  0  0  0
    4.1601    3.6119   -1.8469 C   0  0  0  0  0  0  0  0  0  0  0  0
    3.3595    2.6901   -2.5587 O   0  0  0  0  0  0  0  0  0  0  0  0
    2.9280    1.5855   -1.7914 C   0  0  0  0  0  0  0  0  0  0  0  0
    3.9532    0.4373   -1.8695 C   0  0  0  0  0  0  0  0  0  0  0  0
    3.4317   -0.9900   -1.5025 C   0  0  1  0  0  0  0  0  0  0  0  0
    2.4083   -1.4919   -2.5674 C   0  0  0  0  0  0  0  0  0  0  0  0
    1.9705   -2.9380   -2.2531 C   0  0  1  0  0  0  0  0  0  0  0  0
    3.1975   -3.8690   -2.2611 C   0  0  0  0  0  0  0  0  0  0  0  0
    4.2032   -3.3956   -1.1944 C   0  0  1  0  0  0  0  0  0  0  0  0
    4.6513   -1.9563   -1.5112 C   0  0  0  0  0  0  0  0  0  0  0  0
    3.5409   -3.4331    0.1965 C   0  0  0  0  0  0  0  0  0  0  0  0
    2.2951   -2.5022    0.2301 C   0  0  2  0  0  0  0  0  0  0  0  0
    1.6604   -2.6046    1.6514 C   0  0  0  0  0  0  0  0  0  0  0  0
    0.3455   -1.8404    1.8595 C   0  0  0  0  0  0  0  0  0  0  0  0
   -0.0813   -2.0267    3.1892 O   0  0  0  0  0  0  0  0  0  0  0  0
   -1.7905   -1.6600    3.2783 P   0  0  2  0  0  0  0  0  0  0  0  0
   -2.2190   -1.1318    4.8748 O   0  5  0  0  0  0  0  0  0  0  0  0
   -2.5390   -2.9955    3.0105 O   0  0  0  0  0  0  0  0  0  0  0  0
   -2.2501   -0.4780    2.0669 O   0  0  0  0  0  0  0  0  0  0  0  0
   -3.6191   -0.6165    1.7780 C   0  0  0  0  0  0  0  0  0  0  0  0
   -3.9821    0.4097    0.6867 C   0  0  0  0  0  0  0  0  0  0  0  0
   -5.4055    0.4039    0.2292 N   0  3  0  0  0  0  0  0  0  0  0  0
   -6.3302    0.7530    1.3340 C   0  0  0  0  0  0  0  0  0  0  0  0
   -5.5439    1.4283   -0.8347 C   0  0  0  0  0  0  0  0  0  0  0  0
   -5.7905   -0.9101   -0.3405 C   0  0  0  0  0  0  0  0  0  0  0  0
    1.2983   -2.9799   -0.8676 C   0  0  0  0  0  0  0  0  0  0  0  0
    2.7593   -1.0456   -0.0974 C   0  0  0  0  0  0  0  0  0  0  0  0
    8.4195    8.4414   -1.2328 H   0  0  0  0  0  0  0  0  0  0  0  0
    7.2470    7.6490   -0.1086 H   0  0  0  0  0  0  0  0  0  0  0  0
    6.7326    8.1675   -1.7701 H   0  0  0  0  0  0  0  0  0  0  0  0
    8.3133    6.5332   -2.7787 H   0  0  0  0  0  0  0  0  0  0  0  0
    8.8647    6.0138   -1.1498 H   0  0  0  0  0  0  0  0  0  0  0  0
    6.6301    5.0071   -0.6591 H   0  0  0  0  0  0  0  0  0  0  0  0
    7.3375    4.4074   -2.2035 H   0  0  0  0  0  0  0  0  0  0  0  0
    5.0439    6.4424   -1.8270 H   0  0  0  0  0  0  0  0  0  0  0  0
    5.9225    6.2416   -3.3843 H   0  0  0  0  0  0  0  0  0  0  0  0
    5.3274    3.9399   -3.6252 H   0  0  0  0  0  0  0  0  0  0  0  0
    3.8841    4.9984   -3.4710 H   0  0  0  0  0  0  0  0  0  0  0  0
    3.5367    4.1917   -1.1312 H   0  0  0  0  0  0  0  0  0  0  0  0
    4.9988    3.1063   -1.3188 H   0  0  0  0  0  0  0  0  0  0  0  0
    2.6699    1.8508   -0.7412 H   0  0  0  0  0  0  0  0  0  0  0  0
    1.9808    1.2684   -2.2658 H   0  0  0  0  0  0  0  0  0  0  0  0
    4.3336    0.3805   -2.9139 H   0  0  0  0  0  0  0  0  0  0  0  0
    4.8113    0.7155   -1.2202 H   0  0  0  0  0  0  0  0  0  0  0  0
    2.8664   -1.4651   -3.5811 H   0  0  0  0  0  0  0  0  0  0  0  0
    1.5038   -0.8497   -2.5910 H   0  0  0  0  0  0  0  0  0  0  0  0
    1.2463   -3.2803   -3.0246 H   0  0  0  0  0  0  0  0  0  0  0  0
    2.8820   -4.9146   -2.0498 H   0  0  0  0  0  0  0  0  0  0  0  0
    3.6753   -3.8587   -3.2655 H   0  0  0  0  0  0  0  0  0  0  0  0
    5.0883   -4.0685   -1.2004 H   0  0  0  0  0  0  0  0  0  0  0  0
    5.4018   -1.6324   -0.7560 H   0  0  0  0  0  0  0  0  0  0  0  0
    5.1492   -1.9413   -2.5066 H   0  0  0  0  0  0  0  0  0  0  0  0
    4.2791   -3.1167    0.9667 H   0  0  0  0  0  0  0  0  0  0  0  0
    3.2443   -4.4810    0.4275 H   0  0  0  0  0  0  0  0  0  0  0  0
    2.3998   -2.2480    2.4020 H   0  0  0  0  0  0  0  0  0  0  0  0
    1.4480   -3.6754    1.8701 H   0  0  0  0  0  0  0  0  0  0  0  0
    0.4982   -0.7566    1.6766 H   0  0  0  0  0  0  0  0  0  0  0  0
   -0.3984   -2.2564    1.1446 H   0  0  0  0  0  0  0  0  0  0  0  0
   -4.2146   -0.4201    2.6949 H   0  0  0  0  0  0  0  0  0  0  0  0
   -3.8151   -1.6342    1.3823 H   0  0  0  0  0  0  0  0  0  0  0  0
   -3.7175    1.4196    1.0778 H   0  0  0  0  0  0  0  0  0  0  0  0
   -3.3111    0.2116   -0.1816 H   0  0  0  0  0  0  0  0  0  0  0  0
   -7.3783    0.8329    0.9670 H   0  0  0  0  0  0  0  0  0  0  0  0
   -6.0539    1.7283    1.7934 H   0  0  0  0  0  0  0  0  0  0  0  0
   -6.3315   -0.0218    2.1291 H   0  0  0  0  0  0  0  0  0  0  0  0
   -4.8783    1.2026   -1.6986 H   0  0  0  0  0  0  0  0  0  0  0  0
   -5.2776    2.4407   -0.4554 H   0  0  0  0  0  0  0  0  0  0  0  0
   -6.5875    1.4767   -1.2194 H   0  0  0  0  0  0  0  0  0  0  0  0
   -6.8161   -0.8738   -0.7721 H   0  0  0  0  0  0  0  0  0  0  0  0
   -5.8062   -1.7060    0.4336 H   0  0  0  0  0  0  0  0  0  0  0  0
   -5.0893   -1.2164   -1.1486 H   0  0  0  0  0  0  0  0  0  0  0  0
    0.4014   -2.3262   -0.9032 H   0  0  0  0  0  0  0  0  0  0  0  0
    0.9576   -4.0173   -0.6525 H   0  0  0  0  0  0  0  0  0  0  0  0
    3.4789   -0.6960    0.6757 H   0  0  0  0  0  0  0  0  0  0  0  0
    1.8845   -0.3627   -0.0845 H   0  0  0  0  0  0  0  0  0  0  0  0
  1 33  1  0  0  0  0
  1 34  1  0  0  0  0
  1 35  1  0  0  0  0
  2  1  1  0  0  0  0
  2 36  1  0  0  0  0
  2 37  1  0  0  0  0
  3  2  1  0  0  0  0
  3 38  1  0  0  0  0
  3 39  1  0  0  0  0
  4  3  1  0  0  0  0
  4 40  1  0  0  0  0
  4 41  1  0  0  0  0
  5  4  1  0  0  0  0
  5 42  1  0  0  0  0
  5 43  1  0  0  0  0
  6  5  1  0  0  0  0
  6 44  1  0  0  0  0
  6 45  1  0  0  0  0
  7  6  1  0  0  0  0
  8  7  1  0  0  0  0
  8 46  1  0  0  0  0
  8 47  1  0  0  0  0
  9  8  1  0  0  0  0
  9 48  1  0  0  0  0
  9 49  1  0  0  0  0
 10  9  1  6  0  0  0
 11 10  1  0  0  0  0
 11 50  1  0  0  0  0
 11 51  1  0  0  0  0
 12 11  1  0  0  0  0
 12 52  1  6  0  0  0
 13 12  1  0  0  0  0
 13 53  1  0  0  0  0
 13 54  1  0  0  0  0
 14 13  1  0  0  0  0
 14 55  1  6  0  0  0
 15 14  1  0  0  0  0
 15 10  1  0  0  0  0
 15 56  1  0  0  0  0
 15 57  1  0  0  0  0
 16 14  1  0  0  0  0
 16 58  1  0  0  0  0
 16 59  1  0  0  0  0
 17 16  1  0  0  0  0
 17 18  1  1  0  0  0
 18 60  1  0  0  0  0
 18 61  1  0  0  0  0
 19 18  1  0  0  0  0
 19 62  1  0  0  0  0
 19 63  1  0  0  0  0
 20 19  1  0  0  0  0
 21 20  1  6  0  0  0
 22 21  1  0  0  0  0
 23 21  2  0  0  0  0
 24 21  1  0  0  0  0
 25 24  1  0  0  0  0
 25 64  1  0  0  0  0
 25 65  1  0  0  0  0
 26 25  1  0  0  0  0
 26 66  1  0  0  0  0
 26 67  1  0  0  0  0
 27 26  1  0  0  0  0
 28 27  1  0  0  0  0
 28 68  1  0  0  0  0
 28 69  1  0  0  0  0
 28 70  1  0  0  0  0
 29 27  1  0  0  0  0
 29 71  1  0  0  0  0
 29 72  1  0  0  0  0
 29 73  1  0  0  0  0
 30 27  1  0  0  0  0
 30 74  1  0  0  0  0
 30 75  1  0  0  0  0
 30 76  1  0  0  0  0
 31 17  1  0  0  0  0
 31 12  1  0  0  0  0
 31 77  1  0  0  0  0
 31 78  1  0  0  0  0
 32 17  1  0  0  0  0
 32 10  1  0  0  0  0
 32 79  1  0  0  0  0
 32 80  1  0  0  0  0
M  CHG  2  22  -1  27   1
M  END
>  <MOL Chiral Flag>
0

>  <energy>
-61.472119889863563

$$$$
> 566_AKC_tsw.2010.176
>549.sdf
 OpenBabel10062215163D

 48 49  0  0  0  0  0  0  0  0999 V2000
   10.9326   -0.9895   -3.3417 C   0  0  0  0  0  0  0  0  0  0  0  0
    9.6286   -1.2986   -3.6914 O   0  0  0  0  0  0  0  0  0  0  0  0
    8.5328   -1.4096   -2.8881 C   0  0  0  0  0  0  0  0  0  0  0  0
    8.5813   -1.2797   -1.4832 C   0  0  0  0  0  0  0  0  0  0  0  0
    7.4144   -1.4012   -0.7237 C   0  0  0  0  0  0  0  0  0  0  0  0
    6.1766   -1.6508   -1.3362 C   0  0  0  0  0  0  0  0  0  0  0  0
    4.9463   -1.7437   -0.4475 C   0  0  0  0  0  0  0  0  0  0  0  0
    3.6750   -1.9299   -1.1720 N   0  3  0  0  0  0  0  0  0  0  0  0
    2.5358   -1.8470   -0.2384 C   0  0  0  0  0  0  0  0  0  0  0  0
    1.1914   -1.8179   -0.9956 C   0  0  0  0  0  0  0  0  0  0  0  0
    0.0581   -1.5192   -0.0962 N   0  3  0  0  0  0  0  0  0  0  0  0
   -0.5131   -2.6952    0.5998 C   0  0  0  0  0  0  0  0  0  0  0  0
   -1.8424   -3.0966   -0.0163 C   0  0  0  0  0  0  0  0  0  0  0  0
   -3.0357   -2.9204    0.7062 C   0  0  0  0  0  0  0  0  0  0  0  0
   -4.2695   -3.2277    0.1245 C   0  0  0  0  0  0  0  0  0  0  0  0
   -4.3289   -3.7274   -1.1922 C   0  0  0  0  0  0  0  0  0  0  0  0
   -5.5068   -4.0189   -1.8071 O   0  0  0  0  0  0  0  0  0  0  0  0
   -6.7600   -3.8033   -1.2694 C   0  0  0  0  0  0  0  0  0  0  0  0
   -3.1375   -3.9223   -1.9011 C   0  0  0  0  0  0  0  0  0  0  0  0
   -1.9035   -3.6068   -1.3223 C   0  0  0  0  0  0  0  0  0  0  0  0
    6.1295   -1.7863   -2.7376 C   0  0  0  0  0  0  0  0  0  0  0  0
    7.2980   -1.6673   -3.4979 C   0  0  0  0  0  0  0  0  0  0  0  0
   11.2483   -0.0845   -3.9008 H   0  0  0  0  0  0  0  0  0  0  0  0
   11.0882   -0.7875   -2.2690 H   0  0  0  0  0  0  0  0  0  0  0  0
   11.5942   -1.8299   -3.6361 H   0  0  0  0  0  0  0  0  0  0  0  0
    9.5000   -1.0850   -0.9560 H   0  0  0  0  0  0  0  0  0  0  0  0
    7.4727   -1.2916    0.3525 H   0  0  0  0  0  0  0  0  0  0  0  0
    4.9010   -0.7877    0.1227 H   0  0  0  0  0  0  0  0  0  0  0  0
    5.0902   -2.5755    0.2775 H   0  0  0  0  0  0  0  0  0  0  0  0
    3.6660   -2.8584   -1.6560 H   0  0  0  0  0  0  0  0  0  0  0  0
    3.5792   -1.1567   -1.8718 H   0  0  0  0  0  0  0  0  0  0  0  0
    2.6131   -0.8952    0.3350 H   0  0  0  0  0  0  0  0  0  0  0  0
    2.5566   -2.6934    0.4832 H   0  0  0  0  0  0  0  0  0  0  0  0
    1.0321   -2.7582   -1.5647 H   0  0  0  0  0  0  0  0  0  0  0  0
    1.2596   -0.9908   -1.7368 H   0  0  0  0  0  0  0  0  0  0  0  0
   -0.6910   -1.0409   -0.6510 H   0  0  0  0  0  0  0  0  0  0  0  0
    0.3613   -0.8087    0.6106 H   0  0  0  0  0  0  0  0  0  0  0  0
   -0.6958   -2.4099    1.6609 H   0  0  0  0  0  0  0  0  0  0  0  0
    0.1917   -3.5554    0.6319 H   0  0  0  0  0  0  0  0  0  0  0  0
   -3.0142   -2.5229    1.7133 H   0  0  0  0  0  0  0  0  0  0  0  0
   -5.1705   -3.0644    0.7003 H   0  0  0  0  0  0  0  0  0  0  0  0
   -6.8913   -4.3963   -0.3397 H   0  0  0  0  0  0  0  0  0  0  0  0
   -6.9061   -2.7217   -1.0584 H   0  0  0  0  0  0  0  0  0  0  0  0
   -7.5286   -4.1226   -2.0029 H   0  0  0  0  0  0  0  0  0  0  0  0
   -3.1695   -4.3073   -2.9126 H   0  0  0  0  0  0  0  0  0  0  0  0
   -1.0009   -3.7537   -1.8971 H   0  0  0  0  0  0  0  0  0  0  0  0
    5.2000   -1.9808   -3.2529 H   0  0  0  0  0  0  0  0  0  0  0  0
    7.2439   -1.7715   -4.5747 H   0  0  0  0  0  0  0  0  0  0  0  0
  1 23  1  0  0  0  0
  1 24  1  0  0  0  0
  1 25  1  0  0  0  0
  2  1  1  0  0  0  0
  3  2  1  0  0  0  0
  4  3  2  0  0  0  0
  4 26  1  0  0  0  0
  5  4  1  0  0  0  0
  5 27  1  0  0  0  0
  6  5  2  0  0  0  0
  7  6  1  0  0  0  0
  7 28  1  0  0  0  0
  7 29  1  0  0  0  0
  8  7  1  0  0  0  0
  8 30  1  0  0  0  0
  8 31  1  0  0  0  0
  9  8  1  0  0  0  0
  9 32  1  0  0  0  0
  9 33  1  0  0  0  0
 10  9  1  0  0  0  0
 10 34  1  0  0  0  0
 10 35  1  0  0  0  0
 11 10  1  0  0  0  0
 11 36  1  0  0  0  0
 11 37  1  0  0  0  0
 12 11  1  0  0  0  0
 12 38  1  0  0  0  0
 12 39  1  0  0  0  0
 13 12  1  0  0  0  0
 14 13  2  0  0  0  0
 14 40  1  0  0  0  0
 15 14  1  0  0  0  0
 15 41  1  0  0  0  0
 16 15  2  0  0  0  0
 17 16  1  0  0  0  0
 18 17  1  0  0  0  0
 18 42  1  0  0  0  0
 18 43  1  0  0  0  0
 18 44  1  0  0  0  0
 19 16  1  0  0  0  0
 19 45  1  0  0  0  0
 20 19  2  0  0  0  0
 20 13  1  0  0  0  0
 20 46  1  0  0  0  0
 21  6  1  0  0  0  0
 21 47  1  0  0  0  0
 22 21  2  0  0  0  0
 22  3  1  0  0  0  0
 22 48  1  0  0  0  0
M  CHG  2   8   1  11   1
M  END
>  <MOL Chiral Flag>
0

>  <energy>
67.532340821497584

$$$$
> 567_AKC_ptr.3052
>550.sdf
 OpenBabel10062215173D

 40 39  0  0  0  0  0  0  0  0999 V2000
   -4.2950   -7.7510   -1.6253 O   0  0  0  0  0  0  0  0  0  0  0  0
   -3.8477   -7.8060   -0.2779 C   0  0  2  0  0  0  0  0  0  0  0  0
   -4.9983   -7.6228    0.6747 C   0  0  0  0  0  0  0  0  0  0  0  0
   -6.2996   -7.5203    0.3627 C   0  0  0  0  0  0  0  0  0  0  0  0
   -2.8413   -6.7626   -0.0608 C   0  0  0  0  0  0  0  0  0  0  0  0
   -2.0046   -5.9152    0.0934 C   0  0  0  0  0  0  0  0  0  0  0  0
   -0.9294   -4.8392    0.2604 C   0  0  0  0  0  0  0  0  0  0  0  0
   -0.0807   -3.9959    0.3628 C   0  0  0  0  0  0  0  0  0  0  0  0
    0.9484   -2.9535    0.4654 C   0  0  0  0  0  0  0  0  0  0  0  0
    2.2856   -3.4914    0.0366 C   0  0  0  0  0  0  0  0  0  0  0  0
    3.4868   -2.9744    0.3513 C   0  0  0  0  0  0  0  0  0  0  0  0
    3.7369   -1.7368    1.1690 C   0  0  0  0  0  0  0  0  0  0  0  0
    4.2567   -0.5903    0.2954 C   0  0  0  0  0  0  0  0  0  0  0  0
    5.7849   -0.5145    0.2743 C   0  0  0  0  0  0  0  0  0  0  0  0
    6.2933    0.4257   -0.8284 C   0  0  0  0  0  0  0  0  0  0  0  0
    7.5724    1.1664   -0.4101 C   0  0  0  0  0  0  0  0  0  0  0  0
    8.6602    1.1359   -1.4452 C   0  0  0  0  0  0  0  0  0  0  0  0
    9.7213    1.9524   -1.4015 C   0  0  0  0  0  0  0  0  0  0  0  0
   -4.5832   -6.8348   -1.7742 H   0  0  0  0  0  0  0  0  0  0  0  0
   -3.4056   -8.7942   -0.1148 H   0  0  0  0  0  0  0  0  0  0  0  0
   -4.7270   -7.5932    1.7291 H   0  0  0  0  0  0  0  0  0  0  0  0
   -7.0489   -7.4036    1.1396 H   0  0  0  0  0  0  0  0  0  0  0  0
   -6.6510   -7.5702   -0.6635 H   0  0  0  0  0  0  0  0  0  0  0  0
    0.6762   -2.1110   -0.1800 H   0  0  0  0  0  0  0  0  0  0  0  0
    0.9826   -2.5935    1.4989 H   0  0  0  0  0  0  0  0  0  0  0  0
    2.2733   -4.3735   -0.6036 H   0  0  0  0  0  0  0  0  0  0  0  0
    4.3741   -3.4710   -0.0402 H   0  0  0  0  0  0  0  0  0  0  0  0
    4.4441   -1.9746    1.9726 H   0  0  0  0  0  0  0  0  0  0  0  0
    2.8178   -1.4057    1.6621 H   0  0  0  0  0  0  0  0  0  0  0  0
    3.8808    0.3565    0.7041 H   0  0  0  0  0  0  0  0  0  0  0  0
    3.8605   -0.6693   -0.7245 H   0  0  0  0  0  0  0  0  0  0  0  0
    6.2200   -1.5090    0.1167 H   0  0  0  0  0  0  0  0  0  0  0  0
    6.1197   -0.1757    1.2623 H   0  0  0  0  0  0  0  0  0  0  0  0
    6.4438   -0.1661   -1.7403 H   0  0  0  0  0  0  0  0  0  0  0  0
    5.5266    1.1713   -1.0744 H   0  0  0  0  0  0  0  0  0  0  0  0
    7.9787    0.7454    0.5163 H   0  0  0  0  0  0  0  0  0  0  0  0
    7.3045    2.2104   -0.1987 H   0  0  0  0  0  0  0  0  0  0  0  0
    8.6027    0.3964   -2.2404 H   0  0  0  0  0  0  0  0  0  0  0  0
   10.5074    1.8860   -2.1470 H   0  0  0  0  0  0  0  0  0  0  0  0
    9.8390    2.6889   -0.6120 H   0  0  0  0  0  0  0  0  0  0  0  0
  1 19  1  0  0  0  0
  2  1  1  0  0  0  0
  2 20  1  1  0  0  0
  3  2  1  0  0  0  0
  3 21  1  0  0  0  0
  4  3  2  0  0  0  0
  4 22  1  0  0  0  0
  4 23  1  0  0  0  0
  5  2  1  0  0  0  0
  6  5  3  0  0  0  0
  7  6  1  0  0  0  0
  8  7  3  0  0  0  0
  9  8  1  0  0  0  0
  9 24  1  0  0  0  0
  9 25  1  0  0  0  0
 10  9  1  0  0  0  0
 10 26  1  0  0  0  0
 11 10  2  0  0  0  0
 11 27  1  0  0  0  0
 12 11  1  0  0  0  0
 12 28  1  0  0  0  0
 12 29  1  0  0  0  0
 13 12  1  0  0  0  0
 13 30  1  0  0  0  0
 13 31  1  0  0  0  0
 14 13  1  0  0  0  0
 14 32  1  0  0  0  0
 14 33  1  0  0  0  0
 15 14  1  0  0  0  0
 15 34  1  0  0  0  0
 15 35  1  0  0  0  0
 16 15  1  0  0  0  0
 16 36  1  0  0  0  0
 16 37  1  0  0  0  0
 17 16  1  0  0  0  0
 17 38  1  0  0  0  0
 18 17  2  0  0  0  0
 18 39  1  0  0  0  0
 18 40  1  0  0  0  0
M  END
>  <MOL Chiral Flag>
0

>  <energy>
15.351352683482434

$$$$
> 568_AKC_j.bmc.2010.05.018
>551.sdf
 OpenBabel10062215173D

 35 37  0  0  0  0  0  0  0  0999 V2000
   -0.6539   -3.7406    0.6813 O   0  0  0  0  0  0  0  0  0  0  0  0
   -0.6906   -2.5020    0.0172 C   0  0  2  0  0  0  0  0  0  0  0  0
    0.6245   -2.3488   -0.7532 C   0  0  0  0  0  0  0  0  0  0  0  0
    0.9100   -0.9439   -1.3026 C   0  0  1  0  0  0  0  0  0  0  0  0
   -0.2994   -0.3246   -1.8185 N   0  0  0  0  0  0  0  0  0  0  0  0
   -1.2456    0.3301   -0.9652 C   0  0  0  0  0  0  0  0  0  0  0  0
   -1.5242   -0.0860    0.3774 C   0  0  0  0  0  0  0  0  0  0  0  0
   -1.0294   -1.3818    1.0106 C   0  0  0  0  0  0  0  0  0  0  0  0
   -2.3939    0.6996    1.1604 C   0  0  0  0  0  0  0  0  0  0  0  0
   -2.9961    1.8455    0.6410 C   0  0  0  0  0  0  0  0  0  0  0  0
   -4.0832    2.7943    1.6389 Cl  0  0  0  0  0  0  0  0  0  0  0  0
   -2.7502    2.2262   -0.6742 C   0  0  0  0  0  0  0  0  0  0  0  0
   -1.8854    1.4771   -1.4687 C   0  0  0  0  0  0  0  0  0  0  0  0
    1.6530    0.0408   -0.3890 C   0  0  0  0  0  0  0  0  0  0  0  0
    1.9519    1.3211   -0.8976 C   0  0  0  0  0  0  0  0  0  0  0  0
    2.6302    2.2607   -0.1176 C   0  0  0  0  0  0  0  0  0  0  0  0
    3.0283    1.9376    1.1800 C   0  0  0  0  0  0  0  0  0  0  0  0
    3.9567    3.2236    2.2438 Br  0  0  0  0  0  0  0  0  0  0  0  0
    2.7518    0.6711    1.6974 C   0  0  0  0  0  0  0  0  0  0  0  0
    2.0728   -0.2748    0.9233 C   0  0  0  0  0  0  0  0  0  0  0  0
   -1.5834   -4.0894    0.7104 H   0  0  0  0  0  0  0  0  0  0  0  0
   -1.5167   -2.5119   -0.7369 H   0  0  0  0  0  0  0  0  0  0  0  0
    1.5031   -2.7055   -0.1784 H   0  0  0  0  0  0  0  0  0  0  0  0
    0.5363   -3.0567   -1.6079 H   0  0  0  0  0  0  0  0  0  0  0  0
    1.6177   -1.1007   -2.1484 H   0  0  0  0  0  0  0  0  0  0  0  0
   -0.3015   -0.0849   -2.8223 H   0  0  0  0  0  0  0  0  0  0  0  0
   -0.2846   -1.2149    1.8106 H   0  0  0  0  0  0  0  0  0  0  0  0
   -1.9225   -1.7890    1.5370 H   0  0  0  0  0  0  0  0  0  0  0  0
   -2.6231    0.4029    2.1773 H   0  0  0  0  0  0  0  0  0  0  0  0
   -3.2215    3.1120   -1.0807 H   0  0  0  0  0  0  0  0  0  0  0  0
   -1.6877    1.8074   -2.4810 H   0  0  0  0  0  0  0  0  0  0  0  0
    1.6531    1.5908   -1.9031 H   0  0  0  0  0  0  0  0  0  0  0  0
    2.8468    3.2404   -0.5239 H   0  0  0  0  0  0  0  0  0  0  0  0
    3.0658    0.4164    2.7016 H   0  0  0  0  0  0  0  0  0  0  0  0
    1.8908   -1.2422    1.3608 H   0  0  0  0  0  0  0  0  0  0  0  0
  1 21  1  0  0  0  0
  2  1  1  0  0  0  0
  2 22  1  6  0  0  0
  3  2  1  0  0  0  0
  3 23  1  0  0  0  0
  3 24  1  0  0  0  0
  4  3  1  0  0  0  0
  4 25  1  6  0  0  0
  5  4  1  0  0  0  0
  5 26  1  0  0  0  0
  6  5  1  0  0  0  0
  7  6  2  0  0  0  0
  8  7  1  0  0  0  0
  8  2  1  0  0  0  0
  8 27  1  0  0  0  0
  8 28  1  0  0  0  0
  9  7  1  0  0  0  0
  9 29  1  0  0  0  0
 10  9  2  0  0  0  0
 11 10  1  0  0  0  0
 12 10  1  0  0  0  0
 12 30  1  0  0  0  0
 13 12  2  0  0  0  0
 13  6  1  0  0  0  0
 13 31  1  0  0  0  0
 14  4  1  0  0  0  0
 15 14  2  0  0  0  0
 15 32  1  0  0  0  0
 16 15  1  0  0  0  0
 16 33  1  0  0  0  0
 17 16  2  0  0  0  0
 18 17  1  0  0  0  0
 19 17  1  0  0  0  0
 19 34  1  0  0  0  0
 20 19  2  0  0  0  0
 20 14  1  0  0  0  0
 20 35  1  0  0  0  0
M  END
>  <MOL Chiral Flag>
0

>  <energy>
53.486424828432419

$$$$
> 569_AKC_jac/dkq189
>552.sdf
 OpenBabel10062215173D

 36 37  0  0  0  0  0  0  0  0999 V2000
   -1.5773    3.1497   -1.1600 C   0  0  0  0  0  0  0  0  0  0  0  0
   -2.4539    2.0365   -1.7360 C   0  0  0  0  0  0  0  0  0  0  0  0
   -2.2498    0.8441   -1.0646 O   0  0  0  0  0  0  0  0  0  0  0  0
   -1.0940    0.1303   -1.0978 C   0  0  0  0  0  0  0  0  0  0  0  0
   -0.2187    0.4413   -1.8947 O   0  0  0  0  0  0  0  0  0  0  0  0
   -0.8497   -1.0172   -0.1484 C   0  0  0  0  0  0  0  0  0  0  0  0
   -1.8139   -1.4961    0.7039 C   0  0  0  0  0  0  0  0  0  0  0  0
   -3.2116   -0.9217    0.7509 C   0  0  0  0  0  0  0  0  0  0  0  0
   -1.5306   -2.5811    1.5839 N   0  0  0  0  0  0  0  0  0  0  0  0
   -0.2595   -3.2000    1.6057 C   0  0  0  0  0  0  0  0  0  0  0  0
   -0.0060   -4.2985    2.5032 S   0  0  0  0  0  0  0  0  0  0  0  0
    0.7608   -2.7423    0.7395 N   0  0  0  0  0  0  0  0  0  0  0  0
    0.5606   -1.6319   -0.1722 C   0  0  2  0  0  0  0  0  0  0  0  0
    1.5910   -0.5656    0.1434 C   0  0  0  0  0  0  0  0  0  0  0  0
    1.5578    0.1173    1.3724 C   0  0  0  0  0  0  0  0  0  0  0  0
    2.4998    1.1116    1.6507 C   0  0  0  0  0  0  0  0  0  0  0  0
    3.4843    1.4291    0.7113 C   0  0  0  0  0  0  0  0  0  0  0  0
    3.5328    0.7533   -0.5122 C   0  0  0  0  0  0  0  0  0  0  0  0
    4.4898    1.0672   -1.4091 O   0  0  0  0  0  0  0  0  0  0  0  0
    2.5861   -0.2425   -0.7964 C   0  0  0  0  0  0  0  0  0  0  0  0
   -0.4997    2.9150   -1.2829 H   0  0  0  0  0  0  0  0  0  0  0  0
   -1.7895    4.1036   -1.6863 H   0  0  0  0  0  0  0  0  0  0  0  0
   -1.7940    3.2807   -0.0783 H   0  0  0  0  0  0  0  0  0  0  0  0
   -3.5158    2.3328   -1.6043 H   0  0  0  0  0  0  0  0  0  0  0  0
   -2.2603    1.9072   -2.8230 H   0  0  0  0  0  0  0  0  0  0  0  0
   -3.7019   -1.0268   -0.2402 H   0  0  0  0  0  0  0  0  0  0  0  0
   -3.8435   -1.4604    1.4872 H   0  0  0  0  0  0  0  0  0  0  0  0
   -3.1839    0.1419    1.0662 H   0  0  0  0  0  0  0  0  0  0  0  0
   -2.2719   -2.9245    2.2150 H   0  0  0  0  0  0  0  0  0  0  0  0
    1.6834   -3.2069    0.7470 H   0  0  0  0  0  0  0  0  0  0  0  0
    0.7271   -2.0246   -1.1995 H   0  0  0  0  0  0  0  0  0  0  0  0
    0.7975   -0.1170    2.1072 H   0  0  0  0  0  0  0  0  0  0  0  0
    2.4657    1.6386    2.5954 H   0  0  0  0  0  0  0  0  0  0  0  0
    4.2106    2.2009    0.9334 H   0  0  0  0  0  0  0  0  0  0  0  0
    4.5537    0.6171   -2.2638 H   0  0  0  0  0  0  0  0  0  0  0  0
    2.6247   -0.7612   -1.7466 H   0  0  0  0  0  0  0  0  0  0  0  0
  1 21  1  0  0  0  0
  1 22  1  0  0  0  0
  1 23  1  0  0  0  0
  2  1  1  0  0  0  0
  2 24  1  0  0  0  0
  2 25  1  0  0  0  0
  3  2  1  0  0  0  0
  4  3  1  0  0  0  0
  5  4  2  0  0  0  0
  6  4  1  0  0  0  0
  7  6  2  0  0  0  0
  8  7  1  0  0  0  0
  8 26  1  0  0  0  0
  8 27  1  0  0  0  0
  8 28  1  0  0  0  0
  9  7  1  0  0  0  0
  9 29  1  0  0  0  0
 10  9  1  0  0  0  0
 11 10  2  0  0  0  0
 12 10  1  0  0  0  0
 12 30  1  0  0  0  0
 13 12  1  0  0  0  0
 13  6  1  0  0  0  0
 13 31  1  6  0  0  0
 14 13  1  0  0  0  0
 15 14  2  0  0  0  0
 15 32  1  0  0  0  0
 16 15  1  0  0  0  0
 16 33  1  0  0  0  0
 17 16  2  0  0  0  0
 17 34  1  0  0  0  0
 18 17  1  0  0  0  0
 19 18  1  0  0  0  0
 19 35  1  0  0  0  0
 20 18  2  0  0  0  0
 20 14  1  0  0  0  0
 20 36  1  0  0  0  0
M  END
>  <MOL Chiral Flag>
0

>  <energy>
-61.517252528578311

$$$$
> 570_AKC_jac/dkq189
>552_2.sdf
 OpenBabel10102215433D

 36 37  0  0  0  0  0  0  0  0999 V2000
   -1.9843    3.4264   -1.2306 C   0  0  0  0  0  0  0  0  0  0  0  0
   -2.5227    2.1139   -1.8079 C   0  0  0  0  0  0  0  0  0  0  0  0
   -2.3085    1.0365   -0.9624 O   0  0  0  0  0  0  0  0  0  0  0  0
   -1.0915    0.5818   -0.5606 C   0  0  0  0  0  0  0  0  0  0  0  0
   -0.0855    1.1650   -0.9290 O   0  0  0  0  0  0  0  0  0  0  0  0
   -0.9678   -0.6381    0.3195 C   0  0  0  0  0  0  0  0  0  0  0  0
   -2.0320   -1.4642    0.6151 C   0  0  0  0  0  0  0  0  0  0  0  0
   -3.4439   -1.1799    0.1617 C   0  0  0  0  0  0  0  0  0  0  0  0
   -1.7983   -2.6896    1.3307 N   0  0  0  0  0  0  0  0  0  0  0  0
   -0.4760   -3.2269    1.3804 C   0  0  0  0  0  0  0  0  0  0  0  0
   -0.2538   -4.6073    1.7203 S   0  0  0  0  0  0  0  0  0  0  0  0
    0.6041   -2.3908    1.0003 N   0  0  0  0  0  0  0  0  0  0  0  0
    0.3508   -0.9723    1.0369 C   0  0  1  0  0  0  0  0  0  0  0  0
    1.5972   -0.1377    0.7785 C   0  0  0  0  0  0  0  0  0  0  0  0
    2.0589    0.7220    1.7943 C   0  0  0  0  0  0  0  0  0  0  0  0
    3.1917    1.5090    1.6006 C   0  0  0  0  0  0  0  0  0  0  0  0
    3.8850    1.4511    0.3932 C   0  0  0  0  0  0  0  0  0  0  0  0
    3.4492    0.6004   -0.6293 C   0  0  0  0  0  0  0  0  0  0  0  0
    4.1344    0.5625   -1.7900 O   0  0  0  0  0  0  0  0  0  0  0  0
    2.3052   -0.2002   -0.4380 C   0  0  0  0  0  0  0  0  0  0  0  0
   -0.8802    3.4104   -1.1356 H   0  0  0  0  0  0  0  0  0  0  0  0
   -2.2433    4.2638   -1.9110 H   0  0  0  0  0  0  0  0  0  0  0  0
   -2.4286    3.6176   -0.2319 H   0  0  0  0  0  0  0  0  0  0  0  0
   -3.6192    2.2244   -1.9466 H   0  0  0  0  0  0  0  0  0  0  0  0
   -2.0665    1.9167   -2.8019 H   0  0  0  0  0  0  0  0  0  0  0  0
   -3.5038   -1.1452   -0.9450 H   0  0  0  0  0  0  0  0  0  0  0  0
   -4.1393   -1.9721    0.5105 H   0  0  0  0  0  0  0  0  0  0  0  0
   -3.7954   -0.2231    0.6036 H   0  0  0  0  0  0  0  0  0  0  0  0
   -2.5993   -3.2856    1.5934 H   0  0  0  0  0  0  0  0  0  0  0  0
    1.5541   -2.7647    0.8441 H   0  0  0  0  0  0  0  0  0  0  0  0
    0.0689   -0.7705    2.0955 H   0  0  0  0  0  0  0  0  0  0  0  0
    1.5349    0.7876    2.7398 H   0  0  0  0  0  0  0  0  0  0  0  0
    3.5299    2.1673    2.3907 H   0  0  0  0  0  0  0  0  0  0  0  0
    4.7626    2.0694    0.2523 H   0  0  0  0  0  0  0  0  0  0  0  0
    3.8650   -0.0054   -2.5247 H   0  0  0  0  0  0  0  0  0  0  0  0
    1.9671   -0.8570   -1.2301 H   0  0  0  0  0  0  0  0  0  0  0  0
  1 21  1  0  0  0  0
  1 22  1  0  0  0  0
  1 23  1  0  0  0  0
  2  1  1  0  0  0  0
  2 24  1  0  0  0  0
  2 25  1  0  0  0  0
  3  2  1  0  0  0  0
  4  3  1  0  0  0  0
  5  4  2  0  0  0  0
  6  4  1  0  0  0  0
  7  6  2  0  0  0  0
  8  7  1  0  0  0  0
  8 26  1  0  0  0  0
  8 27  1  0  0  0  0
  8 28  1  0  0  0  0
  9  7  1  0  0  0  0
  9 29  1  0  0  0  0
 10  9  1  0  0  0  0
 11 10  2  0  0  0  0
 12 10  1  0  0  0  0
 12 30  1  0  0  0  0
 13 12  1  0  0  0  0
 13  6  1  0  0  0  0
 13 31  1  1  0  0  0
 14 13  1  0  0  0  0
 15 14  2  0  0  0  0
 15 32  1  0  0  0  0
 16 15  1  0  0  0  0
 16 33  1  0  0  0  0
 17 16  2  0  0  0  0
 17 34  1  0  0  0  0
 18 17  1  0  0  0  0
 19 18  1  0  0  0  0
 19 35  1  0  0  0  0
 20 18  2  0  0  0  0
 20 14  1  0  0  0  0
 20 36  1  0  0  0  0
M  END
>  <MOL Chiral Flag>
0

>  <energy>
-61.517252528578311

$$$$
> 571_AKC_AAC.00250-10
>553.sdf
 OpenBabel10062215193D

 79 83  0  0  0  0  0  0  0  0999 V2000
   -3.5850   -0.9883    1.4402 C   0  0  0  0  0  0  0  0  0  0  0  0
   -3.6116   -1.6406    0.0556 C   0  0  0  0  0  0  0  0  0  0  0  0
   -2.3059   -2.4147   -0.2198 C   0  0  0  0  0  0  0  0  0  0  0  0
   -3.9754   -0.7012   -0.9193 O   0  0  0  0  0  0  0  0  0  0  0  0
   -3.2654   -0.2970   -2.0128 C   0  0  0  0  0  0  0  0  0  0  0  0
   -3.8442   -0.4637   -3.2970 C   0  0  0  0  0  0  0  0  0  0  0  0
   -3.1569   -0.0275   -4.4626 C   0  0  0  0  0  0  0  0  0  0  0  0
   -3.6878   -0.0655   -5.8054 N   0  0  0  0  0  0  0  0  0  0  0  0
   -4.7708   -0.8303   -6.3690 C   0  0  0  0  0  0  0  0  0  0  0  0
   -5.2258   -1.8923   -5.7773 N   0  0  0  0  0  0  0  0  0  0  0  0
   -5.3150   -0.4701   -7.7385 C   0  0  0  0  0  0  0  0  0  0  0  0
   -4.9211    0.7076   -8.4241 C   0  0  0  0  0  0  0  0  0  0  0  0
   -5.4172    0.9629   -9.7050 C   0  0  0  0  0  0  0  0  0  0  0  0
   -6.2981    0.0674  -10.3019 C   0  0  0  0  0  0  0  0  0  0  0  0
   -6.6835   -1.0761   -9.6040 C   0  0  0  0  0  0  0  0  0  0  0  0
   -6.1907   -1.3148   -8.3566 N   0  0  0  0  0  0  0  0  0  0  0  0
   -1.8946    0.5622   -4.3005 C   0  0  0  0  0  0  0  0  0  0  0  0
   -1.3238    0.7327   -3.0472 C   0  0  0  0  0  0  0  0  0  0  0  0
   -1.9977    0.3304   -1.8966 C   0  0  0  0  0  0  0  0  0  0  0  0
   -1.4457    0.8007   -0.6139 C   0  0  0  0  0  0  0  0  0  0  0  0
   -2.0102    1.8550    0.0668 C   0  0  0  0  0  0  0  0  0  0  0  0
   -1.1308    2.1827    1.0603 C   0  0  0  0  0  0  0  0  0  0  0  0
   -0.0627    1.3042    0.9472 C   0  0  0  0  0  0  0  0  0  0  0  0
   -0.2744    0.4953   -0.0769 O   0  0  0  0  0  0  0  0  0  0  0  0
    1.1223    1.2979    1.8566 C   0  0  0  0  0  0  0  0  0  0  0  0
    1.5921    2.5098    2.4033 C   0  0  0  0  0  0  0  0  0  0  0  0
    1.0137    3.6874    2.0351 O   0  0  0  0  0  0  0  0  0  0  0  0
    1.5793    4.9508    2.1249 C   0  0  0  0  0  0  0  0  0  0  0  0
    2.7036    5.0914    1.0897 C   0  0  0  0  0  0  0  0  0  0  0  0
    0.4939    5.9923    1.8820 C   0  0  0  0  0  0  0  0  0  0  0  0
    2.6461    2.4897    3.3200 C   0  0  0  0  0  0  0  0  0  0  0  0
    3.2446    1.3025    3.7485 C   0  0  0  0  0  0  0  0  0  0  0  0
    4.2128    1.4398    4.8040 N   0  0  0  0  0  0  0  0  0  0  0  0
    4.9349    0.4579    5.5595 C   0  0  0  0  0  0  0  0  0  0  0  0
    5.3570   -0.6396    5.0258 N   0  0  0  0  0  0  0  0  0  0  0  0
    5.2854    0.7962    6.9830 C   0  0  0  0  0  0  0  0  0  0  0  0
    6.2953    0.1397    7.6248 N   0  0  0  0  0  0  0  0  0  0  0  0
    6.6641    0.4593    8.8984 C   0  0  0  0  0  0  0  0  0  0  0  0
    5.9959    1.4702    9.5940 C   0  0  0  0  0  0  0  0  0  0  0  0
    4.9470    2.1431    8.9768 C   0  0  0  0  0  0  0  0  0  0  0  0
    4.5879    1.8147    7.6723 C   0  0  0  0  0  0  0  0  0  0  0  0
    2.7964    0.0858    3.1822 C   0  0  0  0  0  0  0  0  0  0  0  0
    1.7582    0.0923    2.2213 C   0  0  0  0  0  0  0  0  0  0  0  0
   -4.5642   -0.5084    1.6491 H   0  0  0  0  0  0  0  0  0  0  0  0
   -2.7903   -0.2253    1.5141 H   0  0  0  0  0  0  0  0  0  0  0  0
   -3.3960   -1.7511    2.2260 H   0  0  0  0  0  0  0  0  0  0  0  0
   -4.4158   -2.4082    0.0784 H   0  0  0  0  0  0  0  0  0  0  0  0
   -2.3688   -2.9434   -1.1932 H   0  0  0  0  0  0  0  0  0  0  0  0
   -1.4133   -1.7672   -0.2187 H   0  0  0  0  0  0  0  0  0  0  0  0
   -2.1475   -3.1784    0.5735 H   0  0  0  0  0  0  0  0  0  0  0  0
   -4.8372   -0.8792   -3.3467 H   0  0  0  0  0  0  0  0  0  0  0  0
   -3.1765    0.5265   -6.4712 H   0  0  0  0  0  0  0  0  0  0  0  0
   -5.9740   -2.4561   -6.2021 H   0  0  0  0  0  0  0  0  0  0  0  0
   -4.2451    1.4299   -7.9998 H   0  0  0  0  0  0  0  0  0  0  0  0
   -5.1130    1.8568  -10.2366 H   0  0  0  0  0  0  0  0  0  0  0  0
   -6.6809    0.2586  -11.2973 H   0  0  0  0  0  0  0  0  0  0  0  0
   -7.3700   -1.7778  -10.0580 H   0  0  0  0  0  0  0  0  0  0  0  0
   -1.3587    0.9341   -5.1648 H   0  0  0  0  0  0  0  0  0  0  0  0
   -0.3773    1.2533   -2.9699 H   0  0  0  0  0  0  0  0  0  0  0  0
   -2.9363    2.3632   -0.1675 H   0  0  0  0  0  0  0  0  0  0  0  0
   -1.2703    2.9755    1.7810 H   0  0  0  0  0  0  0  0  0  0  0  0
    1.9668    5.1492    3.1450 H   0  0  0  0  0  0  0  0  0  0  0  0
    3.1572    6.1034    1.1426 H   0  0  0  0  0  0  0  0  0  0  0  0
    3.5019    4.3420    1.2741 H   0  0  0  0  0  0  0  0  0  0  0  0
    2.3030    4.9295    0.0651 H   0  0  0  0  0  0  0  0  0  0  0  0
   -0.2962    5.8846    2.6562 H   0  0  0  0  0  0  0  0  0  0  0  0
    0.9224    7.0145    1.9605 H   0  0  0  0  0  0  0  0  0  0  0  0
    0.0365    5.8587    0.8795 H   0  0  0  0  0  0  0  0  0  0  0  0
    2.9904    3.4117    3.7566 H   0  0  0  0  0  0  0  0  0  0  0  0
    4.3234    2.4009    5.1556 H   0  0  0  0  0  0  0  0  0  0  0  0
    5.9014   -1.3178    5.5797 H   0  0  0  0  0  0  0  0  0  0  0  0
    7.4810   -0.0668    9.3727 H   0  0  0  0  0  0  0  0  0  0  0  0
    6.2856    1.7290   10.6048 H   0  0  0  0  0  0  0  0  0  0  0  0
    4.4120    2.9230    9.5056 H   0  0  0  0  0  0  0  0  0  0  0  0
    3.7642    2.3489    7.2199 H   0  0  0  0  0  0  0  0  0  0  0  0
    3.1929   -0.8668    3.4856 H   0  0  0  0  0  0  0  0  0  0  0  0
    1.4070   -0.8486    1.8145 H   0  0  0  0  0  0  0  0  0  0  0  0
    5.2006   -0.8510    4.0352 H   0  0  0  0  0  0  0  0  0  0  0  0
   -4.8288   -2.2344   -4.8996 H   0  0  0  0  0  0  0  0  0  0  0  0
  1 44  1  0  0  0  0
  1 45  1  0  0  0  0
  1 46  1  0  0  0  0
  2  1  1  0  0  0  0
  2 47  1  0  0  0  0
  3  2  1  0  0  0  0
  3 48  1  0  0  0  0
  3 49  1  0  0  0  0
  3 50  1  0  0  0  0
  4  2  1  0  0  0  0
  5  4  1  0  0  0  0
  6  5  2  0  0  0  0
  6 51  1  0  0  0  0
  7  6  1  0  0  0  0
  8  7  1  0  0  0  0
  8 52  1  0  0  0  0
  9  8  1  0  0  0  0
 10  9  2  0  0  0  0
 10 53  1  0  0  0  0
 10 79  1  0  0  0  0
 11  9  1  0  0  0  0
 12 11  2  0  0  0  0
 12 54  1  0  0  0  0
 13 12  1  0  0  0  0
 13 55  1  0  0  0  0
 14 13  2  0  0  0  0
 14 56  1  0  0  0  0
 15 14  1  0  0  0  0
 15 57  1  0  0  0  0
 16 15  2  0  0  0  0
 16 11  1  0  0  0  0
 17  7  2  0  0  0  0
 17 58  1  0  0  0  0
 18 17  1  0  0  0  0
 18 59  1  0  0  0  0
 19 18  2  0  0  0  0
 19  5  1  0  0  0  0
 20 19  1  0  0  0  0
 21 20  2  0  0  0  0
 21 60  1  0  0  0  0
 22 21  1  0  0  0  0
 22 61  1  0  0  0  0
 23 22  2  0  0  0  0
 24 23  1  0  0  0  0
 24 20  1  0  0  0  0
 25 23  1  0  0  0  0
 26 25  2  0  0  0  0
 27 26  1  0  0  0  0
 28 27  1  0  0  0  0
 28 62  1  0  0  0  0
 29 28  1  0  0  0  0
 29 63  1  0  0  0  0
 29 64  1  0  0  0  0
 29 65  1  0  0  0  0
 30 28  1  0  0  0  0
 30 66  1  0  0  0  0
 30 67  1  0  0  0  0
 30 68  1  0  0  0  0
 31 26  1  0  0  0  0
 31 69  1  0  0  0  0
 32 31  2  0  0  0  0
 33 32  1  0  0  0  0
 33 70  1  0  0  0  0
 34 33  1  0  0  0  0
 35 34  2  0  0  0  0
 35 71  1  0  0  0  0
 35 78  1  0  0  0  0
 36 34  1  0  0  0  0
 37 36  2  0  0  0  0
 38 37  1  0  0  0  0
 38 72  1  0  0  0  0
 39 38  2  0  0  0  0
 39 73  1  0  0  0  0
 40 39  1  0  0  0  0
 40 74  1  0  0  0  0
 41 40  2  0  0  0  0
 41 36  1  0  0  0  0
 41 75  1  0  0  0  0
 42 32  1  0  0  0  0
 42 76  1  0  0  0  0
 43 42  2  0  0  0  0
 43 25  1  0  0  0  0
 43 77  1  0  0  0  0
M  END
>  <MOL Chiral Flag>
0

>  <energy>
197.91280916093928

$$$$
> 572_AKC_j.parint.2009.12.009
>554.sdf
 OpenBabel10062215193D

 40 42  0  0  0  0  0  0  0  0999 V2000
   -5.8155    1.5373    3.3222 C   0  0  0  0  0  0  0  0  0  0  0  0
   -4.7019    1.1767    2.3948 C   0  0  0  0  0  0  0  0  0  0  0  0
   -4.4867   -0.0765    1.9608 C   0  0  0  0  0  0  0  0  0  0  0  0
   -3.3590   -0.2925    1.0504 C   0  0  0  0  0  0  0  0  0  0  0  0
   -2.0932   -0.6431    1.5675 C   0  0  0  0  0  0  0  0  0  0  0  0
   -1.0046   -0.6276    0.6917 C   0  0  0  0  0  0  0  0  0  0  0  0
   -1.1671   -0.3107   -0.6274 C   0  0  0  0  0  0  0  0  0  0  0  0
   -2.4049   -0.0209   -1.1810 C   0  0  0  0  0  0  0  0  0  0  0  0
   -3.5150    0.0005   -0.3260 C   0  0  0  0  0  0  0  0  0  0  0  0
   -0.0105   -0.2657   -1.2289 O   0  0  0  0  0  0  0  0  0  0  0  0
    0.9439   -0.5398   -0.3572 C   0  0  0  0  0  0  0  0  0  0  0  0
    0.3515   -0.8172    0.8918 C   0  0  0  0  0  0  0  0  0  0  0  0
    1.0032   -1.1638    2.1977 C   0  0  0  0  0  0  0  0  0  0  0  0
    2.3766   -0.4089   -0.7464 C   0  0  0  0  0  0  0  0  0  0  0  0
    2.6508    0.1511   -2.0081 C   0  0  0  0  0  0  0  0  0  0  0  0
    3.9707    0.3841   -2.4332 C   0  0  0  0  0  0  0  0  0  0  0  0
    5.0318    0.0305   -1.5922 C   0  0  0  0  0  0  0  0  0  0  0  0
    4.7711   -0.5344   -0.3349 C   0  0  0  0  0  0  0  0  0  0  0  0
    3.4555   -0.7468    0.0905 C   0  0  0  0  0  0  0  0  0  0  0  0
    6.3013    0.2542   -1.9910 O   0  0  0  0  0  0  0  0  0  0  0  0
    4.2452    0.9686   -3.6319 O   0  0  0  0  0  0  0  0  0  0  0  0
    3.3078    1.5656   -4.4539 C   0  0  0  0  0  0  0  0  0  0  0  0
   -6.4450    0.6611    3.5785 H   0  0  0  0  0  0  0  0  0  0  0  0
   -6.4449    2.3098    2.8325 H   0  0  0  0  0  0  0  0  0  0  0  0
   -5.3841    1.9652    4.2514 H   0  0  0  0  0  0  0  0  0  0  0  0
   -4.0373    1.9751    2.0688 H   0  0  0  0  0  0  0  0  0  0  0  0
   -5.1135   -0.9049    2.2765 H   0  0  0  0  0  0  0  0  0  0  0  0
   -1.9621   -0.8388    2.6236 H   0  0  0  0  0  0  0  0  0  0  0  0
   -2.5026    0.2333   -2.2284 H   0  0  0  0  0  0  0  0  0  0  0  0
   -4.4840    0.2823   -0.7189 H   0  0  0  0  0  0  0  0  0  0  0  0
    1.5517   -2.1235    2.0960 H   0  0  0  0  0  0  0  0  0  0  0  0
    1.6919   -0.3522    2.5086 H   0  0  0  0  0  0  0  0  0  0  0  0
    0.2521   -1.3019    3.0010 H   0  0  0  0  0  0  0  0  0  0  0  0
    1.8276    0.4310   -2.6495 H   0  0  0  0  0  0  0  0  0  0  0  0
    5.5916   -0.7958    0.3215 H   0  0  0  0  0  0  0  0  0  0  0  0
    3.3057   -1.1668    1.0668 H   0  0  0  0  0  0  0  0  0  0  0  0
    7.0587    0.0369   -1.4296 H   0  0  0  0  0  0  0  0  0  0  0  0
    2.5411    0.8326   -4.7827 H   0  0  0  0  0  0  0  0  0  0  0  0
    3.8140    1.9685   -5.3539 H   0  0  0  0  0  0  0  0  0  0  0  0
    2.8212    2.4106   -3.9183 H   0  0  0  0  0  0  0  0  0  0  0  0
  1 23  1  0  0  0  0
  1 24  1  0  0  0  0
  1 25  1  0  0  0  0
  2  1  1  0  0  0  0
  2 26  1  0  0  0  0
  3  2  2  0  0  0  0
  3 27  1  0  0  0  0
  4  3  1  0  0  0  0
  5  4  2  0  0  0  0
  5 28  1  0  0  0  0
  6  5  1  0  0  0  0
  7  6  2  0  0  0  0
  8  7  1  0  0  0  0
  8 29  1  0  0  0  0
  9  8  2  0  0  0  0
  9  4  1  0  0  0  0
  9 30  1  0  0  0  0
 10  7  1  0  0  0  0
 11 10  1  0  0  0  0
 12 11  2  0  0  0  0
 12  6  1  0  0  0  0
 13 12  1  0  0  0  0
 13 31  1  0  0  0  0
 13 32  1  0  0  0  0
 13 33  1  0  0  0  0
 14 11  1  0  0  0  0
 15 14  2  0  0  0  0
 15 34  1  0  0  0  0
 16 15  1  0  0  0  0
 17 16  2  0  0  0  0
 18 17  1  0  0  0  0
 18 35  1  0  0  0  0
 19 18  2  0  0  0  0
 19 14  1  0  0  0  0
 19 36  1  0  0  0  0
 20 17  1  0  0  0  0
 20 37  1  0  0  0  0
 21 16  1  0  0  0  0
 22 21  1  0  0  0  0
 22 38  1  0  0  0  0
 22 39  1  0  0  0  0
 22 40  1  0  0  0  0
M  END
>  <MOL Chiral Flag>
0

>  <energy>
55.819363420963249

$$$$
> 573_AKC_j.ejmech.2010.02.018
>555.sdf
 OpenBabel10062215203D

 71 74  0  0  0  0  0  0  0  0999 V2000
    0.9939    5.8308    3.1747 C   0  0  0  0  0  0  0  0  0  0  0  0
    1.0499    4.8684    2.1424 O   0  0  0  0  0  0  0  0  0  0  0  0
    0.0688    5.1276    1.1605 C   0  0  1  0  0  0  0  0  0  0  0  0
    0.6561    6.0803    0.1402 C   0  0  2  0  0  0  0  0  0  0  0  0
    0.1273    7.3593    0.3550 O   0  0  0  0  0  0  0  0  0  0  0  0
   -0.7182    7.1774   -0.7410 C   0  0  0  0  0  0  0  0  0  0  0  0
   -2.2076    7.1906   -0.3238 C   0  0  0  0  0  0  0  0  0  0  0  0
   -0.4745    8.3054   -1.7627 C   0  0  0  0  0  0  0  0  0  0  0  0
   -0.0268    5.8398   -1.1994 C   0  0  2  0  0  0  0  0  0  0  0  0
   -0.3007    4.4368   -1.0429 O   0  0  0  0  0  0  0  0  0  0  0  0
   -0.4003    3.9347    0.2840 C   0  0  2  0  0  0  0  0  0  0  0  0
   -1.9571    3.6922    0.3569 C   0  0  0  0  0  0  0  0  0  0  0  0
   -2.4624    3.3847    1.6180 O   0  0  0  0  0  0  0  0  0  0  0  0
    0.3763    2.4882    0.4297 C   0  0  1  0  0  0  0  0  0  0  0  0
    1.0801    2.0551   -0.8875 C   0  0  0  0  0  0  0  0  0  0  0  0
    0.2450    2.0447   -2.1474 C   0  0  0  0  0  0  0  0  0  0  0  0
    0.7458    2.2597   -3.2411 O   0  0  0  0  0  0  0  0  0  0  0  0
   -1.0923    1.8439   -2.0595 O   0  0  0  0  0  0  0  0  0  0  0  0
   -1.9171    1.7465   -3.1610 C   0  0  0  0  0  0  0  0  0  0  0  0
    2.3826    1.6067   -0.8925 C   0  0  0  0  0  0  0  0  0  0  0  0
    3.0491    1.0368   -2.1560 C   0  0  0  0  0  0  0  0  0  0  0  0
    3.1323    1.5172    0.3355 N   0  0  0  0  0  0  0  0  0  0  0  0
    2.5434    1.8391    1.6108 C   0  0  0  0  0  0  0  0  0  0  0  0
    3.4238    1.6942    2.8599 C   0  0  0  0  0  0  0  0  0  0  0  0
    1.2319    2.2485    1.7141 C   0  0  0  0  0  0  0  0  0  0  0  0
    0.5869    2.4280    3.0898 C   0  0  0  0  0  0  0  0  0  0  0  0
    1.2204    2.2568    4.1193 O   0  0  0  0  0  0  0  0  0  0  0  0
   -0.7077    2.7888    3.1867 O   0  0  0  0  0  0  0  0  0  0  0  0
   -1.3931    2.9973    4.3721 C   0  0  0  0  0  0  0  0  0  0  0  0
    4.3217    0.7051    0.3402 C   0  0  0  0  0  0  0  0  0  0  0  0
    4.2883   -0.5578    0.9637 C   0  0  0  0  0  0  0  0  0  0  0  0
    5.4234   -1.3667    0.9961 C   0  0  0  0  0  0  0  0  0  0  0  0
    6.6170   -0.9274    0.4101 C   0  0  0  0  0  0  0  0  0  0  0  0
    7.8456   -1.7894    0.4578 C   0  0  0  0  0  0  0  0  0  0  0  0
    6.6579    0.3283   -0.2192 C   0  0  0  0  0  0  0  0  0  0  0  0
    5.5146    1.1406   -0.2591 C   0  0  0  0  0  0  0  0  0  0  0  0
    1.8075    5.6150    3.8967 H   0  0  0  0  0  0  0  0  0  0  0  0
    0.0357    5.7632    3.7342 H   0  0  0  0  0  0  0  0  0  0  0  0
    1.1674    6.8589    2.7884 H   0  0  0  0  0  0  0  0  0  0  0  0
   -0.8569    5.5492    1.6109 H   0  0  0  0  0  0  0  0  0  0  0  0
    1.7578    6.0027    0.0040 H   0  0  0  0  0  0  0  0  0  0  0  0
   -2.4954    8.2141    0.0009 H   0  0  0  0  0  0  0  0  0  0  0  0
   -2.4289    6.5636    0.5514 H   0  0  0  0  0  0  0  0  0  0  0  0
   -2.8583    6.8988   -1.1744 H   0  0  0  0  0  0  0  0  0  0  0  0
   -0.7791    9.2851   -1.3326 H   0  0  0  0  0  0  0  0  0  0  0  0
   -1.0716    8.1287   -2.6830 H   0  0  0  0  0  0  0  0  0  0  0  0
    0.5994    8.3677   -2.0354 H   0  0  0  0  0  0  0  0  0  0  0  0
   -0.7028    5.7967   -2.0816 H   0  0  0  0  0  0  0  0  0  0  0  0
   -2.2731    2.9205   -0.3722 H   0  0  0  0  0  0  0  0  0  0  0  0
   -2.5181    4.5629   -0.0056 H   0  0  0  0  0  0  0  0  0  0  0  0
   -2.6644    2.4118    1.6237 H   0  0  0  0  0  0  0  0  0  0  0  0
   -0.4232    1.7227    0.5246 H   0  0  0  0  0  0  0  0  0  0  0  0
   -2.9586    1.5746   -2.8214 H   0  0  0  0  0  0  0  0  0  0  0  0
   -1.6046    0.8884   -3.7954 H   0  0  0  0  0  0  0  0  0  0  0  0
   -1.8810    2.6846   -3.7546 H   0  0  0  0  0  0  0  0  0  0  0  0
    2.4628    0.9213   -3.0736 H   0  0  0  0  0  0  0  0  0  0  0  0
    3.3651   -0.0085   -1.9534 H   0  0  0  0  0  0  0  0  0  0  0  0
    3.9411    1.6393   -2.4173 H   0  0  0  0  0  0  0  0  0  0  0  0
    4.4824    1.4456    2.6582 H   0  0  0  0  0  0  0  0  0  0  0  0
    3.0413    0.8899    3.5221 H   0  0  0  0  0  0  0  0  0  0  0  0
    3.4819    2.6681    3.3905 H   0  0  0  0  0  0  0  0  0  0  0  0
   -1.7652    4.0422    4.3954 H   0  0  0  0  0  0  0  0  0  0  0  0
   -0.7706    2.8281    5.2760 H   0  0  0  0  0  0  0  0  0  0  0  0
   -2.2622    2.3098    4.4105 H   0  0  0  0  0  0  0  0  0  0  0  0
    3.3731   -0.9119    1.4221 H   0  0  0  0  0  0  0  0  0  0  0  0
    5.3711   -2.3335    1.4824 H   0  0  0  0  0  0  0  0  0  0  0  0
    7.6522   -2.7487    0.9856 H   0  0  0  0  0  0  0  0  0  0  0  0
    8.6550   -1.2553    0.9984 H   0  0  0  0  0  0  0  0  0  0  0  0
    8.1844   -2.0214   -0.5731 H   0  0  0  0  0  0  0  0  0  0  0  0
    7.5771    0.6765   -0.6734 H   0  0  0  0  0  0  0  0  0  0  0  0
    5.5632    2.1094   -0.7378 H   0  0  0  0  0  0  0  0  0  0  0  0
  1 37  1  0  0  0  0
  1 38  1  0  0  0  0
  1 39  1  0  0  0  0
  2  1  1  0  0  0  0
  3  2  1  0  0  0  0
  3 40  1  1  0  0  0
  4  3  1  0  0  0  0
  4 41  1  6  0  0  0
  5  4  1  0  0  0  0
  6  5  1  0  0  0  0
  7  6  1  0  0  0  0
  7 42  1  0  0  0  0
  7 43  1  0  0  0  0
  7 44  1  0  0  0  0
  8  6  1  0  0  0  0
  8 45  1  0  0  0  0
  8 46  1  0  0  0  0
  8 47  1  0  0  0  0
  9  6  1  0  0  0  0
  9  4  1  0  0  0  0
  9 48  1  6  0  0  0
 10  9  1  0  0  0  0
 11 10  1  0  0  0  0
 11  3  1  0  0  0  0
 11 12  1  1  0  0  0
 12 49  1  0  0  0  0
 12 50  1  0  0  0  0
 13 12  1  0  0  0  0
 13 51  1  0  0  0  0
 14 11  1  0  0  0  0
 14 52  1  1  0  0  0
 15 14  1  0  0  0  0
 16 15  1  0  0  0  0
 17 16  2  0  0  0  0
 18 16  1  0  0  0  0
 19 18  1  0  0  0  0
 19 53  1  0  0  0  0
 19 54  1  0  0  0  0
 19 55  1  0  0  0  0
 20 15  2  0  0  0  0
 21 20  1  0  0  0  0
 21 56  1  0  0  0  0
 21 57  1  0  0  0  0
 21 58  1  0  0  0  0
 22 20  1  0  0  0  0
 23 22  1  0  0  0  0
 24 23  1  0  0  0  0
 24 59  1  0  0  0  0
 24 60  1  0  0  0  0
 24 61  1  0  0  0  0
 25 23  2  0  0  0  0
 25 14  1  0  0  0  0
 26 25  1  0  0  0  0
 27 26  2  0  0  0  0
 28 26  1  0  0  0  0
 29 28  1  0  0  0  0
 29 62  1  0  0  0  0
 29 63  1  0  0  0  0
 29 64  1  0  0  0  0
 30 22  1  0  0  0  0
 31 30  2  0  0  0  0
 31 65  1  0  0  0  0
 32 31  1  0  0  0  0
 32 66  1  0  0  0  0
 33 32  2  0  0  0  0
 34 33  1  0  0  0  0
 34 67  1  0  0  0  0
 34 68  1  0  0  0  0
 34 69  1  0  0  0  0
 35 33  1  0  0  0  0
 35 70  1  0  0  0  0
 36 35  2  0  0  0  0
 36 30  1  0  0  0  0
 36 71  1  0  0  0  0
M  END
>  <MOL Chiral Flag>
0

>  <energy>
199.95128861877117

$$$$
> 574_AKC_j.ejmech.2010.02.015
>556.sdf
 OpenBabel10062215203D

 60 65  0  0  0  0  0  0  0  0999 V2000
   -4.2492    2.5635   -2.8446 C   0  0  0  0  0  0  0  0  0  0  0  0
   -4.4380    1.1145   -2.8758 N   0  0  0  0  0  0  0  0  0  0  0  0
   -5.5721    0.3984   -2.6335 C   0  0  0  0  0  0  0  0  0  0  0  0
   -6.8468    0.8638   -2.2952 C   0  0  0  0  0  0  0  0  0  0  0  0
   -7.8706   -0.0859   -2.1077 C   0  0  0  0  0  0  0  0  0  0  0  0
   -7.6070   -1.4675   -2.2587 C   0  0  0  0  0  0  0  0  0  0  0  0
   -6.3166   -1.9140   -2.5969 C   0  0  0  0  0  0  0  0  0  0  0  0
   -5.3238   -0.9561   -2.7762 C   0  0  0  0  0  0  0  0  0  0  0  0
   -3.9979   -1.0640   -3.1138 C   0  0  0  0  0  0  0  0  0  0  0  0
   -3.2293   -2.1392   -3.3812 N   0  0  0  0  0  0  0  0  0  0  0  0
   -1.9498   -1.9356   -3.7259 N   0  0  0  0  0  0  0  0  0  0  0  0
   -1.4184   -0.6684   -3.7940 C   0  0  0  0  0  0  0  0  0  0  0  0
    0.2417   -0.4473   -4.4271 S   0  0  0  0  0  0  0  0  0  0  0  0
    1.0990   -0.2912   -2.8616 C   0  0  0  0  0  0  0  0  0  0  0  0
    1.8391    0.8197   -2.6252 N   0  0  0  0  0  0  0  0  0  0  0  0
    2.6113    0.9035   -1.5147 C   0  0  0  0  0  0  0  0  0  0  0  0
    2.6296   -0.1243   -0.6275 N   0  0  0  0  0  0  0  0  0  0  0  0
    1.8713   -1.2344   -0.8395 C   0  0  0  0  0  0  0  0  0  0  0  0
    1.1257   -1.3233   -1.9782 N   0  0  0  0  0  0  0  0  0  0  0  0
    1.8590   -2.2932    0.1285 N   0  0  0  0  0  0  0  0  0  0  0  0
    2.1385   -1.9260    1.5185 C   0  0  0  0  0  0  0  0  0  0  0  0
    2.5076   -3.1487    2.3653 C   0  0  0  0  0  0  0  0  0  0  0  0
    1.4445   -4.2376    2.2203 C   0  0  0  0  0  0  0  0  0  0  0  0
    1.3466   -4.6302    0.7462 C   0  0  0  0  0  0  0  0  0  0  0  0
    0.9491   -3.4140   -0.0998 C   0  0  0  0  0  0  0  0  0  0  0  0
    3.4590    2.0279   -1.3339 N   0  0  0  0  0  0  0  0  0  0  0  0
    4.8553    1.7458   -1.0254 C   0  0  0  0  0  0  0  0  0  0  0  0
    5.7111    2.9924   -1.2800 C   0  0  0  0  0  0  0  0  0  0  0  0
    5.1730    4.1668   -0.4602 C   0  0  0  0  0  0  0  0  0  0  0  0
    3.7142    4.4273   -0.8513 C   0  0  0  0  0  0  0  0  0  0  0  0
    2.8674    3.1654   -0.6411 C   0  0  0  0  0  0  0  0  0  0  0  0
   -2.1999    0.4215   -3.5158 N   0  0  0  0  0  0  0  0  0  0  0  0
   -3.4908    0.1960   -3.1717 C   0  0  0  0  0  0  0  0  0  0  0  0
   -3.9168    2.9175   -3.8428 H   0  0  0  0  0  0  0  0  0  0  0  0
   -3.4765    2.8207   -2.0902 H   0  0  0  0  0  0  0  0  0  0  0  0
   -5.1859    3.0921   -2.5795 H   0  0  0  0  0  0  0  0  0  0  0  0
   -7.0581    1.9173   -2.1816 H   0  0  0  0  0  0  0  0  0  0  0  0
   -8.8683    0.2443   -1.8485 H   0  0  0  0  0  0  0  0  0  0  0  0
   -8.4038   -2.1859   -2.1153 H   0  0  0  0  0  0  0  0  0  0  0  0
   -6.1060   -2.9687   -2.7186 H   0  0  0  0  0  0  0  0  0  0  0  0
    2.9758   -1.1989    1.5914 H   0  0  0  0  0  0  0  0  0  0  0  0
    1.2273   -1.4504    1.9450 H   0  0  0  0  0  0  0  0  0  0  0  0
    3.4871   -3.5496    2.0240 H   0  0  0  0  0  0  0  0  0  0  0  0
    2.6076   -2.8487    3.4311 H   0  0  0  0  0  0  0  0  0  0  0  0
    0.4599   -3.8680    2.5842 H   0  0  0  0  0  0  0  0  0  0  0  0
    1.7332   -5.1226    2.8270 H   0  0  0  0  0  0  0  0  0  0  0  0
    0.5991   -5.4410    0.6123 H   0  0  0  0  0  0  0  0  0  0  0  0
    2.3359   -5.0108    0.4065 H   0  0  0  0  0  0  0  0  0  0  0  0
   -0.0848   -3.0992    0.1612 H   0  0  0  0  0  0  0  0  0  0  0  0
    0.9667   -3.7281   -1.1665 H   0  0  0  0  0  0  0  0  0  0  0  0
    5.2349    0.9312   -1.6823 H   0  0  0  0  0  0  0  0  0  0  0  0
    4.9515    1.4199    0.0336 H   0  0  0  0  0  0  0  0  0  0  0  0
    6.7705    2.7881   -1.0157 H   0  0  0  0  0  0  0  0  0  0  0  0
    5.6674    3.2523   -2.3620 H   0  0  0  0  0  0  0  0  0  0  0  0
    5.2417    3.9275    0.6238 H   0  0  0  0  0  0  0  0  0  0  0  0
    5.7819    5.0750   -0.6589 H   0  0  0  0  0  0  0  0  0  0  0  0
    3.3006    5.2657   -0.2505 H   0  0  0  0  0  0  0  0  0  0  0  0
    3.6731    4.7126   -1.9251 H   0  0  0  0  0  0  0  0  0  0  0  0
    2.8106    2.9331    0.4468 H   0  0  0  0  0  0  0  0  0  0  0  0
    1.8367    3.3617   -1.0092 H   0  0  0  0  0  0  0  0  0  0  0  0
  1 34  1  0  0  0  0
  1 35  1  0  0  0  0
  1 36  1  0  0  0  0
  2  1  1  0  0  0  0
  3  2  1  0  0  0  0
  4  3  2  0  0  0  0
  4 37  1  0  0  0  0
  5  4  1  0  0  0  0
  5 38  1  0  0  0  0
  6  5  2  0  0  0  0
  6 39  1  0  0  0  0
  7  6  1  0  0  0  0
  7 40  1  0  0  0  0
  8  7  2  0  0  0  0
  8  3  1  0  0  0  0
  9  8  1  0  0  0  0
 10  9  2  0  0  0  0
 11 10  1  0  0  0  0
 12 11  2  0  0  0  0
 13 12  1  0  0  0  0
 14 13  1  0  0  0  0
 15 14  2  0  0  0  0
 16 15  1  0  0  0  0
 17 16  2  0  0  0  0
 18 17  1  0  0  0  0
 19 18  2  0  0  0  0
 19 14  1  0  0  0  0
 20 18  1  0  0  0  0
 21 20  1  0  0  0  0
 21 41  1  0  0  0  0
 21 42  1  0  0  0  0
 22 21  1  0  0  0  0
 22 43  1  0  0  0  0
 22 44  1  0  0  0  0
 23 22  1  0  0  0  0
 23 45  1  0  0  0  0
 23 46  1  0  0  0  0
 24 23  1  0  0  0  0
 24 47  1  0  0  0  0
 24 48  1  0  0  0  0
 25 24  1  0  0  0  0
 25 20  1  0  0  0  0
 25 49  1  0  0  0  0
 25 50  1  0  0  0  0
 26 16  1  0  0  0  0
 27 26  1  0  0  0  0
 27 51  1  0  0  0  0
 27 52  1  0  0  0  0
 28 27  1  0  0  0  0
 28 53  1  0  0  0  0
 28 54  1  0  0  0  0
 29 28  1  0  0  0  0
 29 55  1  0  0  0  0
 29 56  1  0  0  0  0
 30 29  1  0  0  0  0
 30 57  1  0  0  0  0
 30 58  1  0  0  0  0
 31 30  1  0  0  0  0
 31 26  1  0  0  0  0
 31 59  1  0  0  0  0
 31 60  1  0  0  0  0
 32 12  1  0  0  0  0
 33 32  2  0  0  0  0
 33  2  1  0  0  0  0
 33  9  1  0  0  0  0
M  END
>  <MOL Chiral Flag>
0

>  <energy>
-153.00683526051063

$$$$
> 575_AKC_journal.pntd.0000675
>557.sdf
 OpenBabel10062215213D

 43 45  0  0  0  0  0  0  0  0999 V2000
   -3.2371    1.4341    2.0181 C   0  0  0  0  0  0  0  0  0  0  0  0
   -2.8182    1.3375    0.5328 C   0  0  2  0  0  0  0  0  0  0  0  0
   -4.0942    1.5287   -0.3215 C   0  0  0  0  0  0  0  0  0  0  0  0
   -3.7597    1.4625   -1.8088 C   0  0  0  0  0  0  0  0  0  0  0  0
   -3.1164    0.1140   -2.1153 C   0  0  0  0  0  0  0  0  0  0  0  0
   -1.8479   -0.0620   -1.2675 C   0  0  0  0  0  0  0  0  0  0  0  0
   -2.1398    0.0426    0.1837 N   0  3  1  0  0  0  0  0  0  0  0  0
   -0.9474   -0.3322    1.0159 C   0  0  0  0  0  0  0  0  0  0  0  0
    0.4842   -0.1717    0.4466 C   0  0  0  0  0  0  0  0  0  0  0  0
    1.2436   -1.3208    0.0489 C   0  0  0  0  0  0  0  0  0  0  0  0
    0.7052   -2.5650   -0.0038 O   0  0  0  0  0  0  0  0  0  0  0  0
    2.6032   -1.1771   -0.2993 C   0  0  0  0  0  0  0  0  0  0  0  0
    3.3899   -2.2885   -0.6648 C   0  0  0  0  0  0  0  0  0  0  0  0
    4.7423   -2.1227   -0.9785 C   0  0  0  0  0  0  0  0  0  0  0  0
    5.3228   -0.8542   -0.9368 C   0  0  0  0  0  0  0  0  0  0  0  0
    4.5542    0.2578   -0.5843 C   0  0  0  0  0  0  0  0  0  0  0  0
    5.3092    1.8462   -0.5345 Cl  0  0  0  0  0  0  0  0  0  0  0  0
    3.1952    0.0984   -0.2646 C   0  0  0  0  0  0  0  0  0  0  0  0
    2.4554    1.1730    0.0853 N   0  0  0  0  0  0  0  0  0  0  0  0
    1.1452    1.0932    0.4330 C   0  0  0  0  0  0  0  0  0  0  0  0
    0.4761    2.3719    0.8137 C   0  0  0  0  0  0  0  0  0  0  0  0
   -3.7873    2.3830    2.1947 H   0  0  0  0  0  0  0  0  0  0  0  0
   -2.3772    1.4690    2.7118 H   0  0  0  0  0  0  0  0  0  0  0  0
   -3.8973    0.5853    2.2957 H   0  0  0  0  0  0  0  0  0  0  0  0
   -2.1755    2.1945    0.3115 H   0  0  0  0  0  0  0  0  0  0  0  0
   -4.5597    2.5149   -0.1006 H   0  0  0  0  0  0  0  0  0  0  0  0
   -4.8353    0.7346   -0.0787 H   0  0  0  0  0  0  0  0  0  0  0  0
   -3.0593    2.2849   -2.0754 H   0  0  0  0  0  0  0  0  0  0  0  0
   -4.6877    1.5852   -2.4076 H   0  0  0  0  0  0  0  0  0  0  0  0
   -2.8622    0.0550   -3.1951 H   0  0  0  0  0  0  0  0  0  0  0  0
   -3.8377   -0.7011   -1.8834 H   0  0  0  0  0  0  0  0  0  0  0  0
   -1.1074    0.7130   -1.5653 H   0  0  0  0  0  0  0  0  0  0  0  0
   -1.4221   -1.0632   -1.5025 H   0  0  0  0  0  0  0  0  0  0  0  0
   -2.8603   -0.6930    0.3906 H   0  0  0  0  0  0  0  0  0  0  0  0
   -1.0850   -1.3869    1.3147 H   0  0  0  0  0  0  0  0  0  0  0  0
   -0.9588    0.1155    2.0202 H   0  0  0  0  0  0  0  0  0  0  0  0
   -0.2300   -2.7765    0.0877 H   0  0  0  0  0  0  0  0  0  0  0  0
    2.9666   -3.2845   -0.6988 H   0  0  0  0  0  0  0  0  0  0  0  0
    5.3433   -2.9808   -1.2503 H   0  0  0  0  0  0  0  0  0  0  0  0
    6.3720   -0.7351   -1.1767 H   0  0  0  0  0  0  0  0  0  0  0  0
    1.2180    3.1980    0.8493 H   0  0  0  0  0  0  0  0  0  0  0  0
   -0.0083    2.3013    1.8085 H   0  0  0  0  0  0  0  0  0  0  0  0
   -0.2173    2.6540    0.0072 H   0  0  0  0  0  0  0  0  0  0  0  0
  1 22  1  0  0  0  0
  1 23  1  0  0  0  0
  1 24  1  0  0  0  0
  2  1  1  0  0  0  0
  2 25  1  6  0  0  0
  3  2  1  0  0  0  0
  3 26  1  0  0  0  0
  3 27  1  0  0  0  0
  4  3  1  0  0  0  0
  4 28  1  0  0  0  0
  4 29  1  0  0  0  0
  5  4  1  0  0  0  0
  5 30  1  0  0  0  0
  5 31  1  0  0  0  0
  6  5  1  0  0  0  0
  6 32  1  0  0  0  0
  6 33  1  0  0  0  0
  7  6  1  0  0  0  0
  7  2  1  0  0  0  0
  7 34  1  1  0  0  0
  8  7  1  0  0  0  0
  8 35  1  0  0  0  0
  8 36  1  0  0  0  0
  9  8  1  0  0  0  0
 10  9  2  0  0  0  0
 11 10  1  0  0  0  0
 11 37  1  0  0  0  0
 12 10  1  0  0  0  0
 13 12  2  0  0  0  0
 13 38  1  0  0  0  0
 14 13  1  0  0  0  0
 14 39  1  0  0  0  0
 15 14  2  0  0  0  0
 15 40  1  0  0  0  0
 16 15  1  0  0  0  0
 17 16  1  0  0  0  0
 18 16  2  0  0  0  0
 18 12  1  0  0  0  0
 19 18  1  0  0  0  0
 20 19  2  0  0  0  0
 20  9  1  0  0  0  0
 21 20  1  0  0  0  0
 21 41  1  0  0  0  0
 21 42  1  0  0  0  0
 21 43  1  0  0  0  0
M  CHG  1   7   1
M  END
>  <MOL Chiral Flag>
0

>  <energy>
67.238563125088973

$$$$
> 576_AKC_journal.pntd.0000675
>558.sdf
 OpenBabel10062215213D

 51 53  0  0  0  0  0  0  0  0999 V2000
    3.3552   -0.2324   -4.7564 C   0  0  0  0  0  0  0  0  0  0  0  0
    3.9437   -0.5261   -3.5427 O   0  0  0  0  0  0  0  0  0  0  0  0
    3.2771   -0.9067   -2.4184 C   0  0  0  0  0  0  0  0  0  0  0  0
    1.8875   -1.0971   -2.4129 C   0  0  0  0  0  0  0  0  0  0  0  0
    1.2166   -1.4873   -1.2489 C   0  0  0  0  0  0  0  0  0  0  0  0
   -0.2438   -1.6982   -1.3500 C   0  0  0  0  0  0  0  0  0  0  0  0
   -0.9970   -2.0004   -0.3483 N   0  0  0  0  0  0  0  0  0  0  0  0
   -2.3473   -2.2005   -0.5637 N   0  0  0  0  0  0  0  0  0  0  0  0
   -3.2338   -2.2705    0.4682 C   0  0  0  0  0  0  0  0  0  0  0  0
   -2.8221   -2.1607    1.6136 O   0  0  0  0  0  0  0  0  0  0  0  0
   -4.7214   -2.4207    0.2114 C   0  0  0  0  0  0  0  0  0  0  0  0
   -5.6692   -2.1910    1.2505 C   0  0  0  0  0  0  0  0  0  0  0  0
   -5.2165   -1.8519    2.4806 O   0  0  0  0  0  0  0  0  0  0  0  0
   -7.0667   -2.3003    0.9716 C   0  0  0  0  0  0  0  0  0  0  0  0
   -8.1534   -2.0500    1.9900 C   0  0  0  0  0  0  0  0  0  0  0  0
   -7.4851   -2.6478   -0.3188 C   0  0  0  0  0  0  0  0  0  0  0  0
   -6.5623   -2.8871   -1.3244 C   0  0  0  0  0  0  0  0  0  0  0  0
   -5.2011   -2.7755   -1.0722 C   0  0  0  0  0  0  0  0  0  0  0  0
    1.9452   -1.6730   -0.0618 C   0  0  0  0  0  0  0  0  0  0  0  0
    3.3387   -1.4896   -0.0583 C   0  0  0  0  0  0  0  0  0  0  0  0
    4.0096   -1.1163   -1.2446 C   0  0  0  0  0  0  0  0  0  0  0  0
    5.3576   -0.9769   -1.3180 O   0  0  0  0  0  0  0  0  0  0  0  0
    6.2814   -1.0896   -0.3016 C   0  0  0  0  0  0  0  0  0  0  0  0
    7.6355   -1.2109   -0.9445 C   0  0  0  0  0  0  0  0  0  0  0  0
    8.6402   -0.2532   -0.7276 C   0  0  0  0  0  0  0  0  0  0  0  0
    9.8841   -0.3880   -1.3583 C   0  0  0  0  0  0  0  0  0  0  0  0
   10.1306   -1.4758   -2.2025 C   0  0  0  0  0  0  0  0  0  0  0  0
    9.1360   -2.4317   -2.4189 C   0  0  0  0  0  0  0  0  0  0  0  0
    7.8937   -2.3009   -1.7946 C   0  0  0  0  0  0  0  0  0  0  0  0
    2.8264   -1.1241   -5.1551 H   0  0  0  0  0  0  0  0  0  0  0  0
    4.1423    0.0641   -5.4786 H   0  0  0  0  0  0  0  0  0  0  0  0
    2.6452    0.6155   -4.6426 H   0  0  0  0  0  0  0  0  0  0  0  0
    1.3179   -0.9496   -3.3206 H   0  0  0  0  0  0  0  0  0  0  0  0
   -0.6954   -1.5842   -2.3332 H   0  0  0  0  0  0  0  0  0  0  0  0
   -2.6842   -2.2310   -1.5313 H   0  0  0  0  0  0  0  0  0  0  0  0
   -5.7693   -1.6759    3.2484 H   0  0  0  0  0  0  0  0  0  0  0  0
   -8.7758   -2.9639    2.0919 H   0  0  0  0  0  0  0  0  0  0  0  0
   -7.8129   -1.7724    2.9996 H   0  0  0  0  0  0  0  0  0  0  0  0
   -8.8016   -1.2230    1.6281 H   0  0  0  0  0  0  0  0  0  0  0  0
   -8.5413   -2.7336   -0.5456 H   0  0  0  0  0  0  0  0  0  0  0  0
   -6.9047   -3.1594   -2.3150 H   0  0  0  0  0  0  0  0  0  0  0  0
   -4.5430   -2.9830   -1.8977 H   0  0  0  0  0  0  0  0  0  0  0  0
    1.4445   -1.9740    0.8502 H   0  0  0  0  0  0  0  0  0  0  0  0
    3.8867   -1.6534    0.8598 H   0  0  0  0  0  0  0  0  0  0  0  0
    6.2078   -0.2053    0.3686 H   0  0  0  0  0  0  0  0  0  0  0  0
    6.1084   -2.0140    0.2899 H   0  0  0  0  0  0  0  0  0  0  0  0
    8.4602    0.5961   -0.0810 H   0  0  0  0  0  0  0  0  0  0  0  0
   10.6571    0.3518   -1.1958 H   0  0  0  0  0  0  0  0  0  0  0  0
   11.0915   -1.5781   -2.6904 H   0  0  0  0  0  0  0  0  0  0  0  0
    9.3253   -3.2735   -3.0729 H   0  0  0  0  0  0  0  0  0  0  0  0
    7.1276   -3.0461   -1.9728 H   0  0  0  0  0  0  0  0  0  0  0  0
  1 30  1  0  0  0  0
  1 31  1  0  0  0  0
  1 32  1  0  0  0  0
  2  1  1  0  0  0  0
  3  2  1  0  0  0  0
  4  3  2  0  0  0  0
  4 33  1  0  0  0  0
  5  4  1  0  0  0  0
  6  5  1  0  0  0  0
  6 34  1  0  0  0  0
  7  6  2  0  0  0  0
  8  7  1  0  0  0  0
  8 35  1  0  0  0  0
  9  8  1  0  0  0  0
 10  9  2  0  0  0  0
 11  9  1  0  0  0  0
 12 11  2  0  0  0  0
 13 12  1  0  0  0  0
 13 36  1  0  0  0  0
 14 12  1  0  0  0  0
 15 14  1  0  0  0  0
 15 37  1  0  0  0  0
 15 38  1  0  0  0  0
 15 39  1  0  0  0  0
 16 14  2  0  0  0  0
 16 40  1  0  0  0  0
 17 16  1  0  0  0  0
 17 41  1  0  0  0  0
 18 17  2  0  0  0  0
 18 11  1  0  0  0  0
 18 42  1  0  0  0  0
 19  5  2  0  0  0  0
 19 43  1  0  0  0  0
 20 19  1  0  0  0  0
 20 44  1  0  0  0  0
 21 20  2  0  0  0  0
 21  3  1  0  0  0  0
 22 21  1  0  0  0  0
 23 22  1  0  0  0  0
 23 45  1  0  0  0  0
 23 46  1  0  0  0  0
 24 23  1  0  0  0  0
 25 24  2  0  0  0  0
 25 47  1  0  0  0  0
 26 25  1  0  0  0  0
 26 48  1  0  0  0  0
 27 26  2  0  0  0  0
 27 49  1  0  0  0  0
 28 27  1  0  0  0  0
 28 50  1  0  0  0  0
 29 28  2  0  0  0  0
 29 24  1  0  0  0  0
 29 51  1  0  0  0  0
M  END
>  <MOL Chiral Flag>
0

>  <energy>
163.09436084370941

$$$$
> 577_AKC_s00436-010-1826-x
>559.sdf
 OpenBabel10062215223D

 23 24  0  0  0  0  0  0  0  0999 V2000
   -5.1205    2.1538   -2.2965 O   0  5  0  0  0  0  0  0  0  0  0  0
   -5.2676    1.2807   -1.3239 N   0  3  0  0  0  0  0  0  0  0  0  0
   -6.3639    0.9796   -0.9602 O   0  0  0  0  0  0  0  0  0  0  0  0
   -4.1268    0.6939   -0.7232 C   0  0  0  0  0  0  0  0  0  0  0  0
   -4.1343   -0.2470    0.2892 C   0  0  0  0  0  0  0  0  0  0  0  0
   -2.8095   -0.5287    0.5446 C   0  0  0  0  0  0  0  0  0  0  0  0
   -2.0769    0.2620   -0.3252 C   0  0  0  0  0  0  0  0  0  0  0  0
   -2.8917    0.9794   -1.0655 O   0  0  0  0  0  0  0  0  0  0  0  0
   -0.6126    0.3262   -0.4263 C   0  0  0  0  0  0  0  0  0  0  0  0
    0.1231   -0.4612    0.2818 N   0  0  0  0  0  0  0  0  0  0  0  0
    1.5040   -0.4183    0.2555 N   0  0  0  0  0  0  0  0  0  0  0  0
    2.3116    0.6036   -0.3564 C   0  0  0  0  0  0  0  0  0  0  0  0
    3.7545    0.1167   -0.0091 C   0  0  0  0  0  0  0  0  0  0  0  0
    3.5759   -1.0644    0.6997 O   0  0  0  0  0  0  0  0  0  0  0  0
    2.2769   -1.3271    0.8342 C   0  0  0  0  0  0  0  0  0  0  0  0
    1.8456   -2.3033    1.4277 O   0  0  0  0  0  0  0  0  0  0  0  0
   -4.9968   -0.6760    0.7818 H   0  0  0  0  0  0  0  0  0  0  0  0
   -2.4256   -1.2219    1.2816 H   0  0  0  0  0  0  0  0  0  0  0  0
   -0.1704    1.0415   -1.1118 H   0  0  0  0  0  0  0  0  0  0  0  0
    2.1449    0.6241   -1.4547 H   0  0  0  0  0  0  0  0  0  0  0  0
    2.0964    1.5905    0.1080 H   0  0  0  0  0  0  0  0  0  0  0  0
    4.3418   -0.0777   -0.9315 H   0  0  0  0  0  0  0  0  0  0  0  0
    4.2787    0.8564    0.6335 H   0  0  0  0  0  0  0  0  0  0  0  0
  2  1  1  0  0  0  0
  3  2  2  0  0  0  0
  4  2  1  0  0  0  0
  5  4  2  0  0  0  0
  5 17  1  0  0  0  0
  6  5  1  0  0  0  0
  6 18  1  0  0  0  0
  7  6  2  0  0  0  0
  8  7  1  0  0  0  0
  8  4  1  0  0  0  0
  9  7  1  0  0  0  0
  9 19  1  0  0  0  0
 10  9  2  0  0  0  0
 11 10  1  0  0  0  0
 12 11  1  0  0  0  0
 12 20  1  0  0  0  0
 12 21  1  0  0  0  0
 13 12  1  0  0  0  0
 13 22  1  0  0  0  0
 13 23  1  0  0  0  0
 14 13  1  0  0  0  0
 15 14  1  0  0  0  0
 15 11  1  0  0  0  0
 16 15  2  0  0  0  0
M  CHG  2   1  -1   2   1
M  END
>  <MOL Chiral Flag>
0

>  <energy>
90.873956053521908

$$$$
> 578_AKC_ja.2010.2
>560.sdf
 OpenBabel10062215223D

 82 86  0  0  0  0  0  0  0  0999 V2000
    4.3773   -2.9212   -1.4833 C   0  0  0  0  0  0  0  0  0  0  0  0
    4.4845   -1.4449   -1.7989 C   0  0  0  0  0  0  0  0  0  0  0  0
    4.4733   -1.0399   -3.0802 C   0  0  0  0  0  0  0  0  0  0  0  0
    4.6151   -0.4195   -0.6765 C   0  0  2  0  0  0  0  0  0  0  0  0
    5.9076   -0.6102    0.1707 C   0  0  0  0  0  0  0  0  0  0  0  0
    5.4537   -0.5284    1.6429 C   0  0  0  0  0  0  0  0  0  0  0  0
    4.1552    0.2891    1.5869 C   0  0  2  0  0  0  0  0  0  0  0  0
    4.5672    1.8062    1.4117 C   0  0  0  0  0  0  0  0  0  0  0  0
    3.4912    2.6715    1.1902 O   0  0  0  0  0  0  0  0  0  0  0  0
    3.2505    0.0877    2.8326 C   0  0  0  0  0  0  0  0  0  0  0  0
    1.8212    0.6437    2.5955 C   0  0  0  0  0  0  0  0  0  0  0  0
    1.1041    0.0642    1.3064 C   0  0  2  0  0  0  0  0  0  0  0  0
    0.8292   -1.4565    1.6334 C   0  0  0  0  0  0  0  0  0  0  0  0
    2.0853    0.1973    0.0556 C   0  0  2  0  0  0  0  0  0  0  0  0
    1.4409   -0.3978   -1.2077 C   0  0  0  0  0  0  0  0  0  0  0  0
    0.1228    0.3097   -1.5460 C   0  0  0  0  0  0  0  0  0  0  0  0
   -0.9071    0.2345   -0.3833 C   0  0  2  0  0  0  0  0  0  0  0  0
   -2.3884    0.7022   -0.7844 C   0  0  1  0  0  0  0  0  0  0  0  0
   -2.4102    2.1634   -1.3422 C   0  0  0  0  0  0  0  0  0  0  0  0
   -2.9303   -0.2213   -1.9286 C   0  0  0  0  0  0  0  0  0  0  0  0
   -4.4366   -0.0338   -2.2114 C   0  0  0  0  0  0  0  0  0  0  0  0
   -5.2654   -0.3228   -0.9521 C   0  0  2  0  0  0  0  0  0  0  0  0
   -6.6349   -0.1941   -1.2447 O   0  0  0  0  0  0  0  0  0  0  0  0
   -4.8748    0.5830    0.2629 C   0  0  0  0  0  0  0  0  0  0  0  0
   -5.3681    2.0431    0.0833 C   0  0  0  0  0  0  0  0  0  0  0  0
   -5.6375    0.0270    1.4999 C   0  0  0  0  0  0  0  0  0  0  0  0
   -3.3088    0.4477    0.4844 C   0  0  2  0  0  0  0  0  0  0  0  0
   -2.7530    1.1947    1.7291 C   0  0  0  0  0  0  0  0  0  0  0  0
   -1.3462    0.6688    2.0881 C   0  0  0  0  0  0  0  0  0  0  0  0
   -0.2860    0.8445    0.9570 C   0  0  1  0  0  0  0  0  0  0  0  0
   -0.0021    2.3837    0.8392 C   0  0  0  0  0  0  0  0  0  0  0  0
    3.4850   -0.4085    0.3745 C   0  0  1  0  0  0  0  0  0  0  0  0
    3.4702   -3.1233   -0.8793 H   0  0  0  0  0  0  0  0  0  0  0  0
    4.3046   -3.5389   -2.4038 H   0  0  0  0  0  0  0  0  0  0  0  0
    5.2682   -3.2639   -0.9202 H   0  0  0  0  0  0  0  0  0  0  0  0
    4.3838   -1.7567   -3.8909 H   0  0  0  0  0  0  0  0  0  0  0  0
    4.5514    0.0126   -3.3335 H   0  0  0  0  0  0  0  0  0  0  0  0
    4.6512    0.6099   -1.0995 H   0  0  0  0  0  0  0  0  0  0  0  0
    6.5996    0.2223   -0.0826 H   0  0  0  0  0  0  0  0  0  0  0  0
    6.4670   -1.5549    0.0084 H   0  0  0  0  0  0  0  0  0  0  0  0
    6.2351   -0.1845    2.3542 H   0  0  0  0  0  0  0  0  0  0  0  0
    5.1847   -1.5673    1.9459 H   0  0  0  0  0  0  0  0  0  0  0  0
    5.0942    2.1201    2.3416 H   0  0  0  0  0  0  0  0  0  0  0  0
    5.2815    1.9483    0.5762 H   0  0  0  0  0  0  0  0  0  0  0  0
    3.8588    3.5932    1.2109 H   0  0  0  0  0  0  0  0  0  0  0  0
    3.7099    0.5608    3.7275 H   0  0  0  0  0  0  0  0  0  0  0  0
    3.1753   -0.9928    3.0658 H   0  0  0  0  0  0  0  0  0  0  0  0
    1.9385    1.7274    2.5557 H   0  0  0  0  0  0  0  0  0  0  0  0
    1.2042    0.4525    3.4992 H   0  0  0  0  0  0  0  0  0  0  0  0
    1.7332   -2.0444    1.8539 H   0  0  0  0  0  0  0  0  0  0  0  0
    0.3289   -2.0221    0.8315 H   0  0  0  0  0  0  0  0  0  0  0  0
    0.2261   -1.5755    2.5531 H   0  0  0  0  0  0  0  0  0  0  0  0
    2.2675    1.2539   -0.1857 H   0  0  0  0  0  0  0  0  0  0  0  0
    2.1108   -0.2559   -2.0768 H   0  0  0  0  0  0  0  0  0  0  0  0
    1.2738   -1.4878   -1.0920 H   0  0  0  0  0  0  0  0  0  0  0  0
   -0.2645   -0.1832   -2.4577 H   0  0  0  0  0  0  0  0  0  0  0  0
    0.3458    1.3635   -1.8041 H   0  0  0  0  0  0  0  0  0  0  0  0
   -1.0509   -0.8433   -0.1897 H   0  0  0  0  0  0  0  0  0  0  0  0
   -1.6120    2.3202   -2.0915 H   0  0  0  0  0  0  0  0  0  0  0  0
   -3.3040    2.4148   -1.9182 H   0  0  0  0  0  0  0  0  0  0  0  0
   -2.3776    2.9526   -0.5882 H   0  0  0  0  0  0  0  0  0  0  0  0
   -2.7861   -1.2871   -1.6429 H   0  0  0  0  0  0  0  0  0  0  0  0
   -2.3833   -0.0519   -2.8784 H   0  0  0  0  0  0  0  0  0  0  0  0
   -4.6734    0.9733   -2.6010 H   0  0  0  0  0  0  0  0  0  0  0  0
   -4.7332   -0.7499   -3.0086 H   0  0  0  0  0  0  0  0  0  0  0  0
   -5.0488   -1.3803   -0.6612 H   0  0  0  0  0  0  0  0  0  0  0  0
   -6.9155   -1.0289   -1.7034 H   0  0  0  0  0  0  0  0  0  0  0  0
   -5.0200    2.5423   -0.8238 H   0  0  0  0  0  0  0  0  0  0  0  0
   -6.4767    2.0699    0.0135 H   0  0  0  0  0  0  0  0  0  0  0  0
   -5.0790    2.6647    0.9565 H   0  0  0  0  0  0  0  0  0  0  0  0
   -5.4760    0.6380    2.4096 H   0  0  0  0  0  0  0  0  0  0  0  0
   -5.3347   -1.0194    1.7196 H   0  0  0  0  0  0  0  0  0  0  0  0
   -6.7349    0.0286    1.3231 H   0  0  0  0  0  0  0  0  0  0  0  0
   -3.1877   -0.6362    0.7207 H   0  0  0  0  0  0  0  0  0  0  0  0
   -2.7737    2.2910    1.5854 H   0  0  0  0  0  0  0  0  0  0  0  0
   -3.3718    0.9825    2.6207 H   0  0  0  0  0  0  0  0  0  0  0  0
   -0.9980    1.1521    3.0259 H   0  0  0  0  0  0  0  0  0  0  0  0
   -1.5032   -0.4031    2.3086 H   0  0  0  0  0  0  0  0  0  0  0  0
    0.3882    2.8123    1.7765 H   0  0  0  0  0  0  0  0  0  0  0  0
   -0.8838    3.0018    0.7182 H   0  0  0  0  0  0  0  0  0  0  0  0
    0.6853    2.6568    0.0207 H   0  0  0  0  0  0  0  0  0  0  0  0
    3.3343   -1.4728    0.6345 H   0  0  0  0  0  0  0  0  0  0  0  0
  1 33  1  0  0  0  0
  1 34  1  0  0  0  0
  1 35  1  0  0  0  0
  2  1  1  0  0  0  0
  3  2  2  0  0  0  0
  3 36  1  0  0  0  0
  3 37  1  0  0  0  0
  4  2  1  0  0  0  0
  4 38  1  6  0  0  0
  5  4  1  0  0  0  0
  5 39  1  0  0  0  0
  5 40  1  0  0  0  0
  6  5  1  0  0  0  0
  6 41  1  0  0  0  0
  6 42  1  0  0  0  0
  7  6  1  0  0  0  0
  7  8  1  6  0  0  0
  8 43  1  0  0  0  0
  8 44  1  0  0  0  0
  9  8  1  0  0  0  0
  9 45  1  0  0  0  0
 10  7  1  0  0  0  0
 10 46  1  0  0  0  0
 10 47  1  0  0  0  0
 11 10  1  0  0  0  0
 11 48  1  0  0  0  0
 11 49  1  0  0  0  0
 12 11  1  0  0  0  0
 12 13  1  1  0  0  0
 13 50  1  0  0  0  0
 13 51  1  0  0  0  0
 13 52  1  0  0  0  0
 14 12  1  0  0  0  0
 14 53  1  6  0  0  0
 15 14  1  0  0  0  0
 15 54  1  0  0  0  0
 15 55  1  0  0  0  0
 16 15  1  0  0  0  0
 16 56  1  0  0  0  0
 16 57  1  0  0  0  0
 17 16  1  0  0  0  0
 17 58  1  1  0  0  0
 18 17  1  0  0  0  0
 18 19  1  6  0  0  0
 19 59  1  0  0  0  0
 19 60  1  0  0  0  0
 19 61  1  0  0  0  0
 20 18  1  0  0  0  0
 20 62  1  0  0  0  0
 20 63  1  0  0  0  0
 21 20  1  0  0  0  0
 21 64  1  0  0  0  0
 21 65  1  0  0  0  0
 22 21  1  0  0  0  0
 22 66  1  1  0  0  0
 23 22  1  0  0  0  0
 23 67  1  0  0  0  0
 24 22  1  0  0  0  0
 25 24  1  0  0  0  0
 25 68  1  0  0  0  0
 25 69  1  0  0  0  0
 25 70  1  0  0  0  0
 26 24  1  0  0  0  0
 26 71  1  0  0  0  0
 26 72  1  0  0  0  0
 26 73  1  0  0  0  0
 27 24  1  0  0  0  0
 27 18  1  0  0  0  0
 27 74  1  1  0  0  0
 28 27  1  0  0  0  0
 28 75  1  0  0  0  0
 28 76  1  0  0  0  0
 29 28  1  0  0  0  0
 29 77  1  0  0  0  0
 29 78  1  0  0  0  0
 30 29  1  0  0  0  0
 30 12  1  0  0  0  0
 30 17  1  0  0  0  0
 30 31  1  6  0  0  0
 31 79  1  0  0  0  0
 31 80  1  0  0  0  0
 31 81  1  0  0  0  0
 32 14  1  0  0  0  0
 32  4  1  0  0  0  0
 32  7  1  0  0  0  0
 32 82  1  1  0  0  0
M  END
>  <MOL Chiral Flag>
0

>  <energy>
189.71815396996337

$$$$
> 579_AKC_j.ejmech.2009.10.022
>561.sdf
 OpenBabel10062215243D

 43 45  0  0  0  0  0  0  0  0999 V2000
   -6.0972    0.9144    0.1429 C   0  0  0  0  0  0  0  0  0  0  0  0
   -4.8717    0.9761    0.7746 O   0  0  0  0  0  0  0  0  0  0  0  0
   -3.7525    0.3041    0.3891 C   0  0  0  0  0  0  0  0  0  0  0  0
   -2.5796    0.4692    1.1400 C   0  0  0  0  0  0  0  0  0  0  0  0
   -2.6163    1.2881    2.2270 O   0  0  0  0  0  0  0  0  0  0  0  0
   -1.5508    1.5585    3.0617 C   0  0  0  0  0  0  0  0  0  0  0  0
   -1.4048   -0.2150    0.7602 C   0  0  0  0  0  0  0  0  0  0  0  0
   -1.3869   -1.0555   -0.3710 C   0  0  0  0  0  0  0  0  0  0  0  0
   -2.5805   -1.2260   -1.0968 C   0  0  0  0  0  0  0  0  0  0  0  0
   -3.7446   -0.5514   -0.7289 C   0  0  0  0  0  0  0  0  0  0  0  0
   -0.1480   -1.8084   -0.7753 C   0  0  0  0  0  0  0  0  0  0  0  0
   -0.3019   -3.1354   -1.2165 C   0  0  0  0  0  0  0  0  0  0  0  0
    0.8169   -3.8968   -1.5481 C   0  0  0  0  0  0  0  0  0  0  0  0
    0.6790   -5.0507   -1.9123 O   0  0  0  0  0  0  0  0  0  0  0  0
    2.0331   -3.3798   -1.4592 O   0  0  0  0  0  0  0  0  0  0  0  0
    2.2540   -2.1274   -1.0756 C   0  0  0  0  0  0  0  0  0  0  0  0
    3.5677   -1.6606   -1.0388 C   0  0  0  0  0  0  0  0  0  0  0  0
    3.8640   -0.3451   -0.6763 C   0  0  0  0  0  0  0  0  0  0  0  0
    5.1795    0.0154   -0.6710 O   0  0  0  0  0  0  0  0  0  0  0  0
    5.7123    1.2482   -0.3567 C   0  0  0  0  0  0  0  0  0  0  0  0
    2.8025    0.5396   -0.3516 C   0  0  0  0  0  0  0  0  0  0  0  0
    3.0761    1.8309   -0.0181 O   0  0  0  0  0  0  0  0  0  0  0  0
    2.1496    2.7956    0.3240 C   0  0  0  0  0  0  0  0  0  0  0  0
    1.4717    0.0641   -0.3865 C   0  0  0  0  0  0  0  0  0  0  0  0
    1.1786   -1.2757   -0.7244 C   0  0  0  0  0  0  0  0  0  0  0  0
   -6.8146    1.5667    0.6817 H   0  0  0  0  0  0  0  0  0  0  0  0
   -6.4869   -0.1258    0.1588 H   0  0  0  0  0  0  0  0  0  0  0  0
   -6.0097    1.2763   -0.9038 H   0  0  0  0  0  0  0  0  0  0  0  0
   -1.1940    0.6249    3.5467 H   0  0  0  0  0  0  0  0  0  0  0  0
   -0.7258    2.0352    2.4905 H   0  0  0  0  0  0  0  0  0  0  0  0
   -1.8818    2.2608    3.8539 H   0  0  0  0  0  0  0  0  0  0  0  0
   -0.5159   -0.1155    1.3641 H   0  0  0  0  0  0  0  0  0  0  0  0
   -2.6102   -1.8699   -1.9663 H   0  0  0  0  0  0  0  0  0  0  0  0
   -4.6369   -0.7012   -1.3213 H   0  0  0  0  0  0  0  0  0  0  0  0
   -1.2822   -3.5928   -1.2731 H   0  0  0  0  0  0  0  0  0  0  0  0
    4.3756   -2.3321   -1.3045 H   0  0  0  0  0  0  0  0  0  0  0  0
    5.4697    1.5192    0.6928 H   0  0  0  0  0  0  0  0  0  0  0  0
    5.3449    2.0214   -1.0644 H   0  0  0  0  0  0  0  0  0  0  0  0
    6.8162    1.1951   -0.4509 H   0  0  0  0  0  0  0  0  0  0  0  0
    1.4504    2.9762   -0.5202 H   0  0  0  0  0  0  0  0  0  0  0  0
    2.6816    3.7431    0.5462 H   0  0  0  0  0  0  0  0  0  0  0  0
    1.5887    2.4863    1.2316 H   0  0  0  0  0  0  0  0  0  0  0  0
    0.6809    0.7560   -0.1746 H   0  0  0  0  0  0  0  0  0  0  0  0
  1 26  1  0  0  0  0
  1 27  1  0  0  0  0
  1 28  1  0  0  0  0
  2  1  1  0  0  0  0
  3  2  1  0  0  0  0
  4  3  2  0  0  0  0
  5  4  1  0  0  0  0
  6  5  1  0  0  0  0
  6 29  1  0  0  0  0
  6 30  1  0  0  0  0
  6 31  1  0  0  0  0
  7  4  1  0  0  0  0
  7 32  1  0  0  0  0
  8  7  2  0  0  0  0
  9  8  1  0  0  0  0
  9 33  1  0  0  0  0
 10  9  2  0  0  0  0
 10  3  1  0  0  0  0
 10 34  1  0  0  0  0
 11  8  1  0  0  0  0
 12 11  2  0  0  0  0
 12 35  1  0  0  0  0
 13 12  1  0  0  0  0
 14 13  2  0  0  0  0
 15 13  1  0  0  0  0
 16 15  1  0  0  0  0
 17 16  2  0  0  0  0
 17 36  1  0  0  0  0
 18 17  1  0  0  0  0
 19 18  1  0  0  0  0
 20 19  1  0  0  0  0
 20 37  1  0  0  0  0
 20 38  1  0  0  0  0
 20 39  1  0  0  0  0
 21 18  2  0  0  0  0
 22 21  1  0  0  0  0
 23 22  1  0  0  0  0
 23 40  1  0  0  0  0
 23 41  1  0  0  0  0
 23 42  1  0  0  0  0
 24 21  1  0  0  0  0
 24 43  1  0  0  0  0
 25 24  2  0  0  0  0
 25 11  1  0  0  0  0
 25 16  1  0  0  0  0
M  END
>  <MOL Chiral Flag>
0

>  <energy>
92.920878329772648

$$$$
> 580_AKC_j.ejmech.2009.11.035
>562.sdf
 OpenBabel10062215263D

 47 48  0  0  0  0  0  0  0  0999 V2000
    5.2455    0.5346    1.8652 C   0  0  0  0  0  0  0  0  0  0  0  0
    4.9768    0.7938    0.5376 O   0  0  0  0  0  0  0  0  0  0  0  0
    3.7809    1.2070    0.0366 C   0  0  0  0  0  0  0  0  0  0  0  0
    2.6812    1.5115    0.8725 C   0  0  0  0  0  0  0  0  0  0  0  0
    1.4578    1.9421    0.3265 C   0  0  0  0  0  0  0  0  0  0  0  0
    0.3254    2.2542    1.2563 C   0  0  0  0  0  0  0  0  0  0  0  0
   -0.8551    2.7607    0.8474 C   0  0  0  0  0  0  0  0  0  0  0  0
   -1.9827    3.0450    1.7721 C   0  0  0  0  0  0  0  0  0  0  0  0
   -1.8958    2.7976    2.9659 O   0  0  0  0  0  0  0  0  0  0  0  0
   -3.2487    3.6420    1.2130 C   0  0  0  0  0  0  0  0  0  0  0  0
   -3.7892    2.7521    0.1262 C   0  0  0  0  0  0  0  0  0  0  0  0
   -3.7616    3.1413   -1.0330 O   0  0  0  0  0  0  0  0  0  0  0  0
   -4.3169    1.4040    0.4495 C   0  0  0  0  0  0  0  0  0  0  0  0
   -4.5251    0.4879   -0.5163 C   0  0  0  0  0  0  0  0  0  0  0  0
   -5.0619   -0.8786   -0.2708 C   0  0  0  0  0  0  0  0  0  0  0  0
   -5.7339   -1.2259    0.9166 C   0  0  0  0  0  0  0  0  0  0  0  0
   -6.2550   -2.5106    1.0796 C   0  0  0  0  0  0  0  0  0  0  0  0
   -6.0949   -3.4753    0.0755 C   0  0  0  0  0  0  0  0  0  0  0  0
   -6.5988   -4.7166    0.2377 O   0  0  0  0  0  0  0  0  0  0  0  0
   -5.4033   -3.1567   -1.1018 C   0  0  0  0  0  0  0  0  0  0  0  0
   -5.2467   -4.1275   -2.0439 O   0  0  0  0  0  0  0  0  0  0  0  0
   -4.2905   -4.1632   -3.0440 C   0  0  0  0  0  0  0  0  0  0  0  0
   -4.9067   -1.8474   -1.2764 C   0  0  0  0  0  0  0  0  0  0  0  0
    1.3445    2.0539   -1.0765 C   0  0  0  0  0  0  0  0  0  0  0  0
    2.4259    1.7501   -1.9015 C   0  0  0  0  0  0  0  0  0  0  0  0
    3.6402    1.3330   -1.3580 C   0  0  0  0  0  0  0  0  0  0  0  0
    4.6653    1.0515   -2.1911 O   0  0  0  0  0  0  0  0  0  0  0  0
    6.3080    0.2307    1.9629 H   0  0  0  0  0  0  0  0  0  0  0  0
    5.0829    1.4434    2.4820 H   0  0  0  0  0  0  0  0  0  0  0  0
    4.6056   -0.2988    2.2257 H   0  0  0  0  0  0  0  0  0  0  0  0
    2.7734    1.4218    1.9469 H   0  0  0  0  0  0  0  0  0  0  0  0
    0.4710    2.0632    2.3165 H   0  0  0  0  0  0  0  0  0  0  0  0
   -1.0264    2.9801   -0.1949 H   0  0  0  0  0  0  0  0  0  0  0  0
   -2.9849    4.6329    0.7828 H   0  0  0  0  0  0  0  0  0  0  0  0
   -4.0178    3.7997    1.9999 H   0  0  0  0  0  0  0  0  0  0  0  0
   -4.5006    1.1660    1.4903 H   0  0  0  0  0  0  0  0  0  0  0  0
   -4.2575    0.7419   -1.5389 H   0  0  0  0  0  0  0  0  0  0  0  0
   -5.8868   -0.5063    1.7073 H   0  0  0  0  0  0  0  0  0  0  0  0
   -6.7871   -2.7580    1.9898 H   0  0  0  0  0  0  0  0  0  0  0  0
   -7.0907   -4.9681    1.0324 H   0  0  0  0  0  0  0  0  0  0  0  0
   -3.5180   -3.3752   -2.9473 H   0  0  0  0  0  0  0  0  0  0  0  0
   -3.7565   -5.1343   -2.9859 H   0  0  0  0  0  0  0  0  0  0  0  0
   -4.7837   -4.0889   -4.0343 H   0  0  0  0  0  0  0  0  0  0  0  0
   -4.3964   -1.5701   -2.1878 H   0  0  0  0  0  0  0  0  0  0  0  0
    0.4311    2.3657   -1.5544 H   0  0  0  0  0  0  0  0  0  0  0  0
    2.3181    1.8390   -2.9755 H   0  0  0  0  0  0  0  0  0  0  0  0
    5.5301    0.7596   -1.8712 H   0  0  0  0  0  0  0  0  0  0  0  0
  1 28  1  0  0  0  0
  1 29  1  0  0  0  0
  1 30  1  0  0  0  0
  2  1  1  0  0  0  0
  3  2  1  0  0  0  0
  4  3  2  0  0  0  0
  4 31  1  0  0  0  0
  5  4  1  0  0  0  0
  6  5  1  0  0  0  0
  6 32  1  0  0  0  0
  7  6  2  0  0  0  0
  7 33  1  0  0  0  0
  8  7  1  0  0  0  0
  9  8  2  0  0  0  0
 10  8  1  0  0  0  0
 10 34  1  0  0  0  0
 10 35  1  0  0  0  0
 11 10  1  0  0  0  0
 12 11  2  0  0  0  0
 13 11  1  0  0  0  0
 13 36  1  0  0  0  0
 14 13  2  0  0  0  0
 14 37  1  0  0  0  0
 15 14  1  0  0  0  0
 16 15  2  0  0  0  0
 16 38  1  0  0  0  0
 17 16  1  0  0  0  0
 17 39  1  0  0  0  0
 18 17  2  0  0  0  0
 19 18  1  0  0  0  0
 19 40  1  0  0  0  0
 20 18  1  0  0  0  0
 21 20  1  0  0  0  0
 22 21  1  0  0  0  0
 22 41  1  0  0  0  0
 22 42  1  0  0  0  0
 22 43  1  0  0  0  0
 23 20  2  0  0  0  0
 23 15  1  0  0  0  0
 23 44  1  0  0  0  0
 24  5  2  0  0  0  0
 24 45  1  0  0  0  0
 25 24  1  0  0  0  0
 25 46  1  0  0  0  0
 26 25  2  0  0  0  0
 26  3  1  0  0  0  0
 27 26  1  0  0  0  0
 27 47  1  0  0  0  0
M  END
>  <MOL Chiral Flag>
0

>  <energy>
49.54143597488266

$$$$
> 581_AKC_j.bmc.2010.01.003
>563.sdf
 OpenBabel10102216433D

 98104  0  0  1  0  0  0  0  0999 V2000
   -0.2050   -2.1326    1.3098 H   0  0  0  0  0  0  0  0  0  0  0  0
   -0.0510   -1.1376    0.8381 C   0  0  1  0  0  0  0  0  0  0  0  0
   -1.4924   -0.8119    0.3216 C   0  0  0  0  0  0  0  0  0  0  0  0
   -1.9173   -1.2680   -1.1271 C   0  0  2  0  0  0  0  0  0  0  0  0
   -3.4078   -1.7823   -1.3017 C   0  0  1  0  0  0  0  0  0  0  0  0
   -3.5870   -3.1318   -0.5423 C   0  0  0  0  0  0  0  0  0  0  0  0
   -4.3989   -0.7452   -0.6730 C   0  0  0  0  0  0  0  0  0  0  0  0
   -5.8769   -1.0452   -0.9986 C   0  0  0  0  0  0  0  0  0  0  0  0
   -6.1133   -1.0493   -2.5161 C   0  0  2  0  0  0  0  0  0  0  0  0
   -7.4801   -1.2765   -2.7646 O   0  0  0  0  0  0  0  0  0  0  0  0
   -5.2189   -2.0828   -3.2802 C   0  0  0  0  0  0  0  0  0  0  0  0
   -5.4111   -1.8175   -4.8002 C   0  0  0  0  0  0  0  0  0  0  0  0
   -5.6900   -3.5410   -3.0429 C   0  0  0  0  0  0  0  0  0  0  0  0
   -3.7118   -1.8062   -2.8665 C   0  0  2  0  0  0  0  0  0  0  0  0
   -2.6408   -2.6188   -3.6479 C   0  0  0  0  0  0  0  0  0  0  0  0
   -1.2271   -2.0036   -3.4504 C   0  0  0  0  0  0  0  0  0  0  0  0
   -0.7668   -1.9681   -1.9618 C   0  0  2  0  0  0  0  0  0  0  0  0
   -0.5202   -3.4605   -1.5443 C   0  0  0  0  0  0  0  0  0  0  0  0
    0.5779   -1.0896   -1.7409 C   0  0  2  0  0  0  0  0  0  0  0  0
    0.2993    0.4535   -2.0080 C   0  0  0  0  0  0  0  0  0  0  0  0
    1.7667   -1.4228   -2.7240 C   0  0  0  0  0  0  0  0  0  0  0  0
    3.1318   -0.7168   -2.3234 C   0  0  0  0  0  0  0  0  0  0  0  0
    3.5438   -1.0113   -0.8442 C   0  0  1  0  0  0  0  0  0  0  0  0
    4.1068   -2.4795   -0.7800 C   0  0  0  0  0  0  0  0  0  0  0  0
    3.3653   -3.4364   -1.4355 O   0  0  0  0  0  0  0  0  0  0  0  0
    3.7625   -4.7329   -1.5416 C   0  0  0  0  0  0  0  0  0  0  0  0
    3.0491   -5.6550   -2.4759 C   0  0  0  0  0  0  0  0  0  0  0  0
    4.7212   -5.1475   -0.9045 O   0  0  0  0  0  0  0  0  0  0  0  0
    4.5992   -0.0368   -0.1859 C   0  0  0  0  0  0  0  0  0  0  0  0
    3.9340    0.5795    1.1010 C   0  0  0  0  0  0  0  0  0  0  0  0
    2.8351   -0.4542    1.4951 C   0  0  2  0  0  0  0  0  0  0  0  0
    3.4313   -1.5697    2.4793 C   0  0  0  0  0  0  0  0  0  0  0  0
    2.5913   -2.8558    2.5215 C   0  0  0  0  0  0  0  0  0  0  0  0
    4.9632   -1.8499    2.5372 C   0  0  0  0  0  0  0  0  0  0  0  0
    2.3459   -0.6783    0.0457 C   0  0  2  0  0  0  0  0  0  0  0  0
    1.0532   -1.3984   -0.2512 C   0  0  1  0  0  0  0  0  0  0  0  0
    1.6634    0.1060    2.1994 N   0  0  0  0  0  0  0  0  0  0  0  0
    0.3975   -0.2235    1.9363 N   0  0  0  0  0  0  0  0  0  0  0  0
   -0.3701    0.3520    2.9122 C   0  0  0  0  0  0  0  0  0  0  0  0
   -1.5769    0.2202    2.9869 O   0  0  0  0  0  0  0  0  0  0  0  0
    0.3929    1.0751    3.7991 N   0  0  0  0  0  0  0  0  0  0  0  0
    1.6632    0.8912    3.3128 C   0  0  0  0  0  0  0  0  0  0  0  0
    2.6789    1.3192    3.8301 O   0  0  0  0  0  0  0  0  0  0  0  0
   -1.6284    0.2913    0.3572 H   0  0  0  0  0  0  0  0  0  0  0  0
   -2.2096   -1.1687    1.0840 H   0  0  0  0  0  0  0  0  0  0  0  0
   -2.0208   -0.2984   -1.6497 H   0  0  0  0  0  0  0  0  0  0  0  0
   -3.1451   -3.9939   -1.0482 H   0  0  0  0  0  0  0  0  0  0  0  0
   -4.6265   -3.4150   -0.3541 H   0  0  0  0  0  0  0  0  0  0  0  0
   -3.1663   -3.0697    0.4802 H   0  0  0  0  0  0  0  0  0  0  0  0
   -4.1780    0.2694   -1.0748 H   0  0  0  0  0  0  0  0  0  0  0  0
   -4.2849   -0.6902    0.4292 H   0  0  0  0  0  0  0  0  0  0  0  0
   -6.5051   -0.2488   -0.5422 H   0  0  0  0  0  0  0  0  0  0  0  0
   -6.2124   -2.0008   -0.5546 H   0  0  0  0  0  0  0  0  0  0  0  0
   -5.8323   -0.0211   -2.8578 H   0  0  0  0  0  0  0  0  0  0  0  0
   -7.7744   -0.6209   -3.4496 H   0  0  0  0  0  0  0  0  0  0  0  0
   -6.4788   -1.9191   -5.0910 H   0  0  0  0  0  0  0  0  0  0  0  0
   -5.0830   -0.7915   -5.0723 H   0  0  0  0  0  0  0  0  0  0  0  0
   -4.8587   -2.5447   -5.4278 H   0  0  0  0  0  0  0  0  0  0  0  0
   -5.0357   -4.2584   -3.5805 H   0  0  0  0  0  0  0  0  0  0  0  0
   -6.7225   -3.6794   -3.4298 H   0  0  0  0  0  0  0  0  0  0  0  0
   -5.7476   -3.8430   -1.9951 H   0  0  0  0  0  0  0  0  0  0  0  0
   -3.5540   -0.7576   -3.2138 H   0  0  0  0  0  0  0  0  0  0  0  0
   -2.8255   -2.5627   -4.7368 H   0  0  0  0  0  0  0  0  0  0  0  0
   -2.6934   -3.6894   -3.3794 H   0  0  0  0  0  0  0  0  0  0  0  0
   -1.2809   -0.9774   -3.8624 H   0  0  0  0  0  0  0  0  0  0  0  0
   -0.4892   -2.5605   -4.0680 H   0  0  0  0  0  0  0  0  0  0  0  0
   -1.2914   -4.1671   -1.8584 H   0  0  0  0  0  0  0  0  0  0  0  0
    0.3830   -3.8663   -2.0336 H   0  0  0  0  0  0  0  0  0  0  0  0
   -0.4300   -3.6010   -0.4518 H   0  0  0  0  0  0  0  0  0  0  0  0
   -0.3785    0.9385   -1.2920 H   0  0  0  0  0  0  0  0  0  0  0  0
    1.1706    1.1218   -1.9597 H   0  0  0  0  0  0  0  0  0  0  0  0
   -0.0932    0.6198   -3.0291 H   0  0  0  0  0  0  0  0  0  0  0  0
    1.5030   -1.1242   -3.7615 H   0  0  0  0  0  0  0  0  0  0  0  0
    1.8944   -2.5055   -2.7955 H   0  0  0  0  0  0  0  0  0  0  0  0
    3.9445   -1.0110   -3.0222 H   0  0  0  0  0  0  0  0  0  0  0  0
    3.0367    0.3757   -2.4505 H   0  0  0  0  0  0  0  0  0  0  0  0
    5.1117   -2.4659   -1.2600 H   0  0  0  0  0  0  0  0  0  0  0  0
    4.2155   -2.8221    0.2344 H   0  0  0  0  0  0  0  0  0  0  0  0
    2.2297   -5.1213   -2.9993 H   0  0  0  0  0  0  0  0  0  0  0  0
    3.7660   -6.0322   -3.2364 H   0  0  0  0  0  0  0  0  0  0  0  0
    2.6283   -6.5133   -1.9131 H   0  0  0  0  0  0  0  0  0  0  0  0
    4.9673    0.7634   -0.8629 H   0  0  0  0  0  0  0  0  0  0  0  0
    5.4948   -0.6109    0.1264 H   0  0  0  0  0  0  0  0  0  0  0  0
    4.6282    0.9306    1.8909 H   0  0  0  0  0  0  0  0  0  0  0  0
    3.4296    1.5193    0.7733 H   0  0  0  0  0  0  0  0  0  0  0  0
    3.3159   -1.1368    3.4967 H   0  0  0  0  0  0  0  0  0  0  0  0
    2.6203   -3.4188    1.5719 H   0  0  0  0  0  0  0  0  0  0  0  0
    2.9572   -3.5253    3.3288 H   0  0  0  0  0  0  0  0  0  0  0  0
    1.5365   -2.6161    2.7585 H   0  0  0  0  0  0  0  0  0  0  0  0
    5.5201   -0.9170    2.7542 H   0  0  0  0  0  0  0  0  0  0  0  0
    5.4668   -2.3131    1.6824 H   0  0  0  0  0  0  0  0  0  0  0  0
    5.1709   -2.5259    3.3947 H   0  0  0  0  0  0  0  0  0  0  0  0
    2.0197    0.3468   -0.2244 H   0  0  0  0  0  0  0  0  0  0  0  0
    1.3461   -2.4606   -0.1553 H   0  0  0  0  0  0  0  0  0  0  0  0
   -0.0353    1.8371    4.9531 C   0  0  0  0  0  0  0  0  0  0  0  0
    0.8330    2.2869    5.4347 H   0  0  0  0  0  0  0  0  0  0  0  0
   -0.7216    2.6220    4.6355 H   0  0  0  0  0  0  0  0  0  0  0  0
   -0.5400    1.1763    5.6579 H   0  0  0  0  0  0  0  0  0  0  0  0
  2  1  1  1  0  0  0
  3  2  1  0  0  0  0
  3 44  1  0  0  0  0
  3 45  1  0  0  0  0
  4  3  1  0  0  0  0
  4 46  1  6  0  0  0
  5  4  1  0  0  0  0
  5  6  1  1  0  0  0
  6 47  1  0  0  0  0
  6 48  1  0  0  0  0
  6 49  1  0  0  0  0
  7  5  1  0  0  0  0
  7 50  1  0  0  0  0
  7 51  1  0  0  0  0
  8  7  1  0  0  0  0
  8 52  1  0  0  0  0
  8 53  1  0  0  0  0
  9  8  1  0  0  0  0
  9 54  1  6  0  0  0
 10  9  1  0  0  0  0
 10 55  1  0  0  0  0
 11  9  1  0  0  0  0
 12 11  1  0  0  0  0
 12 56  1  0  0  0  0
 12 57  1  0  0  0  0
 12 58  1  0  0  0  0
 13 11  1  0  0  0  0
 13 59  1  0  0  0  0
 13 60  1  0  0  0  0
 13 61  1  0  0  0  0
 14 11  1  0  0  0  0
 14  5  1  0  0  0  0
 14 62  1  6  0  0  0
 15 14  1  0  0  0  0
 15 63  1  0  0  0  0
 15 64  1  0  0  0  0
 16 15  1  0  0  0  0
 16 65  1  0  0  0  0
 16 66  1  0  0  0  0
 17 16  1  0  0  0  0
 17  4  1  0  0  0  0
 17 18  1  1  0  0  0
 18 67  1  0  0  0  0
 18 68  1  0  0  0  0
 18 69  1  0  0  0  0
 19 17  1  0  0  0  0
 19 20  1  6  0  0  0
 20 70  1  0  0  0  0
 20 71  1  0  0  0  0
 20 72  1  0  0  0  0
 21 19  1  0  0  0  0
 21 73  1  0  0  0  0
 21 74  1  0  0  0  0
 22 21  1  0  0  0  0
 22 75  1  0  0  0  0
 22 76  1  0  0  0  0
 23 22  1  0  0  0  0
 23 24  1  1  0  0  0
 24 77  1  0  0  0  0
 24 78  1  0  0  0  0
 25 24  1  0  0  0  0
 26 25  1  0  0  0  0
 27 26  1  0  0  0  0
 27 79  1  0  0  0  0
 27 80  1  0  0  0  0
 27 81  1  0  0  0  0
 28 26  2  0  0  0  0
 29 23  1  0  0  0  0
 29 82  1  0  0  0  0
 29 83  1  0  0  0  0
 30 29  1  0  0  0  0
 30 84  1  0  0  0  0
 30 85  1  0  0  0  0
 31 30  1  0  0  0  0
 31 32  1  1  0  0  0
 32 86  1  0  0  0  0
 33 32  1  0  0  0  0
 33 87  1  0  0  0  0
 33 88  1  0  0  0  0
 33 89  1  0  0  0  0
 34 32  1  0  0  0  0
 34 90  1  0  0  0  0
 34 91  1  0  0  0  0
 34 92  1  0  0  0  0
 35 31  1  0  0  0  0
 35 23  1  0  0  0  0
 35 93  1  6  0  0  0
 36 35  1  0  0  0  0
 36  2  1  0  0  0  0
 36 19  1  0  0  0  0
 36 94  1  1  0  0  0
 37 31  1  0  0  0  0
 38 37  1  0  0  0  0
 38  2  1  0  0  0  0
 39 38  1  0  0  0  0
 40 39  2  0  0  0  0
 41 39  1  0  0  0  0
 42 41  1  0  0  0  0
 42 37  1  0  0  0  0
 43 42  2  0  0  0  0
 95 41  1  0  0  0  0
 96 95  1  0  0  0  0
 97 95  1  0  0  0  0
 98 95  1  0  0  0  0
M  END
$$$$
> 582_AKC_s00436-010-1973-0
>564.sdf
 OpenBabel10102216453D

 47 48  0  0  0  0  0  0  0  0999 V2000
   -3.7689    0.0821   -0.3051 C   0  0  0  0  0  0  0  0  0  0  0  0
   -4.7924   -0.9460    0.1656 C   0  0  0  0  0  0  0  0  0  0  0  0
   -4.3080   -1.9366    1.2472 C   0  0  2  0  0  0  0  0  0  0  0  0
   -4.0320   -1.2642    2.5997 C   0  0  0  0  0  0  0  0  0  0  0  0
   -3.1324   -2.8092    0.8365 C   0  0  0  0  0  0  0  0  0  0  0  0
   -3.3357   -4.0063    0.6802 O   0  0  0  0  0  0  0  0  0  0  0  0
   -1.8540   -2.3160    0.7498 N   0  0  0  0  0  0  0  0  0  0  0  0
   -0.7197   -3.2202    0.5762 C   0  0  1  0  0  0  0  0  0  0  0  0
   -0.6702   -3.8703   -0.8261 C   0  0  0  0  0  0  0  0  0  0  0  0
    0.0888   -2.9680   -1.7701 C   0  0  0  0  0  0  0  0  0  0  0  0
    1.4880   -2.8391   -1.2241 C   0  0  0  0  0  0  0  0  0  0  0  0
    2.4327   -3.0135   -1.9788 O   0  0  0  0  0  0  0  0  0  0  0  0
    1.6868   -2.5237    0.1003 N   0  0  0  0  0  0  0  0  0  0  0  0
    3.0440   -2.2843    0.6349 C   0  0  0  0  0  0  0  0  0  0  0  0
    3.9358   -1.2997   -0.1515 C   0  0  0  0  0  0  0  0  0  0  0  0
    3.3791    0.0847   -0.3344 C   0  0  0  0  0  0  0  0  0  0  0  0
    3.1204    0.9096    0.7721 C   0  0  0  0  0  0  0  0  0  0  0  0
    2.6528    2.2144    0.5785 C   0  0  0  0  0  0  0  0  0  0  0  0
    2.4404    2.6997   -0.7159 C   0  0  0  0  0  0  0  0  0  0  0  0
    2.6931    1.8820   -1.8195 C   0  0  0  0  0  0  0  0  0  0  0  0
    3.1620    0.5806   -1.6319 C   0  0  0  0  0  0  0  0  0  0  0  0
    0.6131   -2.5712    0.9723 C   0  0  0  0  0  0  0  0  0  0  0  0
    0.7461   -2.2155    2.1358 O   0  0  0  0  0  0  0  0  0  0  0  0
   -2.9216   -0.4197   -0.8138 H   0  0  0  0  0  0  0  0  0  0  0  0
   -3.4000    0.6951    0.5417 H   0  0  0  0  0  0  0  0  0  0  0  0
   -4.2533    0.7580   -1.0414 H   0  0  0  0  0  0  0  0  0  0  0  0
   -5.1348   -1.5232   -0.7209 H   0  0  0  0  0  0  0  0  0  0  0  0
   -5.6765   -0.4024    0.5687 H   0  0  0  0  0  0  0  0  0  0  0  0
   -5.1765   -2.6154    1.4146 H   0  0  0  0  0  0  0  0  0  0  0  0
   -3.7763   -2.0364    3.3579 H   0  0  0  0  0  0  0  0  0  0  0  0
   -3.1924   -0.5432    2.5392 H   0  0  0  0  0  0  0  0  0  0  0  0
   -4.9371   -0.7257    2.9518 H   0  0  0  0  0  0  0  0  0  0  0  0
   -1.6765   -1.3215    0.9526 H   0  0  0  0  0  0  0  0  0  0  0  0
   -0.8694   -4.0521    1.3010 H   0  0  0  0  0  0  0  0  0  0  0  0
   -1.6847   -4.1083   -1.2065 H   0  0  0  0  0  0  0  0  0  0  0  0
   -0.1039   -4.8277   -0.7710 H   0  0  0  0  0  0  0  0  0  0  0  0
    0.1093   -3.3755   -2.8044 H   0  0  0  0  0  0  0  0  0  0  0  0
   -0.4047   -1.9712   -1.7925 H   0  0  0  0  0  0  0  0  0  0  0  0
    3.0142   -1.9498    1.6938 H   0  0  0  0  0  0  0  0  0  0  0  0
    3.5865   -3.2547    0.6367 H   0  0  0  0  0  0  0  0  0  0  0  0
    4.9075   -1.2151    0.3829 H   0  0  0  0  0  0  0  0  0  0  0  0
    4.1877   -1.7349   -1.1373 H   0  0  0  0  0  0  0  0  0  0  0  0
    3.2958    0.5489    1.7777 H   0  0  0  0  0  0  0  0  0  0  0  0
    2.4629    2.8529    1.4311 H   0  0  0  0  0  0  0  0  0  0  0  0
    2.0848    3.7108   -0.8647 H   0  0  0  0  0  0  0  0  0  0  0  0
    2.5340    2.2582   -2.8219 H   0  0  0  0  0  0  0  0  0  0  0  0
    3.3656   -0.0381   -2.4976 H   0  0  0  0  0  0  0  0  0  0  0  0
  1 24  1  0  0  0  0
  1 25  1  0  0  0  0
  1 26  1  0  0  0  0
  2  1  1  0  0  0  0
  2 27  1  0  0  0  0
  2 28  1  0  0  0  0
  3  2  1  0  0  0  0
  3 29  1  1  0  0  0
  4  3  1  0  0  0  0
  4 30  1  0  0  0  0
  4 31  1  0  0  0  0
  4 32  1  0  0  0  0
  5  3  1  0  0  0  0
  6  5  2  0  0  0  0
  7  5  1  0  0  0  0
  7 33  1  0  0  0  0
  8  7  1  0  0  0  0
  8 34  1  1  0  0  0
  9  8  1  0  0  0  0
  9 35  1  0  0  0  0
  9 36  1  0  0  0  0
 10  9  1  0  0  0  0
 10 37  1  0  0  0  0
 10 38  1  0  0  0  0
 11 10  1  0  0  0  0
 12 11  2  0  0  0  0
 13 11  1  0  0  0  0
 14 13  1  0  0  0  0
 14 39  1  0  0  0  0
 14 40  1  0  0  0  0
 15 14  1  0  0  0  0
 15 41  1  0  0  0  0
 15 42  1  0  0  0  0
 16 15  1  0  0  0  0
 17 16  2  0  0  0  0
 17 43  1  0  0  0  0
 18 17  1  0  0  0  0
 18 44  1  0  0  0  0
 19 18  2  0  0  0  0
 19 45  1  0  0  0  0
 20 19  1  0  0  0  0
 20 46  1  0  0  0  0
 21 20  2  0  0  0  0
 21 16  1  0  0  0  0
 21 47  1  0  0  0  0
 22 13  1  0  0  0  0
 22  8  1  0  0  0  0
 23 22  2  0  0  0  0
M  END
>  <MOL Chiral Flag>
0

>  <energy>
-5.7729545401201392

$$$$
> 583_AKC_j.ejmech.2010.04.004
>565.sdf
 OpenBabel10062215273D

 51 55  0  0  0  0  0  0  0  0999 V2000
   -5.7737    1.6271   -0.7419 C   0  0  0  0  0  0  0  0  0  0  0  0
   -5.2801    0.3638   -0.4730 O   0  0  0  0  0  0  0  0  0  0  0  0
   -3.9850    0.0896   -0.1724 C   0  0  0  0  0  0  0  0  0  0  0  0
   -3.2160    0.9065    0.6887 C   0  0  0  0  0  0  0  0  0  0  0  0
   -3.8123    1.9631    1.3048 O   0  0  0  0  0  0  0  0  0  0  0  0
   -3.2648    2.7086    2.3281 C   0  0  0  0  0  0  0  0  0  0  0  0
   -1.8531    0.5948    0.9022 C   0  0  0  0  0  0  0  0  0  0  0  0
   -1.2581   -0.5124    0.2683 C   0  0  0  0  0  0  0  0  0  0  0  0
   -2.0762   -1.3548   -0.5141 C   0  0  0  0  0  0  0  0  0  0  0  0
   -3.4142   -1.0510   -0.7305 C   0  0  0  0  0  0  0  0  0  0  0  0
    0.2407   -0.7934    0.4395 C   0  0  1  0  0  0  0  0  0  0  0  0
    0.7016   -1.8632   -0.4642 N   0  0  0  0  0  0  0  0  0  0  0  0
    0.7768   -1.5618   -1.9040 C   0  0  0  0  0  0  0  0  0  0  0  0
    1.7792   -0.4201   -2.1780 C   0  0  0  0  0  0  0  0  0  0  0  0
    1.7802    0.5750   -1.0548 C   0  0  0  0  0  0  0  0  0  0  0  0
    1.0795    0.4193    0.1298 C   0  0  0  0  0  0  0  0  0  0  0  0
    1.3455    1.4459    0.9719 N   0  0  0  0  0  0  0  0  0  0  0  0
    2.2155    2.2441    0.3229 C   0  0  0  0  0  0  0  0  0  0  0  0
    2.8131    3.4090    0.7980 C   0  0  0  0  0  0  0  0  0  0  0  0
    3.7247    4.0733   -0.0445 C   0  0  0  0  0  0  0  0  0  0  0  0
    4.0107    3.5624   -1.3328 C   0  0  0  0  0  0  0  0  0  0  0  0
    3.3922    2.3799   -1.7832 C   0  0  0  0  0  0  0  0  0  0  0  0
    2.4997    1.7425   -0.9238 C   0  0  0  0  0  0  0  0  0  0  0  0
    1.0974   -3.1391    0.0550 C   0  0  0  0  0  0  0  0  0  0  0  0
    1.1260   -3.3544    1.4005 N   0  0  0  0  0  0  0  0  0  0  0  0
    1.4841   -4.5570    1.9172 C   0  0  0  0  0  0  0  0  0  0  0  0
    1.5173   -4.7844    3.6543 Cl  0  0  0  0  0  0  0  0  0  0  0  0
    1.8198   -5.6040    1.0630 C   0  0  0  0  0  0  0  0  0  0  0  0
    1.7852   -5.3775   -0.3121 C   0  0  0  0  0  0  0  0  0  0  0  0
    2.1875   -6.6663   -1.4278 Cl  0  0  0  0  0  0  0  0  0  0  0  0
    1.4315   -4.1554   -0.7901 N   0  0  0  0  0  0  0  0  0  0  0  0
   -6.5148    1.9144    0.0300 H   0  0  0  0  0  0  0  0  0  0  0  0
   -4.9707    2.3931   -0.8071 H   0  0  0  0  0  0  0  0  0  0  0  0
   -6.2729    1.6070   -1.7332 H   0  0  0  0  0  0  0  0  0  0  0  0
   -2.3323    3.2113    1.9981 H   0  0  0  0  0  0  0  0  0  0  0  0
   -3.0632    2.0536    3.2035 H   0  0  0  0  0  0  0  0  0  0  0  0
   -3.9941    3.4858    2.6351 H   0  0  0  0  0  0  0  0  0  0  0  0
   -1.2520    1.2220    1.5397 H   0  0  0  0  0  0  0  0  0  0  0  0
   -1.6858   -2.2494   -0.9772 H   0  0  0  0  0  0  0  0  0  0  0  0
   -4.0096   -1.6986   -1.3621 H   0  0  0  0  0  0  0  0  0  0  0  0
    0.4099   -1.0552    1.5046 H   0  0  0  0  0  0  0  0  0  0  0  0
    1.0458   -2.4363   -2.5326 H   0  0  0  0  0  0  0  0  0  0  0  0
   -0.2147   -1.2184   -2.2553 H   0  0  0  0  0  0  0  0  0  0  0  0
    2.8085   -0.8279   -2.2333 H   0  0  0  0  0  0  0  0  0  0  0  0
    1.5287    0.0555   -3.1526 H   0  0  0  0  0  0  0  0  0  0  0  0
    0.9887    1.5749    1.9445 H   0  0  0  0  0  0  0  0  0  0  0  0
    2.5938    3.7860    1.7885 H   0  0  0  0  0  0  0  0  0  0  0  0
    4.2134    4.9765    0.2974 H   0  0  0  0  0  0  0  0  0  0  0  0
    4.7150    4.0788   -1.9721 H   0  0  0  0  0  0  0  0  0  0  0  0
    3.6114    1.9765   -2.7633 H   0  0  0  0  0  0  0  0  0  0  0  0
    2.1000   -6.5718    1.4594 H   0  0  0  0  0  0  0  0  0  0  0  0
  1 32  1  0  0  0  0
  1 33  1  0  0  0  0
  1 34  1  0  0  0  0
  2  1  1  0  0  0  0
  3  2  1  0  0  0  0
  4  3  2  0  0  0  0
  5  4  1  0  0  0  0
  6  5  1  0  0  0  0
  6 35  1  0  0  0  0
  6 36  1  0  0  0  0
  6 37  1  0  0  0  0
  7  4  1  0  0  0  0
  7 38  1  0  0  0  0
  8  7  2  0  0  0  0
  9  8  1  0  0  0  0
  9 39  1  0  0  0  0
 10  9  2  0  0  0  0
 10  3  1  0  0  0  0
 10 40  1  0  0  0  0
 11  8  1  0  0  0  0
 11 41  1  1  0  0  0
 12 11  1  0  0  0  0
 13 12  1  0  0  0  0
 13 42  1  0  0  0  0
 13 43  1  0  0  0  0
 14 13  1  0  0  0  0
 14 44  1  0  0  0  0
 14 45  1  0  0  0  0
 15 14  1  0  0  0  0
 16 15  2  0  0  0  0
 16 11  1  0  0  0  0
 17 16  1  0  0  0  0
 17 46  1  0  0  0  0
 18 17  1  0  0  0  0
 19 18  2  0  0  0  0
 19 47  1  0  0  0  0
 20 19  1  0  0  0  0
 20 48  1  0  0  0  0
 21 20  2  0  0  0  0
 21 49  1  0  0  0  0
 22 21  1  0  0  0  0
 22 50  1  0  0  0  0
 23 22  2  0  0  0  0
 23 15  1  0  0  0  0
 23 18  1  0  0  0  0
 24 12  1  0  0  0  0
 25 24  2  0  0  0  0
 26 25  1  0  0  0  0
 27 26  1  0  0  0  0
 28 26  2  0  0  0  0
 28 51  1  0  0  0  0
 29 28  1  0  0  0  0
 30 29  1  0  0  0  0
 31 29  2  0  0  0  0
 31 24  1  0  0  0  0
M  END
>  <MOL Chiral Flag>
0

>  <energy>
-47.463496753986277

$$$$
> 584_AKC_j.bmcl.2009.10.117
>566.sdf
 OpenBabel10062215273D

 42 44  0  0  0  0  0  0  0  0999 V2000
    4.4883    5.4432    0.5658 O   0  5  0  0  0  0  0  0  0  0  0  0
    4.1300    4.5622   -0.3439 N   0  3  0  0  0  0  0  0  0  0  0  0
    4.6223    4.6145   -1.4317 O   0  0  0  0  0  0  0  0  0  0  0  0
    3.1439    3.5737   -0.0435 C   0  0  0  0  0  0  0  0  0  0  0  0
    2.7273    2.6485   -1.0218 C   0  0  0  0  0  0  0  0  0  0  0  0
    1.7402    1.7003   -0.7281 C   0  0  0  0  0  0  0  0  0  0  0  0
    1.1631    1.6560    0.5530 C   0  0  0  0  0  0  0  0  0  0  0  0
    0.1782    0.7780    0.8695 O   0  0  0  0  0  0  0  0  0  0  0  0
   -0.9084    0.5015    0.0551 C   0  0  1  0  0  0  0  0  0  0  0  0
   -1.0542   -1.0068   -0.2045 C   0  0  0  0  0  0  0  0  0  0  0  0
    0.0180   -1.5529   -0.8829 O   0  0  0  0  0  0  0  0  0  0  0  0
    0.5767   -2.7135   -0.4705 C   0  0  0  0  0  0  0  0  0  0  0  0
    1.3081   -2.7803    0.7256 C   0  0  0  0  0  0  0  0  0  0  0  0
    1.8321   -4.0052    1.1560 C   0  0  0  0  0  0  0  0  0  0  0  0
    1.6209   -5.1633    0.3996 C   0  0  0  0  0  0  0  0  0  0  0  0
    0.8962   -5.0968   -0.7938 C   0  0  0  0  0  0  0  0  0  0  0  0
    0.3810   -3.8735   -1.2312 C   0  0  0  0  0  0  0  0  0  0  0  0
   -2.1575    1.0115    0.7985 C   0  0  0  0  0  0  0  0  0  0  0  0
   -3.3787    0.7991    0.0233 N   0  0  0  0  0  0  0  0  0  0  0  0
   -4.3989   -0.0118    0.3446 C   0  0  0  0  0  0  0  0  0  0  0  0
   -5.3440    0.0792   -0.6511 C   0  0  0  0  0  0  0  0  0  0  0  0
   -4.9136    0.9504   -1.5882 N   0  0  0  0  0  0  0  0  0  0  0  0
   -3.7094    1.3732   -1.1489 C   0  0  0  0  0  0  0  0  0  0  0  0
    1.5937    2.5569    1.5318 C   0  0  0  0  0  0  0  0  0  0  0  0
    2.5673    3.5142    1.2380 C   0  0  0  0  0  0  0  0  0  0  0  0
    3.1590    2.6672   -2.0144 H   0  0  0  0  0  0  0  0  0  0  0  0
    1.4303    1.0032   -1.4956 H   0  0  0  0  0  0  0  0  0  0  0  0
   -0.8338    1.0387   -0.9172 H   0  0  0  0  0  0  0  0  0  0  0  0
   -1.2412   -1.5431    0.7550 H   0  0  0  0  0  0  0  0  0  0  0  0
   -1.9466   -1.1606   -0.8472 H   0  0  0  0  0  0  0  0  0  0  0  0
    1.4638   -1.8891    1.3199 H   0  0  0  0  0  0  0  0  0  0  0  0
    2.3935   -4.0595    2.0795 H   0  0  0  0  0  0  0  0  0  0  0  0
    2.0149   -6.1125    0.7393 H   0  0  0  0  0  0  0  0  0  0  0  0
    0.7260   -5.9938   -1.3755 H   0  0  0  0  0  0  0  0  0  0  0  0
   -0.1926   -3.8292   -2.1487 H   0  0  0  0  0  0  0  0  0  0  0  0
   -2.2308    0.4717    1.7696 H   0  0  0  0  0  0  0  0  0  0  0  0
   -2.0553    2.0956    1.0226 H   0  0  0  0  0  0  0  0  0  0  0  0
   -4.4467   -0.6300    1.2321 H   0  0  0  0  0  0  0  0  0  0  0  0
   -6.2837   -0.4541   -0.6951 H   0  0  0  0  0  0  0  0  0  0  0  0
   -3.0920    2.0909   -1.6735 H   0  0  0  0  0  0  0  0  0  0  0  0
    1.1493    2.5329    2.5190 H   0  0  0  0  0  0  0  0  0  0  0  0
    2.8640    4.2131    2.0094 H   0  0  0  0  0  0  0  0  0  0  0  0
  2  1  1  0  0  0  0
  3  2  2  0  0  0  0
  4  2  1  0  0  0  0
  5  4  2  0  0  0  0
  5 26  1  0  0  0  0
  6  5  1  0  0  0  0
  6 27  1  0  0  0  0
  7  6  2  0  0  0  0
  8  7  1  0  0  0  0
  9  8  1  0  0  0  0
  9 28  1  6  0  0  0
 10  9  1  0  0  0  0
 10 29  1  0  0  0  0
 10 30  1  0  0  0  0
 11 10  1  0  0  0  0
 12 11  1  0  0  0  0
 13 12  2  0  0  0  0
 13 31  1  0  0  0  0
 14 13  1  0  0  0  0
 14 32  1  0  0  0  0
 15 14  2  0  0  0  0
 15 33  1  0  0  0  0
 16 15  1  0  0  0  0
 16 34  1  0  0  0  0
 17 16  2  0  0  0  0
 17 12  1  0  0  0  0
 17 35  1  0  0  0  0
 18  9  1  0  0  0  0
 18 36  1  0  0  0  0
 18 37  1  0  0  0  0
 19 18  1  0  0  0  0
 20 19  1  0  0  0  0
 20 38  1  0  0  0  0
 21 20  2  0  0  0  0
 21 39  1  0  0  0  0
 22 21  1  0  0  0  0
 23 22  2  0  0  0  0
 23 19  1  0  0  0  0
 23 40  1  0  0  0  0
 24  7  1  0  0  0  0
 24 41  1  0  0  0  0
 25 24  2  0  0  0  0
 25  4  1  0  0  0  0
 25 42  1  0  0  0  0
M  CHG  2   1  -1   2   1
M  END
>  <MOL Chiral Flag>
0

>  <energy>
88.992223971746682

$$$$
> 585_AKC_14786419.2012.696254
>567.sdf
 OpenBabel10062215273D

 35 36  0  0  0  0  0  0  0  0999 V2000
   -5.0133    0.0124   -1.1370 C   0  0  0  0  0  0  0  0  0  0  0  0
   -4.2235    0.0020    0.1757 C   0  0  0  0  0  0  0  0  0  0  0  0
   -3.9337   -1.4105    0.6237 C   0  0  0  0  0  0  0  0  0  0  0  0
   -3.0735   -2.2507    0.0115 C   0  0  0  0  0  0  0  0  0  0  0  0
   -2.1956   -1.8771   -1.1615 C   0  0  0  0  0  0  0  0  0  0  0  0
   -0.8654   -2.2154   -0.9573 O   0  0  0  0  0  0  0  0  0  0  0  0
   -0.0830   -1.7693    0.0597 C   0  0  0  0  0  0  0  0  0  0  0  0
   -0.2518   -2.2949    1.3515 C   0  0  0  0  0  0  0  0  0  0  0  0
    0.5694   -1.8829    2.3986 C   0  0  0  0  0  0  0  0  0  0  0  0
    1.5732   -0.9443    2.1754 C   0  0  0  0  0  0  0  0  0  0  0  0
    1.7685   -0.4060    0.8928 C   0  0  0  0  0  0  0  0  0  0  0  0
    0.9418   -0.8178   -0.1774 C   0  0  0  0  0  0  0  0  0  0  0  0
    1.1810   -0.2328   -1.5282 C   0  0  0  0  0  0  0  0  0  0  0  0
    0.4940   -0.5594   -2.4834 O   0  0  0  0  0  0  0  0  0  0  0  0
    2.2606    0.7614   -1.7269 C   0  0  0  0  0  0  0  0  0  0  0  0
    3.0485    1.1539   -0.7071 C   0  0  0  0  0  0  0  0  0  0  0  0
    4.1412    2.1673   -0.9348 C   0  0  0  0  0  0  0  0  0  0  0  0
    2.8453    0.5892    0.6525 C   0  0  0  0  0  0  0  0  0  0  0  0
    3.5684    0.9467    1.5715 O   0  0  0  0  0  0  0  0  0  0  0  0
   -4.4511   -0.4563   -1.9687 H   0  0  0  0  0  0  0  0  0  0  0  0
   -5.2554    1.0572   -1.4230 H   0  0  0  0  0  0  0  0  0  0  0  0
   -5.9680   -0.5428   -1.0053 H   0  0  0  0  0  0  0  0  0  0  0  0
   -3.2885    0.5963    0.0987 H   0  0  0  0  0  0  0  0  0  0  0  0
   -4.8698    0.4856    0.9396 H   0  0  0  0  0  0  0  0  0  0  0  0
   -4.4756   -1.7787    1.4899 H   0  0  0  0  0  0  0  0  0  0  0  0
   -2.9979   -3.2646    0.3911 H   0  0  0  0  0  0  0  0  0  0  0  0
   -2.5483   -2.4516   -2.0425 H   0  0  0  0  0  0  0  0  0  0  0  0
   -2.2558   -0.8010   -1.4174 H   0  0  0  0  0  0  0  0  0  0  0  0
   -1.0089   -3.0396    1.5472 H   0  0  0  0  0  0  0  0  0  0  0  0
    0.4321   -2.3004    3.3879 H   0  0  0  0  0  0  0  0  0  0  0  0
    2.2030   -0.6421    3.0029 H   0  0  0  0  0  0  0  0  0  0  0  0
    2.4107    1.1754   -2.7205 H   0  0  0  0  0  0  0  0  0  0  0  0
    3.9655    3.0532   -0.2889 H   0  0  0  0  0  0  0  0  0  0  0  0
    5.1233    1.7194   -0.6744 H   0  0  0  0  0  0  0  0  0  0  0  0
    4.1832    2.5093   -1.9910 H   0  0  0  0  0  0  0  0  0  0  0  0
  1 20  1  0  0  0  0
  1 21  1  0  0  0  0
  1 22  1  0  0  0  0
  2  1  1  0  0  0  0
  2 23  1  0  0  0  0
  2 24  1  0  0  0  0
  3  2  1  0  0  0  0
  3 25  1  0  0  0  0
  4  3  2  0  0  0  0
  4 26  1  0  0  0  0
  5  4  1  0  0  0  0
  5 27  1  0  0  0  0
  5 28  1  0  0  0  0
  6  5  1  0  0  0  0
  7  6  1  0  0  0  0
  8  7  2  0  0  0  0
  8 29  1  0  0  0  0
  9  8  1  0  0  0  0
  9 30  1  0  0  0  0
 10  9  2  0  0  0  0
 10 31  1  0  0  0  0
 11 10  1  0  0  0  0
 12 11  2  0  0  0  0
 12  7  1  0  0  0  0
 13 12  1  0  0  0  0
 14 13  2  0  0  0  0
 15 13  1  0  0  0  0
 15 32  1  0  0  0  0
 16 15  2  0  0  0  0
 17 16  1  0  0  0  0
 17 33  1  0  0  0  0
 17 34  1  0  0  0  0
 17 35  1  0  0  0  0
 18 16  1  0  0  0  0
 18 11  1  0  0  0  0
 19 18  2  0  0  0  0
M  END
>  <MOL Chiral Flag>
0

>  <energy>
53.143248943505391

$$$$
> 586_AKC_jm900564x
>568.sdf
 OpenBabel10062215283D

 58 61  0  0  0  0  0  0  0  0999 V2000
    9.2048    0.8304    1.6194 N   0  0  0  0  0  0  0  0  0  0  0  0
    9.1742    0.0783    0.3999 C   0  0  0  0  0  0  0  0  0  0  0  0
   10.2517   -0.1141   -0.3002 N   0  0  0  0  0  0  0  0  0  0  0  0
   11.4635    0.2921    0.0419 O   0  0  0  0  0  0  0  0  0  0  0  0
    7.8767   -0.4613   -0.1343 C   0  0  0  0  0  0  0  0  0  0  0  0
    6.6920   -0.4636    0.6334 C   0  0  0  0  0  0  0  0  0  0  0  0
    5.4933   -0.9403    0.0951 C   0  0  0  0  0  0  0  0  0  0  0  0
    5.4464   -1.4197   -1.2284 C   0  0  0  0  0  0  0  0  0  0  0  0
    4.2956   -1.8492   -1.8122 O   0  0  0  0  0  0  0  0  0  0  0  0
    3.1658   -2.3067   -1.1618 C   0  0  0  0  0  0  0  0  0  0  0  0
    1.9675   -1.3527   -1.3528 C   0  0  0  0  0  0  0  0  0  0  0  0
    0.7594   -2.0127   -0.6893 C   0  0  0  0  0  0  0  0  0  0  0  0
   -0.5962   -1.2600   -0.6482 C   0  0  0  0  0  0  0  0  0  0  0  0
   -1.5597   -2.2835   -0.0200 C   0  0  0  0  0  0  0  0  0  0  0  0
   -2.9443   -1.9623    0.3415 N   0  0  0  0  0  0  0  0  0  0  0  0
   -3.6865   -2.9570    0.8689 C   0  0  0  0  0  0  0  0  0  0  0  0
   -4.9385   -2.5203    1.2206 C   0  0  0  0  0  0  0  0  0  0  0  0
   -5.8823   -3.4675    1.8535 C   0  0  0  0  0  0  0  0  0  0  0  0
   -6.7735   -3.2122    2.8216 C   0  0  0  0  0  0  0  0  0  0  0  0
   -7.0149   -2.0002    3.5033 N   0  0  0  0  0  0  0  0  0  0  0  0
   -7.9241   -2.2881    4.4647 C   0  0  0  0  0  0  0  0  0  0  0  0
   -8.3433   -1.4682    5.2664 O   0  0  0  0  0  0  0  0  0  0  0  0
   -8.2986   -3.5893    4.4619 N   0  0  0  0  0  0  0  0  0  0  0  0
   -7.6225   -4.2013    3.4741 C   0  0  0  0  0  0  0  0  0  0  0  0
   -7.7053   -5.3927    3.2167 O   0  0  0  0  0  0  0  0  0  0  0  0
   -4.9871   -1.1787    0.8542 C   0  0  0  0  0  0  0  0  0  0  0  0
   -6.0144   -0.2348    0.9153 C   0  0  0  0  0  0  0  0  0  0  0  0
   -5.7564    1.0619    0.4408 C   0  0  0  0  0  0  0  0  0  0  0  0
   -4.4896    1.3908   -0.0890 C   0  0  0  0  0  0  0  0  0  0  0  0
   -3.4676    0.4219   -0.1586 C   0  0  0  0  0  0  0  0  0  0  0  0
   -3.7451   -0.8657    0.3150 C   0  0  0  0  0  0  0  0  0  0  0  0
    6.6194   -1.4354   -1.9856 C   0  0  0  0  0  0  0  0  0  0  0  0
    7.8221   -0.9728   -1.4478 C   0  0  0  0  0  0  0  0  0  0  0  0
   10.0628    1.2630    1.9780 H   0  0  0  0  0  0  0  0  0  0  0  0
    8.3444    1.0524    2.1319 H   0  0  0  0  0  0  0  0  0  0  0  0
   11.6982    0.6194    0.9175 H   0  0  0  0  0  0  0  0  0  0  0  0
    6.6714   -0.1033    1.6484 H   0  0  0  0  0  0  0  0  0  0  0  0
    4.6071   -0.9073    0.7125 H   0  0  0  0  0  0  0  0  0  0  0  0
    2.9245   -3.3063   -1.5848 H   0  0  0  0  0  0  0  0  0  0  0  0
    3.3457   -2.4738   -0.0786 H   0  0  0  0  0  0  0  0  0  0  0  0
    1.7656   -1.2026   -2.4355 H   0  0  0  0  0  0  0  0  0  0  0  0
    2.1909   -0.3730   -0.8795 H   0  0  0  0  0  0  0  0  0  0  0  0
    1.0435   -2.2283    0.3663 H   0  0  0  0  0  0  0  0  0  0  0  0
    0.6078   -2.9815   -1.2180 H   0  0  0  0  0  0  0  0  0  0  0  0
   -0.4928   -0.3483   -0.0220 H   0  0  0  0  0  0  0  0  0  0  0  0
   -0.9398   -0.9841   -1.6691 H   0  0  0  0  0  0  0  0  0  0  0  0
   -1.0907   -2.6312    0.9287 H   0  0  0  0  0  0  0  0  0  0  0  0
   -1.6029   -3.1487   -0.7198 H   0  0  0  0  0  0  0  0  0  0  0  0
   -3.3177   -3.9645    1.0242 H   0  0  0  0  0  0  0  0  0  0  0  0
   -5.7655   -4.5100    1.5679 H   0  0  0  0  0  0  0  0  0  0  0  0
   -6.5598   -1.0896    3.3662 H   0  0  0  0  0  0  0  0  0  0  0  0
   -8.9630   -4.0376    5.1096 H   0  0  0  0  0  0  0  0  0  0  0  0
   -6.9934   -0.4852    1.2972 H   0  0  0  0  0  0  0  0  0  0  0  0
   -6.5379    1.8114    0.4763 H   0  0  0  0  0  0  0  0  0  0  0  0
   -4.3090    2.3945   -0.4534 H   0  0  0  0  0  0  0  0  0  0  0  0
   -2.5094    0.6828   -0.5786 H   0  0  0  0  0  0  0  0  0  0  0  0
    6.5981   -1.8077   -3.0023 H   0  0  0  0  0  0  0  0  0  0  0  0
    8.7069   -0.9953   -2.0710 H   0  0  0  0  0  0  0  0  0  0  0  0
  1 34  1  0  0  0  0
  1 35  1  0  0  0  0
  2  1  1  0  0  0  0
  3  2  2  0  0  0  0
  4  3  1  0  0  0  0
  4 36  1  0  0  0  0
  5  2  1  0  0  0  0
  6  5  2  0  0  0  0
  6 37  1  0  0  0  0
  7  6  1  0  0  0  0
  7 38  1  0  0  0  0
  8  7  2  0  0  0  0
  9  8  1  0  0  0  0
 10  9  1  0  0  0  0
 10 39  1  0  0  0  0
 10 40  1  0  0  0  0
 11 10  1  0  0  0  0
 11 41  1  0  0  0  0
 11 42  1  0  0  0  0
 12 11  1  0  0  0  0
 12 43  1  0  0  0  0
 12 44  1  0  0  0  0
 13 12  1  0  0  0  0
 13 45  1  0  0  0  0
 13 46  1  0  0  0  0
 14 13  1  0  0  0  0
 14 47  1  0  0  0  0
 14 48  1  0  0  0  0
 15 14  1  0  0  0  0
 16 15  1  0  0  0  0
 16 49  1  0  0  0  0
 17 16  2  0  0  0  0
 18 17  1  0  0  0  0
 18 50  1  0  0  0  0
 19 18  2  0  0  0  0
 20 19  1  0  0  0  0
 20 51  1  0  0  0  0
 21 20  1  0  0  0  0
 22 21  2  0  0  0  0
 23 21  1  0  0  0  0
 23 52  1  0  0  0  0
 24 23  1  0  0  0  0
 24 19  1  0  0  0  0
 25 24  2  0  0  0  0
 26 17  1  0  0  0  0
 27 26  2  0  0  0  0
 27 53  1  0  0  0  0
 28 27  1  0  0  0  0
 28 54  1  0  0  0  0
 29 28  2  0  0  0  0
 29 55  1  0  0  0  0
 30 29  1  0  0  0  0
 30 56  1  0  0  0  0
 31 30  2  0  0  0  0
 31 15  1  0  0  0  0
 31 26  1  0  0  0  0
 32  8  1  0  0  0  0
 32 57  1  0  0  0  0
 33 32  2  0  0  0  0
 33  5  1  0  0  0  0
 33 58  1  0  0  0  0
M  END
>  <MOL Chiral Flag>
0

>  <energy>
8.2734008208144445

$$$$
> 587_AKC_ptr.2788
>569.sdf
 OpenBabel10062215303D

 81 85  0  0  0  0  0  0  0  0999 V2000
   -5.1731    4.4921    0.1677 C   0  0  0  0  0  0  0  0  0  0  0  0
   -4.5299    3.7485   -1.0333 C   0  0  0  0  0  0  0  0  0  0  0  0
   -5.6770    3.1098   -1.8436 C   0  0  0  0  0  0  0  0  0  0  0  0
   -3.7333    4.7074   -1.9550 C   0  0  0  0  0  0  0  0  0  0  0  0
   -2.5172    5.3134   -1.2385 C   0  0  0  0  0  0  0  0  0  0  0  0
   -1.5245    4.2567   -0.6647 C   0  0  2  0  0  0  0  0  0  0  0  0
   -0.7183    3.5323   -1.7777 C   0  0  0  0  0  0  0  0  0  0  0  0
    0.3508    2.6132   -1.1350 C   0  0  0  0  0  0  0  0  0  0  0  0
   -0.2365    1.4980   -0.1938 C   0  0  2  0  0  0  0  0  0  0  0  0
   -0.8188    0.4179   -1.1713 C   0  0  0  0  0  0  0  0  0  0  0  0
   -1.4412    2.0088    0.6272 C   0  0  0  0  0  0  0  0  0  0  0  0
   -1.8352    1.3534    1.7425 C   0  0  0  0  0  0  0  0  0  0  0  0
   -1.0818    0.2181    2.3851 C   0  0  0  0  0  0  0  0  0  0  0  0
    0.1977   -0.2738    1.6472 C   0  0  2  0  0  0  0  0  0  0  0  0
    1.1434   -1.2133    2.5362 C   0  0  1  0  0  0  0  0  0  0  0  0
    1.6321   -0.4953    3.8421 C   0  0  0  0  0  0  0  0  0  0  0  0
    0.3280   -2.4711    2.9732 C   0  0  0  0  0  0  0  0  0  0  0  0
    1.1968   -3.5613    3.6319 C   0  0  0  0  0  0  0  0  0  0  0  0
    2.3087   -4.0312    2.6792 C   0  0  2  0  0  0  0  0  0  0  0  0
    3.0491   -5.0495    3.3056 O   0  0  0  0  0  0  0  0  0  0  0  0
    3.2504   -2.8725    2.1896 C   0  0  1  0  0  0  0  0  0  0  0  0
    4.2183   -2.3980    3.3100 C   0  0  0  0  0  0  0  0  0  0  0  0
    4.1589   -3.4409    1.0457 C   0  0  0  0  0  0  0  0  0  0  0  0
    4.9488   -4.5199    1.4817 O   0  0  0  0  0  0  0  0  0  0  0  0
    2.3185   -1.7201    1.5987 C   0  0  2  0  0  0  0  0  0  0  0  0
    3.0642   -0.5073    0.9640 C   0  0  0  0  0  0  0  0  0  0  0  0
    2.1031    0.3159    0.0753 C   0  0  0  0  0  0  0  0  0  0  0  0
    0.8735    0.9010    0.8323 C   0  0  1  0  0  0  0  0  0  0  0  0
    1.3757    2.0484    1.7713 C   0  0  0  0  0  0  0  0  0  0  0  0
   -2.3086    3.1874    0.1700 C   0  0  2  0  0  0  0  0  0  0  0  0
   -3.5671    2.6363   -0.5558 C   0  0  0  0  0  0  0  0  0  0  0  0
   -0.5481    5.0532    0.2095 C   0  0  0  0  0  0  0  0  0  0  0  0
    0.2141    6.0179   -0.3458 O   0  0  0  0  0  0  0  0  0  0  0  0
   -0.4498    4.8335    1.4062 O   0  0  0  0  0  0  0  0  0  0  0  0
   -5.8746    5.2750   -0.1916 H   0  0  0  0  0  0  0  0  0  0  0  0
   -4.4410    4.9901    0.8298 H   0  0  0  0  0  0  0  0  0  0  0  0
   -5.7452    3.7787    0.7999 H   0  0  0  0  0  0  0  0  0  0  0  0
   -6.3797    3.8896   -2.2097 H   0  0  0  0  0  0  0  0  0  0  0  0
   -6.2499    2.3935   -1.2149 H   0  0  0  0  0  0  0  0  0  0  0  0
   -5.2835    2.5582   -2.7240 H   0  0  0  0  0  0  0  0  0  0  0  0
   -3.3758    4.1560   -2.8512 H   0  0  0  0  0  0  0  0  0  0  0  0
   -4.3941    5.5284   -2.3110 H   0  0  0  0  0  0  0  0  0  0  0  0
   -1.9858    6.0026   -1.9313 H   0  0  0  0  0  0  0  0  0  0  0  0
   -2.8995    5.9442   -0.4085 H   0  0  0  0  0  0  0  0  0  0  0  0
   -1.3816    2.9655   -2.4576 H   0  0  0  0  0  0  0  0  0  0  0  0
   -0.1936    4.2843   -2.4077 H   0  0  0  0  0  0  0  0  0  0  0  0
    1.0222    3.2923   -0.5962 H   0  0  0  0  0  0  0  0  0  0  0  0
    0.9933    2.1583   -1.9204 H   0  0  0  0  0  0  0  0  0  0  0  0
   -1.5294    0.8473   -1.8953 H   0  0  0  0  0  0  0  0  0  0  0  0
   -1.4022   -0.3766   -0.6693 H   0  0  0  0  0  0  0  0  0  0  0  0
   -0.0373   -0.0500   -1.7995 H   0  0  0  0  0  0  0  0  0  0  0  0
   -2.7154    1.7061    2.2742 H   0  0  0  0  0  0  0  0  0  0  0  0
   -1.7678   -0.6380    2.5541 H   0  0  0  0  0  0  0  0  0  0  0  0
   -0.8297    0.6516    3.3639 H   0  0  0  0  0  0  0  0  0  0  0  0
   -0.1555   -0.9680    0.8669 H   0  0  0  0  0  0  0  0  0  0  0  0
    2.0042   -1.1677    4.6135 H   0  0  0  0  0  0  0  0  0  0  0  0
    0.8185   -0.0084    4.4007 H   0  0  0  0  0  0  0  0  0  0  0  0
    2.4524    0.2136    3.6994 H   0  0  0  0  0  0  0  0  0  0  0  0
   -0.1462   -2.9333    2.0782 H   0  0  0  0  0  0  0  0  0  0  0  0
   -0.4866   -2.1906    3.6742 H   0  0  0  0  0  0  0  0  0  0  0  0
    1.6320   -3.2302    4.5922 H   0  0  0  0  0  0  0  0  0  0  0  0
    0.5422   -4.4268    3.8746 H   0  0  0  0  0  0  0  0  0  0  0  0
    1.8017   -4.4443    1.7730 H   0  0  0  0  0  0  0  0  0  0  0  0
    2.5241   -5.8879    3.2203 H   0  0  0  0  0  0  0  0  0  0  0  0
    4.8552   -1.5631    2.9504 H   0  0  0  0  0  0  0  0  0  0  0  0
    3.7473   -2.0954    4.2454 H   0  0  0  0  0  0  0  0  0  0  0  0
    4.8960   -3.2219    3.6175 H   0  0  0  0  0  0  0  0  0  0  0  0
    4.8642   -2.6763    0.6681 H   0  0  0  0  0  0  0  0  0  0  0  0
    3.5386   -3.7473    0.1705 H   0  0  0  0  0  0  0  0  0  0  0  0
    4.5211   -5.3545    1.1564 H   0  0  0  0  0  0  0  0  0  0  0  0
    1.8137   -2.2258    0.7419 H   0  0  0  0  0  0  0  0  0  0  0  0
    3.8595   -0.8492    0.2772 H   0  0  0  0  0  0  0  0  0  0  0  0
    3.5565    0.1164    1.7339 H   0  0  0  0  0  0  0  0  0  0  0  0
    1.7684   -0.3852   -0.7125 H   0  0  0  0  0  0  0  0  0  0  0  0
    2.6659    1.1291   -0.4319 H   0  0  0  0  0  0  0  0  0  0  0  0
    0.5579    2.4835    2.3777 H   0  0  0  0  0  0  0  0  0  0  0  0
    2.1699    1.7571    2.4532 H   0  0  0  0  0  0  0  0  0  0  0  0
    1.8628    2.8713    1.2241 H   0  0  0  0  0  0  0  0  0  0  0  0
   -2.6769    3.7125    1.0769 H   0  0  0  0  0  0  0  0  0  0  0  0
   -3.2548    2.0596   -1.4451 H   0  0  0  0  0  0  0  0  0  0  0  0
   -4.1138    1.9345    0.1126 H   0  0  0  0  0  0  0  0  0  0  0  0
  1 35  1  0  0  0  0
  1 36  1  0  0  0  0
  1 37  1  0  0  0  0
  2  1  1  0  0  0  0
  3  2  1  0  0  0  0
  3 38  1  0  0  0  0
  3 39  1  0  0  0  0
  3 40  1  0  0  0  0
  4  2  1  0  0  0  0
  4 41  1  0  0  0  0
  4 42  1  0  0  0  0
  5  4  1  0  0  0  0
  5 43  1  0  0  0  0
  5 44  1  0  0  0  0
  6  5  1  0  0  0  0
  6 32  1  1  0  0  0
  7  6  1  0  0  0  0
  7 45  1  0  0  0  0
  7 46  1  0  0  0  0
  8  7  1  0  0  0  0
  8 47  1  0  0  0  0
  8 48  1  0  0  0  0
  9  8  1  0  0  0  0
  9 10  1  6  0  0  0
 10 49  1  0  0  0  0
 10 50  1  0  0  0  0
 10 51  1  0  0  0  0
 11  9  1  0  0  0  0
 12 11  2  0  0  0  0
 12 52  1  0  0  0  0
 13 12  1  0  0  0  0
 13 53  1  0  0  0  0
 13 54  1  0  0  0  0
 14 13  1  0  0  0  0
 14 55  1  6  0  0  0
 15 14  1  0  0  0  0
 15 16  1  1  0  0  0
 16 56  1  0  0  0  0
 16 57  1  0  0  0  0
 16 58  1  0  0  0  0
 17 15  1  0  0  0  0
 17 59  1  0  0  0  0
 17 60  1  0  0  0  0
 18 17  1  0  0  0  0
 18 61  1  0  0  0  0
 18 62  1  0  0  0  0
 19 18  1  0  0  0  0
 19 63  1  6  0  0  0
 20 19  1  0  0  0  0
 20 64  1  0  0  0  0
 21 19  1  0  0  0  0
 21 22  1  1  0  0  0
 22 65  1  0  0  0  0
 22 66  1  0  0  0  0
 22 67  1  0  0  0  0
 23 21  1  0  0  0  0
 23 68  1  0  0  0  0
 23 69  1  0  0  0  0
 24 23  1  0  0  0  0
 24 70  1  0  0  0  0
 25 21  1  0  0  0  0
 25 15  1  0  0  0  0
 25 71  1  6  0  0  0
 26 25  1  0  0  0  0
 26 72  1  0  0  0  0
 26 73  1  0  0  0  0
 27 26  1  0  0  0  0
 27 74  1  0  0  0  0
 27 75  1  0  0  0  0
 28 27  1  0  0  0  0
 28  9  1  0  0  0  0
 28 14  1  0  0  0  0
 28 29  1  1  0  0  0
 29 76  1  0  0  0  0
 29 77  1  0  0  0  0
 29 78  1  0  0  0  0
 30 11  1  0  0  0  0
 30  6  1  0  0  0  0
 30 79  1  1  0  0  0
 31 30  1  0  0  0  0
 31  2  1  0  0  0  0
 31 80  1  0  0  0  0
 31 81  1  0  0  0  0
 33 32  1  0  0  0  0
 34 32  2  0  0  0  0
M  END
>  <MOL Chiral Flag>
0

>  <energy>
184.64958257830688

$$$$
> 588_AKC_jmm.0.011155-0
>570.sdf
 OpenBabel10062215303D

 13 12  0  0  0  0  0  0  0  0999 V2000
   -2.7714   -0.0844   -1.0786 O   0  5  0  0  0  0  0  0  0  0  0  0
   -1.3776    0.2748   -0.1433 S   0  0  0  0  0  0  0  0  0  0  0  0
   -0.8391    1.5932   -0.7207 O   0  0  0  0  0  0  0  0  0  0  0  0
   -1.9252    0.7400    1.2140 O   0  0  0  0  0  0  0  0  0  0  0  0
   -0.0935   -1.0084    0.0458 C   0  0  0  0  0  0  0  0  0  0  0  0
    1.3169   -0.4231   -0.0417 C   0  0  0  0  0  0  0  0  0  0  0  0
    1.5456    0.5371    1.0359 N   0  0  0  0  0  0  0  0  0  0  0  0
    3.1452    1.2085    0.8613 Cl  0  0  0  0  0  0  0  0  0  0  0  0
   -0.2254   -1.7513   -0.7680 H   0  0  0  0  0  0  0  0  0  0  0  0
   -0.2335   -1.5275    1.0181 H   0  0  0  0  0  0  0  0  0  0  0  0
    1.4419    0.0775   -1.0272 H   0  0  0  0  0  0  0  0  0  0  0  0
    2.0563   -1.2519    0.0299 H   0  0  0  0  0  0  0  0  0  0  0  0
    1.5092    0.0371    1.9541 H   0  0  0  0  0  0  0  0  0  0  0  0
  2  1  1  0  0  0  0
  3  2  2  0  0  0  0
  4  2  2  0  0  0  0
  5  2  1  0  0  0  0
  5  9  1  0  0  0  0
  5 10  1  0  0  0  0
  6  5  1  0  0  0  0
  6 11  1  0  0  0  0
  6 12  1  0  0  0  0
  7  6  1  0  0  0  0
  7 13  1  0  0  0  0
  8  7  1  0  0  0  0
M  CHG  1   1  -1
M  END
>  <MOL Chiral Flag>
0

>  <energy>
-53.154733882864498

$$$$
> 589_AKC_s00284-009-9447-2
>571.sdf
 OpenBabel10062215303D

 49 51  0  0  0  0  0  0  0  0999 V2000
   -4.9871    1.5531    1.7219 C   0  0  0  0  0  0  0  0  0  0  0  0
   -3.8619    2.1465    0.8696 C   0  0  0  0  0  0  0  0  0  0  0  0
   -2.8701    1.1500    0.2818 C   0  0  0  0  0  0  0  0  0  0  0  0
   -2.9836   -0.2354    0.5271 C   0  0  0  0  0  0  0  0  0  0  0  0
   -2.0690   -1.1376   -0.0174 C   0  0  0  0  0  0  0  0  0  0  0  0
   -1.0209   -0.6854   -0.8385 C   0  0  0  0  0  0  0  0  0  0  0  0
   -0.0295   -1.6061   -1.4668 C   0  0  0  0  0  0  0  0  0  0  0  0
    0.1244   -2.8970   -1.1127 C   0  0  0  0  0  0  0  0  0  0  0  0
    1.1002   -3.7872   -1.8028 C   0  0  0  0  0  0  0  0  0  0  0  0
    1.6281   -3.4048   -2.8367 O   0  0  0  0  0  0  0  0  0  0  0  0
    1.4130   -5.1554   -1.2879 C   0  0  0  0  0  0  0  0  0  0  0  0
    2.0719   -6.0807   -2.1231 C   0  0  0  0  0  0  0  0  0  0  0  0
    2.3732   -7.3651   -1.6595 C   0  0  0  0  0  0  0  0  0  0  0  0
    2.0380   -7.7377   -0.3573 C   0  0  0  0  0  0  0  0  0  0  0  0
    1.3972   -6.8288    0.4853 C   0  0  0  0  0  0  0  0  0  0  0  0
    1.0804   -5.5471    0.0265 C   0  0  0  0  0  0  0  0  0  0  0  0
   -0.9048    0.6863   -1.0893 C   0  0  0  0  0  0  0  0  0  0  0  0
   -1.8040    1.6067   -0.5321 C   0  0  0  0  0  0  0  0  0  0  0  0
   -1.5168    3.3618   -0.8452 S   0  0  0  0  0  0  0  0  0  0  0  0
   -2.7138    4.1424   -1.4088 O   0  0  0  0  0  0  0  0  0  0  0  0
   -0.4376    3.5431   -1.9240 O   0  0  0  0  0  0  0  0  0  0  0  0
   -0.9455    4.2561    0.5657 N   0  0  0  0  0  0  0  0  0  0  0  0
   -0.1417    5.4377    0.5317 C   0  0  0  0  0  0  0  0  0  0  0  0
    0.4082    5.9097    1.7371 C   0  0  0  0  0  0  0  0  0  0  0  0
    1.2224    7.0443    1.7545 C   0  0  0  0  0  0  0  0  0  0  0  0
    1.4970    7.7267    0.5683 C   0  0  0  0  0  0  0  0  0  0  0  0
    2.5296    9.1445    0.5909 Cl  0  0  0  0  0  0  0  0  0  0  0  0
    0.9461    7.2798   -0.6356 C   0  0  0  0  0  0  0  0  0  0  0  0
    0.1268    6.1454   -0.6592 C   0  0  0  0  0  0  0  0  0  0  0  0
   -5.6036    0.8520    1.1192 H   0  0  0  0  0  0  0  0  0  0  0  0
   -5.6478    2.3687    2.0838 H   0  0  0  0  0  0  0  0  0  0  0  0
   -4.5705    1.0260    2.6064 H   0  0  0  0  0  0  0  0  0  0  0  0
   -3.3109    2.8716    1.5028 H   0  0  0  0  0  0  0  0  0  0  0  0
   -4.3421    2.6958    0.0326 H   0  0  0  0  0  0  0  0  0  0  0  0
   -3.7764   -0.6352    1.1416 H   0  0  0  0  0  0  0  0  0  0  0  0
   -2.2070   -2.1859    0.1968 H   0  0  0  0  0  0  0  0  0  0  0  0
    0.6124   -1.1976   -2.2432 H   0  0  0  0  0  0  0  0  0  0  0  0
   -0.4714   -3.3074   -0.3152 H   0  0  0  0  0  0  0  0  0  0  0  0
    2.3406   -5.8140   -3.1373 H   0  0  0  0  0  0  0  0  0  0  0  0
    2.8691   -8.0720   -2.3121 H   0  0  0  0  0  0  0  0  0  0  0  0
    2.2775   -8.7303    0.0010 H   0  0  0  0  0  0  0  0  0  0  0  0
    1.1467   -7.1159    1.4983 H   0  0  0  0  0  0  0  0  0  0  0  0
    0.5971   -4.8683    0.7126 H   0  0  0  0  0  0  0  0  0  0  0  0
   -0.0929    1.0436   -1.7101 H   0  0  0  0  0  0  0  0  0  0  0  0
   -1.1255    3.8203    1.4818 H   0  0  0  0  0  0  0  0  0  0  0  0
    0.2113    5.3879    2.6655 H   0  0  0  0  0  0  0  0  0  0  0  0
    1.6432    7.3887    2.6907 H   0  0  0  0  0  0  0  0  0  0  0  0
    1.1535    7.8112   -1.5557 H   0  0  0  0  0  0  0  0  0  0  0  0
   -0.2875    5.8424   -1.6051 H   0  0  0  0  0  0  0  0  0  0  0  0
  1 30  1  0  0  0  0
  1 31  1  0  0  0  0
  1 32  1  0  0  0  0
  2  1  1  0  0  0  0
  2 33  1  0  0  0  0
  2 34  1  0  0  0  0
  3  2  1  0  0  0  0
  4  3  2  0  0  0  0
  4 35  1  0  0  0  0
  5  4  1  0  0  0  0
  5 36  1  0  0  0  0
  6  5  2  0  0  0  0
  7  6  1  0  0  0  0
  7 37  1  0  0  0  0
  8  7  2  0  0  0  0
  8 38  1  0  0  0  0
  9  8  1  0  0  0  0
 10  9  2  0  0  0  0
 11  9  1  0  0  0  0
 12 11  2  0  0  0  0
 12 39  1  0  0  0  0
 13 12  1  0  0  0  0
 13 40  1  0  0  0  0
 14 13  2  0  0  0  0
 14 41  1  0  0  0  0
 15 14  1  0  0  0  0
 15 42  1  0  0  0  0
 16 15  2  0  0  0  0
 16 11  1  0  0  0  0
 16 43  1  0  0  0  0
 17  6  1  0  0  0  0
 17 44  1  0  0  0  0
 18 17  2  0  0  0  0
 18  3  1  0  0  0  0
 19 18  1  0  0  0  0
 20 19  2  0  0  0  0
 21 19  2  0  0  0  0
 22 19  1  0  0  0  0
 22 45  1  0  0  0  0
 23 22  1  0  0  0  0
 24 23  2  0  0  0  0
 24 46  1  0  0  0  0
 25 24  1  0  0  0  0
 25 47  1  0  0  0  0
 26 25  2  0  0  0  0
 27 26  1  0  0  0  0
 28 26  1  0  0  0  0
 28 48  1  0  0  0  0
 29 28  2  0  0  0  0
 29 23  1  0  0  0  0
 29 49  1  0  0  0  0
M  END
>  <MOL Chiral Flag>
0

>  <energy>
52.318145991559057

$$$$
> 590_AKC_j.bmcl.2009.03.020
>572.sdf
 OpenBabel10062215313D

 56 59  0  0  0  0  0  0  0  0999 V2000
   -6.2320    2.5954    0.6053 C   0  0  0  0  0  0  0  0  0  0  0  0
   -5.1910    2.6590   -0.2977 O   0  0  0  0  0  0  0  0  0  0  0  0
   -4.1034    1.8422   -0.3087 C   0  0  0  0  0  0  0  0  0  0  0  0
   -3.9264    0.8075    0.6304 C   0  0  0  0  0  0  0  0  0  0  0  0
   -2.7856   -0.0234    0.5791 C   0  0  0  0  0  0  0  0  0  0  0  0
   -2.5787   -1.0114    1.4938 O   0  0  0  0  0  0  0  0  0  0  0  0
   -3.3888   -1.2774    2.5795 C   0  0  0  0  0  0  0  0  0  0  0  0
   -1.8178    0.1927   -0.4255 C   0  0  0  0  0  0  0  0  0  0  0  0
   -1.9876    1.2376   -1.3569 C   0  0  0  0  0  0  0  0  0  0  0  0
   -1.0447    1.4111   -2.3254 O   0  0  0  0  0  0  0  0  0  0  0  0
   -1.1138    2.3165   -3.3638 C   0  0  0  0  0  0  0  0  0  0  0  0
   -3.1349    2.0491   -1.2907 C   0  0  0  0  0  0  0  0  0  0  0  0
   -0.6026   -0.6560   -0.5335 C   0  0  0  0  0  0  0  0  0  0  0  0
    0.6104   -0.0417   -0.4833 N   0  0  0  0  0  0  0  0  0  0  0  0
    1.7746   -0.7202   -0.6607 C   0  0  0  0  0  0  0  0  0  0  0  0
    1.7407   -2.0543   -0.9186 N   0  0  0  0  0  0  0  0  0  0  0  0
    0.5665   -2.7325   -0.9728 C   0  0  0  0  0  0  0  0  0  0  0  0
    0.5723   -4.1049   -1.2452 C   0  0  0  0  0  0  0  0  0  0  0  0
   -0.6310   -4.8063   -1.3376 C   0  0  0  0  0  0  0  0  0  0  0  0
   -1.8457   -4.1395   -1.1655 C   0  0  0  0  0  0  0  0  0  0  0  0
   -1.8658   -2.7682   -0.8924 C   0  0  0  0  0  0  0  0  0  0  0  0
   -0.6564   -2.0493   -0.7800 C   0  0  0  0  0  0  0  0  0  0  0  0
    3.0237   -0.0294   -0.6006 N   0  0  0  0  0  0  0  0  0  0  0  0
    4.2138   -0.5539   -1.2464 C   0  0  0  0  0  0  0  0  0  0  0  0
    5.3201   -0.7121   -0.2013 C   0  0  0  0  0  0  0  0  0  0  0  0
    5.5361    0.5643    0.5210 N   0  3  0  0  0  0  0  0  0  0  0  0
    6.6186    0.4036    1.5053 C   0  0  0  0  0  0  0  0  0  0  0  0
    4.2852    1.0037    1.1866 C   0  0  0  0  0  0  0  0  0  0  0  0
    3.1680    1.2089    0.1459 C   0  0  0  0  0  0  0  0  0  0  0  0
   -6.9715    3.3845    0.3577 H   0  0  0  0  0  0  0  0  0  0  0  0
   -5.8579    2.7739    1.6357 H   0  0  0  0  0  0  0  0  0  0  0  0
   -6.7371    1.6080    0.5430 H   0  0  0  0  0  0  0  0  0  0  0  0
   -4.6706    0.6520    1.3970 H   0  0  0  0  0  0  0  0  0  0  0  0
   -2.9609   -2.1258    3.1513 H   0  0  0  0  0  0  0  0  0  0  0  0
   -4.4096   -1.5572    2.2432 H   0  0  0  0  0  0  0  0  0  0  0  0
   -3.4343   -0.3913    3.2492 H   0  0  0  0  0  0  0  0  0  0  0  0
   -0.2069    2.2101   -3.9938 H   0  0  0  0  0  0  0  0  0  0  0  0
   -1.1525    3.3542   -2.9715 H   0  0  0  0  0  0  0  0  0  0  0  0
   -2.0045    2.1074   -3.9947 H   0  0  0  0  0  0  0  0  0  0  0  0
   -3.2873    2.8462   -2.0061 H   0  0  0  0  0  0  0  0  0  0  0  0
    1.5099   -4.6265   -1.3937 H   0  0  0  0  0  0  0  0  0  0  0  0
   -0.6223   -5.8669   -1.5533 H   0  0  0  0  0  0  0  0  0  0  0  0
   -2.7761   -4.6861   -1.2503 H   0  0  0  0  0  0  0  0  0  0  0  0
   -2.8238   -2.2823   -0.7809 H   0  0  0  0  0  0  0  0  0  0  0  0
    4.5487    0.1807   -2.0118 H   0  0  0  0  0  0  0  0  0  0  0  0
    4.0294   -1.5177   -1.7657 H   0  0  0  0  0  0  0  0  0  0  0  0
    6.2522   -1.0298   -0.7209 H   0  0  0  0  0  0  0  0  0  0  0  0
    5.0258   -1.5150    0.5122 H   0  0  0  0  0  0  0  0  0  0  0  0
    5.8346    1.3026   -0.1612 H   0  0  0  0  0  0  0  0  0  0  0  0
    7.5670    0.1271    0.9925 H   0  0  0  0  0  0  0  0  0  0  0  0
    6.3738   -0.3880    2.2479 H   0  0  0  0  0  0  0  0  0  0  0  0
    6.8000    1.3581    2.0457 H   0  0  0  0  0  0  0  0  0  0  0  0
    4.4478    1.9581    1.7352 H   0  0  0  0  0  0  0  0  0  0  0  0
    3.9567    0.2348    1.9246 H   0  0  0  0  0  0  0  0  0  0  0  0
    3.4563    2.0276   -0.5472 H   0  0  0  0  0  0  0  0  0  0  0  0
    2.2296    1.5022    0.6647 H   0  0  0  0  0  0  0  0  0  0  0  0
  1 30  1  0  0  0  0
  1 31  1  0  0  0  0
  1 32  1  0  0  0  0
  2  1  1  0  0  0  0
  3  2  1  0  0  0  0
  4  3  2  0  0  0  0
  4 33  1  0  0  0  0
  5  4  1  0  0  0  0
  6  5  1  0  0  0  0
  7  6  1  0  0  0  0
  7 34  1  0  0  0  0
  7 35  1  0  0  0  0
  7 36  1  0  0  0  0
  8  5  2  0  0  0  0
  9  8  1  0  0  0  0
 10  9  1  0  0  0  0
 11 10  1  0  0  0  0
 11 37  1  0  0  0  0
 11 38  1  0  0  0  0
 11 39  1  0  0  0  0
 12  9  2  0  0  0  0
 12  3  1  0  0  0  0
 12 40  1  0  0  0  0
 13  8  1  0  0  0  0
 14 13  2  0  0  0  0
 15 14  1  0  0  0  0
 16 15  2  0  0  0  0
 17 16  1  0  0  0  0
 18 17  2  0  0  0  0
 18 41  1  0  0  0  0
 19 18  1  0  0  0  0
 19 42  1  0  0  0  0
 20 19  2  0  0  0  0
 20 43  1  0  0  0  0
 21 20  1  0  0  0  0
 21 44  1  0  0  0  0
 22 21  2  0  0  0  0
 22 13  1  0  0  0  0
 22 17  1  0  0  0  0
 23 15  1  0  0  0  0
 24 23  1  0  0  0  0
 24 45  1  0  0  0  0
 24 46  1  0  0  0  0
 25 24  1  0  0  0  0
 25 47  1  0  0  0  0
 25 48  1  0  0  0  0
 26 25  1  0  0  0  0
 26 49  1  0  0  0  0
 27 26  1  0  0  0  0
 27 50  1  0  0  0  0
 27 51  1  0  0  0  0
 27 52  1  0  0  0  0
 28 26  1  0  0  0  0
 28 53  1  0  0  0  0
 28 54  1  0  0  0  0
 29 28  1  0  0  0  0
 29 23  1  0  0  0  0
 29 55  1  0  0  0  0
 29 56  1  0  0  0  0
M  CHG  1  26   1
M  END
>  <MOL Chiral Flag>
0

>  <energy>
75.843227074161462

$$$$
> 591_AKC_j.bmcl.2009.03.039
>573.sdf
 OpenBabel10062215313D

 26 28  0  0  0  0  0  0  0  0999 V2000
   -2.9627   -0.2780   -2.0545 O   0  0  0  0  0  0  0  0  0  0  0  0
   -2.5777   -0.5484   -0.7322 C   0  0  2  0  0  0  0  0  0  0  0  0
   -3.2197    0.4822    0.2275 C   0  0  0  0  0  0  0  0  0  0  0  0
   -2.2092    0.7134    1.3703 C   0  0  0  0  0  0  0  0  0  0  0  0
   -0.9572    0.4759    0.7118 N   0  0  0  0  0  0  0  0  0  0  0  0
    0.3416    0.7707    1.2873 C   0  0  0  0  0  0  0  0  0  0  0  0
    1.4642    0.2139    0.4423 C   0  0  0  0  0  0  0  0  0  0  0  0
    2.7974    0.4213    0.8256 C   0  0  0  0  0  0  0  0  0  0  0  0
    3.8394   -0.1081    0.0583 C   0  0  0  0  0  0  0  0  0  0  0  0
    3.5575   -0.8486   -1.0932 C   0  0  0  0  0  0  0  0  0  0  0  0
    2.2324   -1.0600   -1.4845 C   0  0  0  0  0  0  0  0  0  0  0  0
    1.1825   -0.5313   -0.7250 C   0  0  0  0  0  0  0  0  0  0  0  0
   -0.1596   -0.7643   -1.1254 N   0  0  0  0  0  0  0  0  0  0  0  0
   -1.1420   -0.2625   -0.4640 C   0  0  0  0  0  0  0  0  0  0  0  0
   -2.4129   -0.8612   -2.6395 H   0  0  0  0  0  0  0  0  0  0  0  0
   -2.7990   -1.5998   -0.4440 H   0  0  0  0  0  0  0  0  0  0  0  0
   -4.2733    0.2945    0.5232 H   0  0  0  0  0  0  0  0  0  0  0  0
   -3.2119    1.4477   -0.3313 H   0  0  0  0  0  0  0  0  0  0  0  0
   -2.3071    1.7447    1.7729 H   0  0  0  0  0  0  0  0  0  0  0  0
   -2.3204   -0.0392    2.1809 H   0  0  0  0  0  0  0  0  0  0  0  0
    0.4515    1.8732    1.3732 H   0  0  0  0  0  0  0  0  0  0  0  0
    0.4060    0.3208    2.3008 H   0  0  0  0  0  0  0  0  0  0  0  0
    3.0259    0.9896    1.7187 H   0  0  0  0  0  0  0  0  0  0  0  0
    4.8667    0.0525    0.3587 H   0  0  0  0  0  0  0  0  0  0  0  0
    4.3666   -1.2610   -1.6820 H   0  0  0  0  0  0  0  0  0  0  0  0
    2.0211   -1.6378   -2.3757 H   0  0  0  0  0  0  0  0  0  0  0  0
  1 15  1  0  0  0  0
  2  1  1  0  0  0  0
  2 16  1  1  0  0  0
  3  2  1  0  0  0  0
  3 17  1  0  0  0  0
  3 18  1  0  0  0  0
  4  3  1  0  0  0  0
  4 19  1  0  0  0  0
  4 20  1  0  0  0  0
  5  4  1  0  0  0  0
  6  5  1  0  0  0  0
  6 21  1  0  0  0  0
  6 22  1  0  0  0  0
  7  6  1  0  0  0  0
  8  7  2  0  0  0  0
  8 23  1  0  0  0  0
  9  8  1  0  0  0  0
  9 24  1  0  0  0  0
 10  9  2  0  0  0  0
 10 25  1  0  0  0  0
 11 10  1  0  0  0  0
 11 26  1  0  0  0  0
 12 11  2  0  0  0  0
 12  7  1  0  0  0  0
 13 12  1  0  0  0  0
 14 13  2  0  0  0  0
 14  2  1  0  0  0  0
 14  5  1  0  0  0  0
M  END
>  <MOL Chiral Flag>
0

>  <energy>
5.5326945432195913

$$$$
> 592_AKC_j.ejmech.2008.04.016
>574.sdf
 OpenBabel10062215323D

 50 52  0  0  0  0  0  0  0  0999 V2000
    3.3328   -4.0722    1.9749 C   0  0  0  0  0  0  0  0  0  0  0  0
    2.6424   -2.8909    2.1799 O   0  0  0  0  0  0  0  0  0  0  0  0
    1.5889   -2.4729    1.4278 C   0  0  0  0  0  0  0  0  0  0  0  0
    1.1635   -3.2178    0.3218 C   0  0  0  0  0  0  0  0  0  0  0  0
    0.0912   -2.8042   -0.4404 C   0  0  0  0  0  0  0  0  0  0  0  0
   -0.6163   -1.6299   -0.1467 C   0  0  0  0  0  0  0  0  0  0  0  0
   -1.7532   -1.3402   -1.0832 C   0  0  0  0  0  0  0  0  0  0  0  0
   -2.6337   -0.3085   -1.1454 C   0  0  0  0  0  0  0  0  0  0  0  0
   -3.6550   -0.3300   -2.2712 C   0  0  0  0  0  0  0  0  0  0  0  0
   -3.6443   -1.2896   -3.0301 O   0  0  0  0  0  0  0  0  0  0  0  0
   -4.6636    0.7420   -2.5624 C   0  0  0  0  0  0  0  0  0  0  0  0
   -5.4518    0.6184   -3.7347 C   0  0  0  0  0  0  0  0  0  0  0  0
   -6.3982    1.5853   -4.0705 C   0  0  0  0  0  0  0  0  0  0  0  0
   -6.5861    2.6900   -3.2460 C   0  0  0  0  0  0  0  0  0  0  0  0
   -5.8241    2.8297   -2.0808 C   0  0  0  0  0  0  0  0  0  0  0  0
   -4.8626    1.8632   -1.7368 C   0  0  0  0  0  0  0  0  0  0  0  0
   -0.2018   -0.8531    0.9678 C   0  0  0  0  0  0  0  0  0  0  0  0
    0.9104   -1.2798    1.7610 C   0  0  0  0  0  0  0  0  0  0  0  0
    1.4572   -0.3083    3.2029 S   0  0  0  0  0  0  0  0  0  0  0  0
    0.2517    0.0453    4.0864 O   0  0  0  0  0  0  0  0  0  0  0  0
    1.9453    1.0966    2.8155 O   0  0  0  0  0  0  0  0  0  0  0  0
    2.6556   -0.9400    4.3816 N   0  0  0  0  0  0  0  0  0  0  0  0
    4.0392   -0.6307    3.9865 C   0  0  0  0  0  0  0  0  0  0  0  0
    5.0611   -1.1899    4.9669 C   0  0  0  0  0  0  0  0  0  0  0  0
    5.1734   -2.5771    5.1767 C   0  0  0  0  0  0  0  0  0  0  0  0
    6.1441   -3.0905    6.0452 C   0  0  0  0  0  0  0  0  0  0  0  0
    7.0089   -2.2271    6.7193 C   0  0  0  0  0  0  0  0  0  0  0  0
    6.9043   -0.8477    6.5281 C   0  0  0  0  0  0  0  0  0  0  0  0
    5.9383   -0.3281    5.6555 C   0  0  0  0  0  0  0  0  0  0  0  0
    3.7966   -4.0806    0.9660 H   0  0  0  0  0  0  0  0  0  0  0  0
    2.6470   -4.9391    2.0925 H   0  0  0  0  0  0  0  0  0  0  0  0
    4.1442   -4.1716    2.7154 H   0  0  0  0  0  0  0  0  0  0  0  0
    1.6598   -4.1336    0.0359 H   0  0  0  0  0  0  0  0  0  0  0  0
   -0.1930   -3.4206   -1.2846 H   0  0  0  0  0  0  0  0  0  0  0  0
   -1.8686   -2.1010   -1.8467 H   0  0  0  0  0  0  0  0  0  0  0  0
   -2.5897    0.5052   -0.4306 H   0  0  0  0  0  0  0  0  0  0  0  0
   -5.3296   -0.2273   -4.4004 H   0  0  0  0  0  0  0  0  0  0  0  0
   -6.9851    1.4742   -4.9753 H   0  0  0  0  0  0  0  0  0  0  0  0
   -7.3234    3.4376   -3.5120 H   0  0  0  0  0  0  0  0  0  0  0  0
   -5.9805    3.6908   -1.4456 H   0  0  0  0  0  0  0  0  0  0  0  0
   -4.2894    1.9962   -0.8318 H   0  0  0  0  0  0  0  0  0  0  0  0
   -0.7261    0.0598    1.2219 H   0  0  0  0  0  0  0  0  0  0  0  0
    2.5182   -1.9711    4.4741 H   0  0  0  0  0  0  0  0  0  0  0  0
    4.2544   -1.0475    2.9800 H   0  0  0  0  0  0  0  0  0  0  0  0
    4.1555    0.4723    3.9282 H   0  0  0  0  0  0  0  0  0  0  0  0
    4.5190   -3.2616    4.6666 H   0  0  0  0  0  0  0  0  0  0  0  0
    6.2286   -4.1603    6.1924 H   0  0  0  0  0  0  0  0  0  0  0  0
    7.7611   -2.6275    7.3887 H   0  0  0  0  0  0  0  0  0  0  0  0
    7.5774   -0.1809    7.0523 H   0  0  0  0  0  0  0  0  0  0  0  0
    5.8805    0.7430    5.5136 H   0  0  0  0  0  0  0  0  0  0  0  0
  1 30  1  0  0  0  0
  1 31  1  0  0  0  0
  1 32  1  0  0  0  0
  2  1  1  0  0  0  0
  3  2  1  0  0  0  0
  4  3  2  0  0  0  0
  4 33  1  0  0  0  0
  5  4  1  0  0  0  0
  5 34  1  0  0  0  0
  6  5  2  0  0  0  0
  7  6  1  0  0  0  0
  7 35  1  0  0  0  0
  8  7  2  0  0  0  0
  8 36  1  0  0  0  0
  9  8  1  0  0  0  0
 10  9  2  0  0  0  0
 11  9  1  0  0  0  0
 12 11  2  0  0  0  0
 12 37  1  0  0  0  0
 13 12  1  0  0  0  0
 13 38  1  0  0  0  0
 14 13  2  0  0  0  0
 14 39  1  0  0  0  0
 15 14  1  0  0  0  0
 15 40  1  0  0  0  0
 16 15  2  0  0  0  0
 16 11  1  0  0  0  0
 16 41  1  0  0  0  0
 17  6  1  0  0  0  0
 17 42  1  0  0  0  0
 18 17  2  0  0  0  0
 18  3  1  0  0  0  0
 19 18  1  0  0  0  0
 20 19  2  0  0  0  0
 21 19  2  0  0  0  0
 22 19  1  0  0  0  0
 22 43  1  0  0  0  0
 23 22  1  0  0  0  0
 23 44  1  0  0  0  0
 23 45  1  0  0  0  0
 24 23  1  0  0  0  0
 25 24  2  0  0  0  0
 25 46  1  0  0  0  0
 26 25  1  0  0  0  0
 26 47  1  0  0  0  0
 27 26  2  0  0  0  0
 27 48  1  0  0  0  0
 28 27  1  0  0  0  0
 28 49  1  0  0  0  0
 29 28  2  0  0  0  0
 29 24  1  0  0  0  0
 29 50  1  0  0  0  0
M  END
>  <MOL Chiral Flag>
0

>  <energy>
16.743040781970024

$$$$
> 593_AKC_j.bmc.2008.11.031
>575.sdf
 OpenBabel10062215323D

 33 34  0  0  0  0  0  0  0  0999 V2000
    3.7814    0.7656   -0.0541 C   0  0  0  0  0  0  0  0  0  0  0  0
    2.9941   -0.4507    0.3486 C   0  0  0  0  0  0  0  0  0  0  0  0
    1.7075   -0.3084    0.9006 C   0  0  0  0  0  0  0  0  0  0  0  0
    0.9690   -1.4377    1.2897 C   0  0  0  0  0  0  0  0  0  0  0  0
   -0.6800   -1.2497    2.0147 S   0  0  0  0  0  0  0  0  0  0  0  0
   -1.4147   -0.1692    0.7407 C   0  0  0  0  0  0  0  0  0  0  0  0
   -1.7965   -0.6965   -0.5410 C   0  0  0  0  0  0  0  0  0  0  0  0
   -2.3552    0.1720   -1.4988 C   0  0  0  0  0  0  0  0  0  0  0  0
   -2.5745    1.5206   -1.2251 C   0  0  0  0  0  0  0  0  0  0  0  0
   -2.2182    2.0326    0.0191 C   0  0  0  0  0  0  0  0  0  0  0  0
   -1.6353    1.2254    1.0172 C   0  0  0  0  0  0  0  0  0  0  0  0
   -1.2992    1.8465    2.2762 N   0  3  0  0  0  0  0  0  0  0  0  0
   -0.7296    1.1751    3.2508 O   0  5  0  0  0  0  0  0  0  0  0  0
   -1.5364    3.0049    2.4496 O   0  0  0  0  0  0  0  0  0  0  0  0
   -3.2079    2.4354   -2.2485 C   0  0  0  0  0  0  0  0  0  0  0  0
   -2.3476    3.4803   -2.5313 F   0  0  0  0  0  0  0  0  0  0  0  0
   -3.4983    1.7744   -3.4301 F   0  0  0  0  0  0  0  0  0  0  0  0
   -4.3862    2.9484   -1.7360 F   0  0  0  0  0  0  0  0  0  0  0  0
   -1.6542   -2.0844   -0.8951 N   0  3  0  0  0  0  0  0  0  0  0  0
   -1.4142   -2.9992    0.0125 O   0  5  0  0  0  0  0  0  0  0  0  0
   -1.8772   -2.4406   -2.0137 O   0  0  0  0  0  0  0  0  0  0  0  0
    1.5381   -2.7196    1.1426 C   0  0  0  0  0  0  0  0  0  0  0  0
    0.6968   -4.1729    1.6733 Cl  0  0  0  0  0  0  0  0  0  0  0  0
    2.8107   -2.8600    0.5847 C   0  0  0  0  0  0  0  0  0  0  0  0
    3.5393   -1.7387    0.1840 C   0  0  0  0  0  0  0  0  0  0  0  0
    5.1422   -1.9743   -0.5067 Cl  0  0  0  0  0  0  0  0  0  0  0  0
    3.2231    1.7038    0.1475 H   0  0  0  0  0  0  0  0  0  0  0  0
    4.0136    0.7222   -1.1389 H   0  0  0  0  0  0  0  0  0  0  0  0
    4.7320    0.7994    0.5201 H   0  0  0  0  0  0  0  0  0  0  0  0
    1.2843    0.6792    1.0314 H   0  0  0  0  0  0  0  0  0  0  0  0
   -2.6451   -0.2191   -2.4648 H   0  0  0  0  0  0  0  0  0  0  0  0
   -2.4015    3.0830    0.2115 H   0  0  0  0  0  0  0  0  0  0  0  0
    3.2396   -3.8479    0.4696 H   0  0  0  0  0  0  0  0  0  0  0  0
  1 27  1  0  0  0  0
  1 28  1  0  0  0  0
  1 29  1  0  0  0  0
  2  1  1  0  0  0  0
  3  2  2  0  0  0  0
  3 30  1  0  0  0  0
  4  3  1  0  0  0  0
  5  4  1  0  0  0  0
  6  5  1  0  0  0  0
  7  6  2  0  0  0  0
  8  7  1  0  0  0  0
  8 31  1  0  0  0  0
  9  8  2  0  0  0  0
 10  9  1  0  0  0  0
 10 32  1  0  0  0  0
 11 10  2  0  0  0  0
 11  6  1  0  0  0  0
 12 11  1  0  0  0  0
 13 12  1  0  0  0  0
 14 12  2  0  0  0  0
 15  9  1  0  0  0  0
 16 15  1  0  0  0  0
 17 15  1  0  0  0  0
 18 15  1  0  0  0  0
 19  7  1  0  0  0  0
 20 19  1  0  0  0  0
 21 19  2  0  0  0  0
 22  4  2  0  0  0  0
 23 22  1  0  0  0  0
 24 22  1  0  0  0  0
 24 33  1  0  0  0  0
 25 24  2  0  0  0  0
 25  2  1  0  0  0  0
 26 25  1  0  0  0  0
M  CHG  4  12   1  13  -1  19   1  20  -1
M  END
>  <MOL Chiral Flag>
0

>  <energy>
106.55489072006428

$$$$
> 594_AKC_j.exppara.2008.12.004
>576.sdf
 OpenBabel10062215333D

 45 48  0  0  0  0  0  0  0  0999 V2000
    0.6373   -3.3700   -3.8933 C   0  0  0  0  0  0  0  0  0  0  0  0
    0.3021   -2.2425   -4.7718 N   0  0  0  0  0  0  0  0  0  0  0  0
   -0.1674   -2.2370   -6.0474 C   0  0  0  0  0  0  0  0  0  0  0  0
   -0.3354   -0.9287   -6.4488 C   0  0  0  0  0  0  0  0  0  0  0  0
    0.0255   -0.1138   -5.4419 N   0  0  0  0  0  0  0  0  0  0  0  0
    0.4126   -0.9302   -4.4368 C   0  0  0  0  0  0  0  0  0  0  0  0
    0.9312   -0.3975   -3.1600 C   0  0  0  0  0  0  0  0  0  0  0  0
    1.4784   -1.1261   -2.1455 N   0  0  0  0  0  0  0  0  0  0  0  0
    1.9765   -0.3723   -1.1403 N   0  0  0  0  0  0  0  0  0  0  0  0
    1.8186    0.9667   -1.3354 C   0  0  0  0  0  0  0  0  0  0  0  0
    1.0589    1.2017   -2.7834 S   0  0  0  0  0  0  0  0  0  0  0  0
    2.3480    1.9853   -0.4822 N   0  0  0  0  0  0  0  0  0  0  0  0
    3.2335    1.6660    0.6276 C   0  0  0  0  0  0  0  0  0  0  0  0
    2.7156    2.3170    1.9210 C   0  0  0  0  0  0  0  0  0  0  0  0
    2.4247    3.7323    1.6630 N   0  0  0  0  0  0  0  0  0  0  0  0
    1.4951    3.9928    0.5593 C   0  0  0  0  0  0  0  0  0  0  0  0
    2.0684    3.3916   -0.7221 C   0  0  0  0  0  0  0  0  0  0  0  0
    3.0285    4.7939    2.3193 C   0  0  0  0  0  0  0  0  0  0  0  0
    2.8633    5.9241    1.8777 O   0  0  0  0  0  0  0  0  0  0  0  0
    3.9061    4.6816    3.5359 C   0  0  0  0  0  0  0  0  0  0  0  0
    4.9189    5.6486    3.7194 C   0  0  0  0  0  0  0  0  0  0  0  0
    5.7451    5.6176    4.8449 C   0  0  0  0  0  0  0  0  0  0  0  0
    5.5662    4.6346    5.8162 C   0  0  0  0  0  0  0  0  0  0  0  0
    4.5524    3.6868    5.6695 C   0  0  0  0  0  0  0  0  0  0  0  0
    3.7206    3.7096    4.5437 C   0  0  0  0  0  0  0  0  0  0  0  0
   -0.4428   -3.3693   -6.8751 N   0  0  0  0  0  0  0  0  0  0  0  0
   -0.2663   -4.4798   -6.4816 O   0  0  0  0  0  0  0  0  0  0  0  0
   -0.8379   -3.2035   -7.9896 O   0  0  0  0  0  0  0  0  0  0  0  0
    0.4651   -4.3568   -4.3471 H   0  0  0  0  0  0  0  0  0  0  0  0
    0.0112   -3.3200   -2.9774 H   0  0  0  0  0  0  0  0  0  0  0  0
    1.7089   -3.3193   -3.6108 H   0  0  0  0  0  0  0  0  0  0  0  0
   -0.6893   -0.5846   -7.4118 H   0  0  0  0  0  0  0  0  0  0  0  0
    3.3682    0.5718    0.7667 H   0  0  0  0  0  0  0  0  0  0  0  0
    4.2311    2.1042    0.4042 H   0  0  0  0  0  0  0  0  0  0  0  0
    3.5062    2.1355    2.6634 H   0  0  0  0  0  0  0  0  0  0  0  0
    1.7799    1.8090    2.2406 H   0  0  0  0  0  0  0  0  0  0  0  0
    0.5167    3.5165    0.7906 H   0  0  0  0  0  0  0  0  0  0  0  0
    1.2982    5.0721    0.3881 H   0  0  0  0  0  0  0  0  0  0  0  0
    1.3570    3.5541   -1.5571 H   0  0  0  0  0  0  0  0  0  0  0  0
    3.0180    3.9139   -0.9699 H   0  0  0  0  0  0  0  0  0  0  0  0
    5.0768    6.4253    2.9807 H   0  0  0  0  0  0  0  0  0  0  0  0
    6.5229    6.3613    4.9643 H   0  0  0  0  0  0  0  0  0  0  0  0
    6.2049    4.6161    6.6900 H   0  0  0  0  0  0  0  0  0  0  0  0
    4.4022    2.9388    6.4369 H   0  0  0  0  0  0  0  0  0  0  0  0
    2.9186    2.9888    4.4908 H   0  0  0  0  0  0  0  0  0  0  0  0
  1 29  1  0  0  0  0
  1 30  1  0  0  0  0
  1 31  1  0  0  0  0
  2  1  1  0  0  0  0
  3  2  1  0  0  0  0
  4  3  2  0  0  0  0
  4 32  1  0  0  0  0
  5  4  1  0  0  0  0
  6  5  2  0  0  0  0
  6  2  1  0  0  0  0
  7  6  1  0  0  0  0
  8  7  2  0  0  0  0
  9  8  1  0  0  0  0
 10  9  2  0  0  0  0
 11 10  1  0  0  0  0
 11  7  1  0  0  0  0
 12 10  1  0  0  0  0
 13 12  1  0  0  0  0
 13 33  1  0  0  0  0
 13 34  1  0  0  0  0
 14 13  1  0  0  0  0
 14 35  1  0  0  0  0
 14 36  1  0  0  0  0
 15 14  1  0  0  0  0
 16 15  1  0  0  0  0
 16 37  1  0  0  0  0
 16 38  1  0  0  0  0
 17 16  1  0  0  0  0
 17 12  1  0  0  0  0
 17 39  1  0  0  0  0
 17 40  1  0  0  0  0
 18 15  1  0  0  0  0
 19 18  2  0  0  0  0
 20 18  1  0  0  0  0
 21 20  2  0  0  0  0
 21 41  1  0  0  0  0
 22 21  1  0  0  0  0
 22 42  1  0  0  0  0
 23 22  2  0  0  0  0
 23 43  1  0  0  0  0
 24 23  1  0  0  0  0
 24 44  1  0  0  0  0
 25 24  2  0  0  0  0
 25 20  1  0  0  0  0
 25 45  1  0  0  0  0
 26  3  1  0  0  0  0
 27 26  2  0  0  0  0
 28 26  2  0  0  0  0
M  END
>  <MOL Chiral Flag>
0

>  <energy>
106.93398379601824

$$$$
> 595_AKC_znc-2009-7-807
>577.sdf
 OpenBabel10062215333D

 34 36  0  0  0  0  0  0  0  0999 V2000
   -5.6210   -0.0916   -1.2843 C   0  0  0  0  0  0  0  0  0  0  0  0
   -4.3358    0.4039   -1.3563 O   0  0  0  0  0  0  0  0  0  0  0  0
   -3.3395    0.1196   -0.4773 C   0  0  0  0  0  0  0  0  0  0  0  0
   -3.5869   -0.4085    0.8049 C   0  0  0  0  0  0  0  0  0  0  0  0
   -2.5305   -0.7223    1.6729 C   0  0  0  0  0  0  0  0  0  0  0  0
   -2.8472   -1.1982    2.8983 O   0  0  0  0  0  0  0  0  0  0  0  0
   -1.1880   -0.5193    1.2411 C   0  0  0  0  0  0  0  0  0  0  0  0
    0.0267   -0.8551    2.0433 C   0  0  0  0  0  0  0  0  0  0  0  0
   -0.0222   -1.5835    3.0203 O   0  0  0  0  0  0  0  0  0  0  0  0
    1.3580   -0.3458    1.5628 C   0  0  0  0  0  0  0  0  0  0  0  0
    1.4034   -0.4634    0.0356 C   0  0  1  0  0  0  0  0  0  0  0  0
    0.3067    0.1940   -0.5042 O   0  0  0  0  0  0  0  0  0  0  0  0
   -0.9590    0.0154   -0.0469 C   0  0  0  0  0  0  0  0  0  0  0  0
   -2.0256    0.3456   -0.8796 C   0  0  0  0  0  0  0  0  0  0  0  0
    2.6866    0.1343   -0.4944 C   0  0  0  0  0  0  0  0  0  0  0  0
    2.7148    1.4486   -1.0014 C   0  0  0  0  0  0  0  0  0  0  0  0
    3.9124    2.0028   -1.4568 C   0  0  0  0  0  0  0  0  0  0  0  0
    5.0893    1.2524   -1.4215 C   0  0  0  0  0  0  0  0  0  0  0  0
    5.0715   -0.0546   -0.9265 C   0  0  0  0  0  0  0  0  0  0  0  0
    3.8770   -0.6119   -0.4577 C   0  0  0  0  0  0  0  0  0  0  0  0
   -5.5934   -1.2002   -1.3646 H   0  0  0  0  0  0  0  0  0  0  0  0
   -6.2061    0.3038   -2.1395 H   0  0  0  0  0  0  0  0  0  0  0  0
   -6.1221    0.2151   -0.3439 H   0  0  0  0  0  0  0  0  0  0  0  0
   -4.6002   -0.5749    1.1441 H   0  0  0  0  0  0  0  0  0  0  0  0
   -2.2145   -1.3779    3.6010 H   0  0  0  0  0  0  0  0  0  0  0  0
    2.2014   -0.8712    2.0628 H   0  0  0  0  0  0  0  0  0  0  0  0
    1.4170    0.7360    1.8128 H   0  0  0  0  0  0  0  0  0  0  0  0
    1.3370   -1.5342   -0.2674 H   0  0  0  0  0  0  0  0  0  0  0  0
   -1.8290    0.7455   -1.8668 H   0  0  0  0  0  0  0  0  0  0  0  0
    1.8158    2.0512   -1.0281 H   0  0  0  0  0  0  0  0  0  0  0  0
    3.9270    3.0173   -1.8331 H   0  0  0  0  0  0  0  0  0  0  0  0
    6.0154    1.6857   -1.7753 H   0  0  0  0  0  0  0  0  0  0  0  0
    5.9850   -0.6342   -0.9020 H   0  0  0  0  0  0  0  0  0  0  0  0
    3.8762   -1.6242   -0.0724 H   0  0  0  0  0  0  0  0  0  0  0  0
  1 21  1  0  0  0  0
  1 22  1  0  0  0  0
  1 23  1  0  0  0  0
  2  1  1  0  0  0  0
  3  2  1  0  0  0  0
  4  3  2  0  0  0  0
  4 24  1  0  0  0  0
  5  4  1  0  0  0  0
  6  5  1  0  0  0  0
  6 25  1  0  0  0  0
  7  5  2  0  0  0  0
  8  7  1  0  0  0  0
  9  8  2  0  0  0  0
 10  8  1  0  0  0  0
 10 26  1  0  0  0  0
 10 27  1  0  0  0  0
 11 10  1  0  0  0  0
 11 28  1  6  0  0  0
 12 11  1  0  0  0  0
 13 12  1  0  0  0  0
 13  7  1  0  0  0  0
 14 13  2  0  0  0  0
 14  3  1  0  0  0  0
 14 29  1  0  0  0  0
 15 11  1  0  0  0  0
 16 15  2  0  0  0  0
 16 30  1  0  0  0  0
 17 16  1  0  0  0  0
 17 31  1  0  0  0  0
 18 17  2  0  0  0  0
 18 32  1  0  0  0  0
 19 18  1  0  0  0  0
 19 33  1  0  0  0  0
 20 19  2  0  0  0  0
 20 15  1  0  0  0  0
 20 34  1  0  0  0  0
M  END
>  <MOL Chiral Flag>
0

>  <energy>
49.519958832474401

$$$$
> 596_AKC_znc-2009-7-807
>578.sdf
 OpenBabel10062215333D

 32 34  0  0  0  0  0  0  0  0999 V2000
   -4.9918    2.2450   -0.3471 C   0  0  0  0  0  0  0  0  0  0  0  0
   -3.9733    1.7500   -1.1312 O   0  0  0  0  0  0  0  0  0  0  0  0
   -3.1506    0.7676   -0.7007 C   0  0  0  0  0  0  0  0  0  0  0  0
   -3.6444   -0.4302   -0.1650 C   0  0  0  0  0  0  0  0  0  0  0  0
   -2.7759   -1.4219    0.3146 C   0  0  0  0  0  0  0  0  0  0  0  0
   -3.3457   -2.5433    0.8144 O   0  0  0  0  0  0  0  0  0  0  0  0
   -1.3596   -1.1953    0.2653 C   0  0  0  0  0  0  0  0  0  0  0  0
   -0.3731   -2.1114    0.7215 C   0  0  0  0  0  0  0  0  0  0  0  0
   -0.6651   -3.1858    1.2062 O   0  0  0  0  0  0  0  0  0  0  0  0
    0.9776   -1.7723    0.6184 C   0  0  0  0  0  0  0  0  0  0  0  0
    1.3378   -0.5233    0.1063 C   0  0  0  0  0  0  0  0  0  0  0  0
    0.4015    0.3186   -0.3049 O   0  0  0  0  0  0  0  0  0  0  0  0
   -0.8931    0.0332   -0.2727 C   0  0  0  0  0  0  0  0  0  0  0  0
   -1.7830    0.9807   -0.7660 C   0  0  0  0  0  0  0  0  0  0  0  0
    2.7469   -0.1009    0.0236 C   0  0  0  0  0  0  0  0  0  0  0  0
    3.0847    1.2334    0.3041 C   0  0  0  0  0  0  0  0  0  0  0  0
    4.4157    1.6512    0.2364 C   0  0  0  0  0  0  0  0  0  0  0  0
    5.4124    0.7503   -0.1468 C   0  0  0  0  0  0  0  0  0  0  0  0
    5.0815   -0.5747   -0.4453 C   0  0  0  0  0  0  0  0  0  0  0  0
    3.7558   -1.0067   -0.3448 C   0  0  0  0  0  0  0  0  0  0  0  0
   -5.7199    1.4565   -0.0711 H   0  0  0  0  0  0  0  0  0  0  0  0
   -5.5159    3.0527   -0.8954 H   0  0  0  0  0  0  0  0  0  0  0  0
   -4.5491    2.6807    0.5761 H   0  0  0  0  0  0  0  0  0  0  0  0
   -4.7123   -0.6031   -0.1202 H   0  0  0  0  0  0  0  0  0  0  0  0
   -2.8873   -3.2944    1.2007 H   0  0  0  0  0  0  0  0  0  0  0  0
    1.7352   -2.4597    0.9769 H   0  0  0  0  0  0  0  0  0  0  0  0
   -1.4067    1.9092   -1.1777 H   0  0  0  0  0  0  0  0  0  0  0  0
    2.3204    1.9407    0.6051 H   0  0  0  0  0  0  0  0  0  0  0  0
    4.6730    2.6742    0.4787 H   0  0  0  0  0  0  0  0  0  0  0  0
    6.4405    1.0796   -0.2140 H   0  0  0  0  0  0  0  0  0  0  0  0
    5.8519   -1.2676   -0.7563 H   0  0  0  0  0  0  0  0  0  0  0  0
    3.5119   -2.0329   -0.5890 H   0  0  0  0  0  0  0  0  0  0  0  0
  1 21  1  0  0  0  0
  1 22  1  0  0  0  0
  1 23  1  0  0  0  0
  2  1  1  0  0  0  0
  3  2  1  0  0  0  0
  4  3  2  0  0  0  0
  4 24  1  0  0  0  0
  5  4  1  0  0  0  0
  6  5  1  0  0  0  0
  6 25  1  0  0  0  0
  7  5  2  0  0  0  0
  8  7  1  0  0  0  0
  9  8  2  0  0  0  0
 10  8  1  0  0  0  0
 10 26  1  0  0  0  0
 11 10  2  0  0  0  0
 12 11  1  0  0  0  0
 13 12  1  0  0  0  0
 13  7  1  0  0  0  0
 14 13  2  0  0  0  0
 14  3  1  0  0  0  0
 14 27  1  0  0  0  0
 15 11  1  0  0  0  0
 16 15  2  0  0  0  0
 16 28  1  0  0  0  0
 17 16  1  0  0  0  0
 17 29  1  0  0  0  0
 18 17  2  0  0  0  0
 18 30  1  0  0  0  0
 19 18  1  0  0  0  0
 19 31  1  0  0  0  0
 20 19  2  0  0  0  0
 20 15  1  0  0  0  0
 20 32  1  0  0  0  0
M  END
>  <MOL Chiral Flag>
0

>  <energy>
47.253777641227671

$$$$
> 597_AC_j.biopha.2008.08.024
>579.sdf
 OpenBabel10062215343D

 60 62  0  0  0  0  0  0  0  0999 V2000
    2.6161   -3.1263    0.6594 C   0  0  0  0  0  0  0  0  0  0  0  0
    2.0713   -4.0526   -0.4306 C   0  0  0  0  0  0  0  0  0  0  0  0
    0.8890   -3.4249   -1.2037 C   0  0  2  0  0  0  0  0  0  0  0  0
    0.3454   -4.4399   -2.2221 C   0  0  0  0  0  0  0  0  0  0  0  0
    1.3340   -2.1517   -1.9159 C   0  0  0  0  0  0  0  0  0  0  0  0
    2.2562   -2.2492   -2.7145 O   0  0  0  0  0  0  0  0  0  0  0  0
    0.8051   -0.7743   -1.5736 C   0  0  0  0  0  0  0  0  0  0  0  0
   -0.5251   -0.5313   -1.1330 C   0  0  0  0  0  0  0  0  0  0  0  0
   -1.4664   -1.5024   -1.1369 O   0  0  0  0  0  0  0  0  0  0  0  0
   -0.9275    0.7625   -0.7281 C   0  0  0  0  0  0  0  0  0  0  0  0
   -2.3705    0.9414   -0.2540 C   0  0  0  0  0  0  0  0  0  0  0  0
   -2.5959    0.2618    1.1148 C   0  0  0  0  0  0  0  0  0  0  0  0
   -4.0459    0.3251    1.6561 C   0  0  0  0  0  0  0  0  0  0  0  0
   -4.5254    1.7639    1.8944 C   0  0  0  0  0  0  0  0  0  0  0  0
   -5.0329   -0.4301    0.7548 C   0  0  0  0  0  0  0  0  0  0  0  0
   -0.0122    1.8505   -0.8099 C   0  0  0  0  0  0  0  0  0  0  0  0
   -0.3613    3.0911   -0.4039 O   0  0  0  0  0  0  0  0  0  0  0  0
    1.2949    1.6375   -1.3188 C   0  0  0  0  0  0  0  0  0  0  0  0
    1.6982    0.3184   -1.6628 C   0  0  0  0  0  0  0  0  0  0  0  0
    2.9925    0.0864   -2.0242 O   0  0  0  0  0  0  0  0  0  0  0  0
    3.9845    0.9808   -1.7965 C   0  0  0  0  0  0  0  0  0  0  0  0
    5.0720    0.8352   -2.3313 O   0  0  0  0  0  0  0  0  0  0  0  0
    3.6935    2.2028   -0.9726 C   0  0  0  0  0  0  0  0  0  0  0  0
    2.3606    2.7535   -1.4991 C   0  0  2  0  0  0  0  0  0  0  0  0
    2.0291    4.1605   -1.0034 C   0  0  0  0  0  0  0  0  0  0  0  0
    1.1148    4.9462   -1.7347 C   0  0  0  0  0  0  0  0  0  0  0  0
    0.8039    6.2448   -1.3222 C   0  0  0  0  0  0  0  0  0  0  0  0
    1.4041    6.7798   -0.1814 C   0  0  0  0  0  0  0  0  0  0  0  0
    2.3192    6.0192    0.5483 C   0  0  0  0  0  0  0  0  0  0  0  0
    2.6365    4.7192    0.1427 C   0  0  0  0  0  0  0  0  0  0  0  0
    3.0130   -2.1868    0.2204 H   0  0  0  0  0  0  0  0  0  0  0  0
    1.8160   -2.8774    1.3886 H   0  0  0  0  0  0  0  0  0  0  0  0
    3.4429   -3.6345    1.1987 H   0  0  0  0  0  0  0  0  0  0  0  0
    2.8959   -4.3132   -1.1302 H   0  0  0  0  0  0  0  0  0  0  0  0
    1.7278   -4.9895    0.0608 H   0  0  0  0  0  0  0  0  0  0  0  0
    0.1140   -3.2180   -0.4408 H   0  0  0  0  0  0  0  0  0  0  0  0
    0.0069   -5.3607   -1.7009 H   0  0  0  0  0  0  0  0  0  0  0  0
   -0.5163   -4.0260   -2.7840 H   0  0  0  0  0  0  0  0  0  0  0  0
    1.1315   -4.7195   -2.9563 H   0  0  0  0  0  0  0  0  0  0  0  0
   -1.3913   -2.3274   -1.6226 H   0  0  0  0  0  0  0  0  0  0  0  0
   -3.0390    0.5195   -1.0326 H   0  0  0  0  0  0  0  0  0  0  0  0
   -2.6727    1.9924   -0.1634 H   0  0  0  0  0  0  0  0  0  0  0  0
   -1.9217    0.7451    1.8560 H   0  0  0  0  0  0  0  0  0  0  0  0
   -2.3079   -0.8086    1.0625 H   0  0  0  0  0  0  0  0  0  0  0  0
   -4.0395   -0.1885    2.6434 H   0  0  0  0  0  0  0  0  0  0  0  0
   -4.6048    2.3304    0.9439 H   0  0  0  0  0  0  0  0  0  0  0  0
   -3.8261    2.2926    2.5763 H   0  0  0  0  0  0  0  0  0  0  0  0
   -5.5298    1.7542    2.3690 H   0  0  0  0  0  0  0  0  0  0  0  0
   -4.7021   -1.4823    0.6223 H   0  0  0  0  0  0  0  0  0  0  0  0
   -5.1220    0.0491   -0.2417 H   0  0  0  0  0  0  0  0  0  0  0  0
   -6.0410   -0.4418    1.2214 H   0  0  0  0  0  0  0  0  0  0  0  0
   -1.1829    3.3465    0.0255 H   0  0  0  0  0  0  0  0  0  0  0  0
    3.5762    1.9171    0.0958 H   0  0  0  0  0  0  0  0  0  0  0  0
    4.5287    2.9311   -1.0722 H   0  0  0  0  0  0  0  0  0  0  0  0
    2.5395    2.8819   -2.5930 H   0  0  0  0  0  0  0  0  0  0  0  0
    0.6441    4.5462   -2.6246 H   0  0  0  0  0  0  0  0  0  0  0  0
    0.0979    6.8374   -1.8893 H   0  0  0  0  0  0  0  0  0  0  0  0
    1.1623    7.7859    0.1359 H   0  0  0  0  0  0  0  0  0  0  0  0
    2.7857    6.4379    1.4308 H   0  0  0  0  0  0  0  0  0  0  0  0
    3.3485    4.1575    0.7302 H   0  0  0  0  0  0  0  0  0  0  0  0
  1 31  1  0  0  0  0
  1 32  1  0  0  0  0
  1 33  1  0  0  0  0
  2  1  1  0  0  0  0
  2 34  1  0  0  0  0
  2 35  1  0  0  0  0
  3  2  1  0  0  0  0
  3 36  1  1  0  0  0
  4  3  1  0  0  0  0
  4 37  1  0  0  0  0
  4 38  1  0  0  0  0
  4 39  1  0  0  0  0
  5  3  1  0  0  0  0
  6  5  2  0  0  0  0
  7  5  1  0  0  0  0
  8  7  2  0  0  0  0
  9  8  1  0  0  0  0
  9 40  1  0  0  0  0
 10  8  1  0  0  0  0
 11 10  1  0  0  0  0
 11 41  1  0  0  0  0
 11 42  1  0  0  0  0
 12 11  1  0  0  0  0
 12 43  1  0  0  0  0
 12 44  1  0  0  0  0
 13 12  1  0  0  0  0
 13 45  1  0  0  0  0
 14 13  1  0  0  0  0
 14 46  1  0  0  0  0
 14 47  1  0  0  0  0
 14 48  1  0  0  0  0
 15 13  1  0  0  0  0
 15 49  1  0  0  0  0
 15 50  1  0  0  0  0
 15 51  1  0  0  0  0
 16 10  2  0  0  0  0
 17 16  1  0  0  0  0
 17 52  1  0  0  0  0
 18 16  1  0  0  0  0
 19 18  2  0  0  0  0
 19  7  1  0  0  0  0
 20 19  1  0  0  0  0
 21 20  1  0  0  0  0
 22 21  2  0  0  0  0
 23 21  1  0  0  0  0
 23 53  1  0  0  0  0
 23 54  1  0  0  0  0
 24 23  1  0  0  0  0
 24 18  1  0  0  0  0
 24 55  1  6  0  0  0
 25 24  1  0  0  0  0
 26 25  2  0  0  0  0
 26 56  1  0  0  0  0
 27 26  1  0  0  0  0
 27 57  1  0  0  0  0
 28 27  2  0  0  0  0
 28 58  1  0  0  0  0
 29 28  1  0  0  0  0
 29 59  1  0  0  0  0
 30 29  2  0  0  0  0
 30 25  1  0  0  0  0
 30 60  1  0  0  0  0
M  END
>  <MOL Chiral Flag>
0

>  <energy>
68.283557662247631

$$$$
> 598_AKC_j.biopha.2008.08.024
>579_2.sdf
 OpenBabel10102219293D

 60 62  0  0  0  0  0  0  0  0999 V2000
    2.3177   -3.5610    0.7158 C   0  0  0  0  0  0  0  0  0  0  0  0
    1.8526   -4.2218   -0.5838 C   0  0  0  0  0  0  0  0  0  0  0  0
    0.8099   -3.3687   -1.3418 C   0  0  2  0  0  0  0  0  0  0  0  0
    0.3342   -4.1317   -2.5889 C   0  0  0  0  0  0  0  0  0  0  0  0
    1.4095   -2.0258   -1.7461 C   0  0  0  0  0  0  0  0  0  0  0  0
    2.4152   -2.0497   -2.4432 O   0  0  0  0  0  0  0  0  0  0  0  0
    0.9173   -0.6927   -1.2191 C   0  0  0  0  0  0  0  0  0  0  0  0
   -0.4440   -0.4320   -0.8871 C   0  0  0  0  0  0  0  0  0  0  0  0
   -1.4285   -1.3173   -1.1614 O   0  0  0  0  0  0  0  0  0  0  0  0
   -0.8240    0.8010   -0.3067 C   0  0  0  0  0  0  0  0  0  0  0  0
   -2.2985    1.0031    0.0422 C   0  0  0  0  0  0  0  0  0  0  0  0
   -2.7148    0.1171    1.2372 C   0  0  0  0  0  0  0  0  0  0  0  0
   -4.2075    0.2063    1.6413 C   0  0  0  0  0  0  0  0  0  0  0  0
   -4.6121    1.6150    2.0985 C   0  0  0  0  0  0  0  0  0  0  0  0
   -5.1392   -0.2873    0.5257 C   0  0  0  0  0  0  0  0  0  0  0  0
    0.1501    1.8149   -0.0975 C   0  0  0  0  0  0  0  0  0  0  0  0
   -0.1635    2.9940    0.4916 O   0  0  0  0  0  0  0  0  0  0  0  0
    1.4894    1.6000   -0.4959 C   0  0  0  0  0  0  0  0  0  0  0  0
    1.8706    0.3361   -1.0258 C   0  0  0  0  0  0  0  0  0  0  0  0
    3.1845    0.0778   -1.2863 O   0  0  0  0  0  0  0  0  0  0  0  0
    4.1441    1.0236   -1.2066 C   0  0  0  0  0  0  0  0  0  0  0  0
    5.3153    0.7050   -1.0786 O   0  0  0  0  0  0  0  0  0  0  0  0
    3.7416    2.4523   -1.2669 C   0  0  0  0  0  0  0  0  0  0  0  0
    2.5801    2.6742   -0.2837 C   0  0  1  0  0  0  0  0  0  0  0  0
    2.0924    4.1064   -0.4527 C   0  0  0  0  0  0  0  0  0  0  0  0
    1.5124    4.5356   -1.6637 C   0  0  0  0  0  0  0  0  0  0  0  0
    1.0656    5.8526   -1.8038 C   0  0  0  0  0  0  0  0  0  0  0  0
    1.1913    6.7521   -0.7426 C   0  0  0  0  0  0  0  0  0  0  0  0
    1.7630    6.3366    0.4624 C   0  0  0  0  0  0  0  0  0  0  0  0
    2.2118    5.0207    0.6099 C   0  0  0  0  0  0  0  0  0  0  0  0
    2.8186   -2.5915    0.5107 H   0  0  0  0  0  0  0  0  0  0  0  0
    1.4528   -3.3884    1.3910 H   0  0  0  0  0  0  0  0  0  0  0  0
    3.0431   -4.2257    1.2303 H   0  0  0  0  0  0  0  0  0  0  0  0
    2.7377   -4.4140   -1.2296 H   0  0  0  0  0  0  0  0  0  0  0  0
    1.3983   -5.2028   -0.3220 H   0  0  0  0  0  0  0  0  0  0  0  0
   -0.0370   -3.2450   -0.6400 H   0  0  0  0  0  0  0  0  0  0  0  0
   -0.1178   -5.1028   -2.2943 H   0  0  0  0  0  0  0  0  0  0  0  0
   -0.4279   -3.5537   -3.1499 H   0  0  0  0  0  0  0  0  0  0  0  0
    1.1850   -4.3330   -3.2751 H   0  0  0  0  0  0  0  0  0  0  0  0
   -1.3432   -2.0486   -1.7777 H   0  0  0  0  0  0  0  0  0  0  0  0
   -2.8983    0.7737   -0.8627 H   0  0  0  0  0  0  0  0  0  0  0  0
   -2.5451    2.0433    0.2901 H   0  0  0  0  0  0  0  0  0  0  0  0
   -2.0955    0.4059    2.1151 H   0  0  0  0  0  0  0  0  0  0  0  0
   -2.4928   -0.9479    1.0183 H   0  0  0  0  0  0  0  0  0  0  0  0
   -4.3426   -0.4741    2.5115 H   0  0  0  0  0  0  0  0  0  0  0  0
   -4.5494    2.3479    1.2682 H   0  0  0  0  0  0  0  0  0  0  0  0
   -3.9570    1.9503    2.9305 H   0  0  0  0  0  0  0  0  0  0  0  0
   -5.6604    1.6068    2.4663 H   0  0  0  0  0  0  0  0  0  0  0  0
   -4.8674   -1.3230    0.2301 H   0  0  0  0  0  0  0  0  0  0  0  0
   -5.0870    0.3692   -0.3671 H   0  0  0  0  0  0  0  0  0  0  0  0
   -6.1905   -0.2955    0.8847 H   0  0  0  0  0  0  0  0  0  0  0  0
   -1.0134    3.2365    0.8708 H   0  0  0  0  0  0  0  0  0  0  0  0
    4.5983    3.1351   -1.0736 H   0  0  0  0  0  0  0  0  0  0  0  0
    3.3805    2.6280   -2.3028 H   0  0  0  0  0  0  0  0  0  0  0  0
    2.9735    2.5303    0.7477 H   0  0  0  0  0  0  0  0  0  0  0  0
    1.4019    3.8497   -2.4938 H   0  0  0  0  0  0  0  0  0  0  0  0
    0.6203    6.1753   -2.7360 H   0  0  0  0  0  0  0  0  0  0  0  0
    0.8442    7.7713   -0.8535 H   0  0  0  0  0  0  0  0  0  0  0  0
    1.8583    7.0349    1.2838 H   0  0  0  0  0  0  0  0  0  0  0  0
    2.6519    4.7145    1.5506 H   0  0  0  0  0  0  0  0  0  0  0  0
  1 31  1  0  0  0  0
  1 32  1  0  0  0  0
  1 33  1  0  0  0  0
  2  1  1  0  0  0  0
  2 34  1  0  0  0  0
  2 35  1  0  0  0  0
  3  2  1  0  0  0  0
  3 36  1  1  0  0  0
  4  3  1  0  0  0  0
  4 37  1  0  0  0  0
  4 38  1  0  0  0  0
  4 39  1  0  0  0  0
  5  3  1  0  0  0  0
  6  5  2  0  0  0  0
  7  5  1  0  0  0  0
  8  7  2  0  0  0  0
  9  8  1  0  0  0  0
  9 40  1  0  0  0  0
 10  8  1  0  0  0  0
 11 10  1  0  0  0  0
 11 41  1  0  0  0  0
 11 42  1  0  0  0  0
 12 11  1  0  0  0  0
 12 43  1  0  0  0  0
 12 44  1  0  0  0  0
 13 12  1  0  0  0  0
 13 45  1  0  0  0  0
 14 13  1  0  0  0  0
 14 46  1  0  0  0  0
 14 47  1  0  0  0  0
 14 48  1  0  0  0  0
 15 13  1  0  0  0  0
 15 49  1  0  0  0  0
 15 50  1  0  0  0  0
 15 51  1  0  0  0  0
 16 10  2  0  0  0  0
 17 16  1  0  0  0  0
 17 52  1  0  0  0  0
 18 16  1  0  0  0  0
 19 18  2  0  0  0  0
 19  7  1  0  0  0  0
 20 19  1  0  0  0  0
 21 20  1  0  0  0  0
 22 21  2  0  0  0  0
 23 21  1  0  0  0  0
 23 53  1  0  0  0  0
 23 54  1  0  0  0  0
 24 23  1  0  0  0  0
 24 18  1  0  0  0  0
 24 55  1  1  0  0  0
 25 24  1  0  0  0  0
 26 25  2  0  0  0  0
 26 56  1  0  0  0  0
 27 26  1  0  0  0  0
 27 57  1  0  0  0  0
 28 27  2  0  0  0  0
 28 58  1  0  0  0  0
 29 28  1  0  0  0  0
 29 59  1  0  0  0  0
 30 29  2  0  0  0  0
 30 25  1  0  0  0  0
 30 60  1  0  0  0  0
M  END
>  <MOL Chiral Flag>
0

>  <energy>
68.283557662247631

$$$$
> 599_AKC_j.ejmech.2007.12.014
>580.sdf
 OpenBabel10062215353D

 46 47  0  0  0  0  0  0  0  0999 V2000
    1.8314    3.3029    2.6171 C   0  0  0  0  0  0  0  0  0  0  0  0
    1.4123    2.6851    1.2958 C   0  0  0  0  0  0  0  0  0  0  0  0
    1.8616    1.4318    1.0599 C   0  0  0  0  0  0  0  0  0  0  0  0
    1.3966    0.5885   -0.0851 C   0  0  0  0  0  0  0  0  0  0  0  0
    0.0834    1.1152   -0.6624 C   0  0  0  0  0  0  0  0  0  0  0  0
    0.1676    2.6166   -1.0120 C   0  0  0  0  0  0  0  0  0  0  0  0
   -1.1944    2.9895   -1.6447 C   0  0  0  0  0  0  0  0  0  0  0  0
    1.2749    2.8316   -2.0757 C   0  0  0  0  0  0  0  0  0  0  0  0
    0.4478    3.4304    0.3277 C   0  0  2  0  0  0  0  0  0  0  0  0
    0.9472    4.9101    0.1037 C   0  0  0  0  0  0  0  0  0  0  0  0
   -0.1085    5.9241   -0.3913 C   0  0  0  0  0  0  0  0  0  0  0  0
    0.3177    7.3534   -0.1212 C   0  0  0  0  0  0  0  0  0  0  0  0
    0.6626    7.6610    1.0120 O   0  0  0  0  0  0  0  0  0  0  0  0
    0.2023    8.4121   -1.1614 C   0  0  0  0  0  0  0  0  0  0  0  0
    0.5593    9.6855   -0.8819 C   0  0  0  0  0  0  0  0  0  0  0  0
    0.3964   10.8483   -1.7996 C   0  0  0  0  0  0  0  0  0  0  0  0
   -0.2515   10.7668   -3.0470 C   0  0  0  0  0  0  0  0  0  0  0  0
   -0.4018   11.9155   -3.8286 C   0  0  0  0  0  0  0  0  0  0  0  0
    0.0977   13.1335   -3.3670 C   0  0  0  0  0  0  0  0  0  0  0  0
    0.7250   13.1999   -2.1650 N   0  0  0  0  0  0  0  0  0  0  0  0
    0.8813   12.1001   -1.3808 C   0  0  0  0  0  0  0  0  0  0  0  0
    2.9325    3.4437    2.6393 H   0  0  0  0  0  0  0  0  0  0  0  0
    1.3355    4.2615    2.8536 H   0  0  0  0  0  0  0  0  0  0  0  0
    1.5410    2.6219    3.4455 H   0  0  0  0  0  0  0  0  0  0  0  0
    2.5510    0.9712    1.7639 H   0  0  0  0  0  0  0  0  0  0  0  0
    1.1863   -0.4371    0.2889 H   0  0  0  0  0  0  0  0  0  0  0  0
    2.2110    0.5037   -0.8332 H   0  0  0  0  0  0  0  0  0  0  0  0
   -0.7204    0.9747    0.0970 H   0  0  0  0  0  0  0  0  0  0  0  0
   -0.1799    0.4963   -1.5489 H   0  0  0  0  0  0  0  0  0  0  0  0
   -1.4022    2.3415   -2.5245 H   0  0  0  0  0  0  0  0  0  0  0  0
   -1.2394    4.0197   -2.0193 H   0  0  0  0  0  0  0  0  0  0  0  0
   -2.0195    2.8462   -0.9144 H   0  0  0  0  0  0  0  0  0  0  0  0
    1.2809    3.8798   -2.4387 H   0  0  0  0  0  0  0  0  0  0  0  0
    2.2845    2.6115   -1.6722 H   0  0  0  0  0  0  0  0  0  0  0  0
    1.0989    2.1802   -2.9595 H   0  0  0  0  0  0  0  0  0  0  0  0
   -0.4927    3.4796    0.9198 H   0  0  0  0  0  0  0  0  0  0  0  0
    1.8779    4.9603   -0.4993 H   0  0  0  0  0  0  0  0  0  0  0  0
    1.2302    5.3038    1.0876 H   0  0  0  0  0  0  0  0  0  0  0  0
   -0.3365    5.8043   -1.4642 H   0  0  0  0  0  0  0  0  0  0  0  0
   -1.0318    5.7623    0.2049 H   0  0  0  0  0  0  0  0  0  0  0  0
   -0.2105    8.1452   -2.1259 H   0  0  0  0  0  0  0  0  0  0  0  0
    0.9774    9.8997    0.0982 H   0  0  0  0  0  0  0  0  0  0  0  0
   -0.6558    9.8369   -3.4160 H   0  0  0  0  0  0  0  0  0  0  0  0
   -0.9081   11.8639   -4.7836 H   0  0  0  0  0  0  0  0  0  0  0  0
   -0.0178   14.0294   -3.9630 H   0  0  0  0  0  0  0  0  0  0  0  0
    1.3801   12.2020   -0.4252 H   0  0  0  0  0  0  0  0  0  0  0  0
  1 22  1  0  0  0  0
  1 23  1  0  0  0  0
  1 24  1  0  0  0  0
  2  1  1  0  0  0  0
  3  2  2  0  0  0  0
  3 25  1  0  0  0  0
  4  3  1  0  0  0  0
  4 26  1  0  0  0  0
  4 27  1  0  0  0  0
  5  4  1  0  0  0  0
  5 28  1  0  0  0  0
  5 29  1  0  0  0  0
  6  5  1  0  0  0  0
  7  6  1  0  0  0  0
  7 30  1  0  0  0  0
  7 31  1  0  0  0  0
  7 32  1  0  0  0  0
  8  6  1  0  0  0  0
  8 33  1  0  0  0  0
  8 34  1  0  0  0  0
  8 35  1  0  0  0  0
  9  6  1  0  0  0  0
  9  2  1  0  0  0  0
  9 36  1  1  0  0  0
 10  9  1  0  0  0  0
 10 37  1  0  0  0  0
 10 38  1  0  0  0  0
 11 10  1  0  0  0  0
 11 39  1  0  0  0  0
 11 40  1  0  0  0  0
 12 11  1  0  0  0  0
 13 12  2  0  0  0  0
 14 12  1  0  0  0  0
 14 41  1  0  0  0  0
 15 14  2  0  0  0  0
 15 42  1  0  0  0  0
 16 15  1  0  0  0  0
 17 16  2  0  0  0  0
 17 43  1  0  0  0  0
 18 17  1  0  0  0  0
 18 44  1  0  0  0  0
 19 18  2  0  0  0  0
 19 45  1  0  0  0  0
 20 19  1  0  0  0  0
 21 20  2  0  0  0  0
 21 16  1  0  0  0  0
 21 46  1  0  0  0  0
M  END
>  <MOL Chiral Flag>
0

>  <energy>
74.954252360190893

$$$$
> 600_AKC_AAC.00124-08
>581.sdf
 OpenBabel10062215363D

  9  8  0  0  0  0  0  0  0  0999 V2000
    1.3681    0.1954    0.1453 N   0  0  0  0  0  0  0  0  0  0  0  0
    2.7217    0.2259    0.1525 C   0  0  0  0  0  0  0  0  0  0  0  0
    3.3513   -0.7430   -0.2469 O   0  0  0  0  0  0  0  0  0  0  0  0
    3.3792    1.3244    0.6001 N   0  0  0  0  0  0  0  0  0  0  0  0
    4.7239    1.3513    0.6061 O   0  0  0  0  0  0  0  0  0  0  0  0
    0.8678   -0.6394   -0.1947 H   0  0  0  0  0  0  0  0  0  0  0  0
    0.8217    1.0033    0.4784 H   0  0  0  0  0  0  0  0  0  0  0  0
    2.8418    2.1409    0.9369 H   0  0  0  0  0  0  0  0  0  0  0  0
    4.9809    2.2405    0.9639 H   0  0  0  0  0  0  0  0  0  0  0  0
  1  6  1  0  0  0  0
  1  7  1  0  0  0  0
  2  1  1  0  0  0  0
  3  2  2  0  0  0  0
  4  2  1  0  0  0  0
  4  8  1  0  0  0  0
  5  4  1  0  0  0  0
  5  9  1  0  0  0  0
M  END
>  <MOL Chiral Flag>
0

>  <energy>
-39.659043976291315

$$$$
> 601_AKC_j.bmc.2008.08.024
>582.sdf
 OpenBabel10062215383D

 83 86  0  0  0  0  0  0  0  0999 V2000
    2.2033   -6.1363    7.2320 C   0  0  0  0  0  0  0  0  0  0  0  0
    0.6915   -6.0145    7.3308 C   0  0  0  0  0  0  0  0  0  0  0  0
    0.2527   -5.0834    6.3729 O   0  0  0  0  0  0  0  0  0  0  0  0
   -1.4879   -4.8712    6.4838 P   0  0  0  0  0  0  0  0  0  0  0  0
   -2.0174   -5.7354    7.6635 O   0  0  0  0  0  0  0  0  0  0  0  0
   -2.2452   -5.5852    5.0668 O   0  0  0  0  0  0  0  0  0  0  0  0
   -1.6347   -6.8057    4.7110 C   0  0  0  0  0  0  0  0  0  0  0  0
   -2.2642   -7.9869    5.4466 C   0  0  0  0  0  0  0  0  0  0  0  0
   -2.1179   -3.1216    6.7243 C   0  0  0  0  0  0  0  0  0  0  0  0
   -1.5858   -2.1323    5.6829 C   0  0  0  0  0  0  0  0  0  0  0  0
   -1.7600   -2.4738    4.1887 C   0  0  0  0  0  0  0  0  0  0  0  0
   -1.1885   -1.2828    3.4074 C   0  0  0  0  0  0  0  0  0  0  0  0
   -1.1867   -1.3662    1.8711 C   0  0  0  0  0  0  0  0  0  0  0  0
   -0.6902    0.0147    1.3853 C   0  0  0  0  0  0  0  0  0  0  0  0
   -0.6202    0.2344   -0.0700 N   0  0  0  0  0  0  0  0  0  0  0  0
    0.3391   -0.2608   -0.8825 C   0  0  0  0  0  0  0  0  0  0  0  0
    1.3477   -1.1809   -0.5734 C   0  0  0  0  0  0  0  0  0  0  0  0
    2.2677   -1.5249   -1.5813 C   0  0  0  0  0  0  0  0  0  0  0  0
    2.1737   -0.9392   -2.8620 C   0  0  0  0  0  0  0  0  0  0  0  0
    1.1617   -0.0056   -3.1402 C   0  0  0  0  0  0  0  0  0  0  0  0
    0.2578    0.3125   -2.1234 C   0  0  0  0  0  0  0  0  0  0  0  0
   -0.7911    1.2131   -2.1098 C   0  0  0  0  0  0  0  0  0  0  0  0
   -1.3525    1.1290   -0.8114 C   0  0  0  0  0  0  0  0  0  0  0  0
   -2.5505    1.8767   -0.2761 C   0  0  0  0  0  0  0  0  0  0  0  0
   -3.4507    1.1983    0.5744 C   0  0  0  0  0  0  0  0  0  0  0  0
   -4.5833    1.8289    1.0857 C   0  0  0  0  0  0  0  0  0  0  0  0
   -4.8493    3.1532    0.7600 C   0  0  0  0  0  0  0  0  0  0  0  0
   -3.9886    3.8454   -0.0898 C   0  0  0  0  0  0  0  0  0  0  0  0
   -2.8486    3.2194   -0.6162 C   0  0  0  0  0  0  0  0  0  0  0  0
   -1.8120    4.1663   -1.7187 S   0  0  0  0  0  0  0  0  0  0  0  0
   -2.2414    3.0836   -3.1149 C   0  0  0  0  0  0  0  0  0  0  0  0
   -1.1318    2.0693   -3.3130 C   0  0  0  0  0  0  0  0  0  0  0  0
   -1.6962   -2.4107    8.4191 P   0  0  0  0  0  0  0  0  0  0  0  0
   -1.9391   -3.3950    9.5981 O   0  0  0  0  0  0  0  0  0  0  0  0
   -2.7309   -1.0299    8.7556 O   0  0  0  0  0  0  0  0  0  0  0  0
   -3.9456   -1.4309    9.3495 C   0  0  0  0  0  0  0  0  0  0  0  0
   -3.8878   -1.2036   10.8566 C   0  0  0  0  0  0  0  0  0  0  0  0
   -0.1051   -1.7255    8.6928 O   0  0  0  0  0  0  0  0  0  0  0  0
    0.8792   -2.7020    8.5117 C   0  0  0  0  0  0  0  0  0  0  0  0
    2.2420   -2.0707    8.7521 C   0  0  0  0  0  0  0  0  0  0  0  0
    2.5731   -6.8653    7.9831 H   0  0  0  0  0  0  0  0  0  0  0  0
    2.6773   -5.1501    7.4224 H   0  0  0  0  0  0  0  0  0  0  0  0
    2.4894   -6.4852    6.2170 H   0  0  0  0  0  0  0  0  0  0  0  0
    0.2525   -7.0173    7.1367 H   0  0  0  0  0  0  0  0  0  0  0  0
    0.4440   -5.6743    8.3593 H   0  0  0  0  0  0  0  0  0  0  0  0
   -0.5321   -6.7939    4.8271 H   0  0  0  0  0  0  0  0  0  0  0  0
   -1.8094   -6.9526    3.6246 H   0  0  0  0  0  0  0  0  0  0  0  0
   -3.3595   -8.0102    5.2649 H   0  0  0  0  0  0  0  0  0  0  0  0
   -1.8187   -8.9338    5.0759 H   0  0  0  0  0  0  0  0  0  0  0  0
   -2.0793   -7.9280    6.5366 H   0  0  0  0  0  0  0  0  0  0  0  0
   -3.2238   -3.2049    6.6681 H   0  0  0  0  0  0  0  0  0  0  0  0
   -2.0841   -1.1575    5.8853 H   0  0  0  0  0  0  0  0  0  0  0  0
   -0.4967   -2.0056    5.8638 H   0  0  0  0  0  0  0  0  0  0  0  0
   -1.1985   -3.3969    3.9328 H   0  0  0  0  0  0  0  0  0  0  0  0
   -2.8348   -2.6126    3.9420 H   0  0  0  0  0  0  0  0  0  0  0  0
   -0.1357   -1.1173    3.7309 H   0  0  0  0  0  0  0  0  0  0  0  0
   -1.7923   -0.3953    3.7049 H   0  0  0  0  0  0  0  0  0  0  0  0
   -0.5255   -2.1882    1.5276 H   0  0  0  0  0  0  0  0  0  0  0  0
   -2.2111   -1.5747    1.5067 H   0  0  0  0  0  0  0  0  0  0  0  0
   -1.3226    0.7996    1.8415 H   0  0  0  0  0  0  0  0  0  0  0  0
    0.3228    0.2093    1.8019 H   0  0  0  0  0  0  0  0  0  0  0  0
    1.4308   -1.6223    0.4093 H   0  0  0  0  0  0  0  0  0  0  0  0
    3.0559   -2.2364   -1.3726 H   0  0  0  0  0  0  0  0  0  0  0  0
    2.8900   -1.2017   -3.6301 H   0  0  0  0  0  0  0  0  0  0  0  0
    1.0960    0.4594   -4.1155 H   0  0  0  0  0  0  0  0  0  0  0  0
   -3.2973    0.1657    0.8237 H   0  0  0  0  0  0  0  0  0  0  0  0
   -5.2598    1.2822    1.7308 H   0  0  0  0  0  0  0  0  0  0  0  0
   -5.7301    3.6402    1.1577 H   0  0  0  0  0  0  0  0  0  0  0  0
   -4.2109    4.8731   -0.3456 H   0  0  0  0  0  0  0  0  0  0  0  0
   -3.2202    2.5742   -2.9777 H   0  0  0  0  0  0  0  0  0  0  0  0
   -2.3567    3.7119   -4.0229 H   0  0  0  0  0  0  0  0  0  0  0  0
   -0.2140    2.6397   -3.5781 H   0  0  0  0  0  0  0  0  0  0  0  0
   -1.3900    1.4148   -4.1719 H   0  0  0  0  0  0  0  0  0  0  0  0
   -4.7565   -0.8012    8.9268 H   0  0  0  0  0  0  0  0  0  0  0  0
   -4.2312   -2.4816    9.1170 H   0  0  0  0  0  0  0  0  0  0  0  0
   -4.8622   -1.4713   11.3159 H   0  0  0  0  0  0  0  0  0  0  0  0
   -3.6717   -0.1350   11.0702 H   0  0  0  0  0  0  0  0  0  0  0  0
   -3.0931   -1.8264   11.3165 H   0  0  0  0  0  0  0  0  0  0  0  0
    0.8768   -3.0571    7.4664 H   0  0  0  0  0  0  0  0  0  0  0  0
    0.7480   -3.5308    9.2396 H   0  0  0  0  0  0  0  0  0  0  0  0
    3.0402   -2.8284    8.6062 H   0  0  0  0  0  0  0  0  0  0  0  0
    2.3035   -1.6749    9.7877 H   0  0  0  0  0  0  0  0  0  0  0  0
    2.4053   -1.2369    8.0354 H   0  0  0  0  0  0  0  0  0  0  0  0
  1 41  1  0  0  0  0
  1 42  1  0  0  0  0
  1 43  1  0  0  0  0
  2  1  1  0  0  0  0
  2 44  1  0  0  0  0
  2 45  1  0  0  0  0
  3  2  1  0  0  0  0
  4  3  1  0  0  0  0
  5  4  2  0  0  0  0
  6  4  1  0  0  0  0
  7  6  1  0  0  0  0
  7 46  1  0  0  0  0
  7 47  1  0  0  0  0
  8  7  1  0  0  0  0
  8 48  1  0  0  0  0
  8 49  1  0  0  0  0
  8 50  1  0  0  0  0
  9  4  1  0  0  0  0
  9 51  1  0  0  0  0
 10  9  1  0  0  0  0
 10 52  1  0  0  0  0
 10 53  1  0  0  0  0
 11 10  1  0  0  0  0
 11 54  1  0  0  0  0
 11 55  1  0  0  0  0
 12 11  1  0  0  0  0
 12 56  1  0  0  0  0
 12 57  1  0  0  0  0
 13 12  1  0  0  0  0
 13 58  1  0  0  0  0
 13 59  1  0  0  0  0
 14 13  1  0  0  0  0
 14 60  1  0  0  0  0
 14 61  1  0  0  0  0
 15 14  1  0  0  0  0
 16 15  1  0  0  0  0
 17 16  2  0  0  0  0
 17 62  1  0  0  0  0
 18 17  1  0  0  0  0
 18 63  1  0  0  0  0
 19 18  2  0  0  0  0
 19 64  1  0  0  0  0
 20 19  1  0  0  0  0
 20 65  1  0  0  0  0
 21 20  2  0  0  0  0
 21 16  1  0  0  0  0
 22 21  1  0  0  0  0
 23 22  2  0  0  0  0
 23 15  1  0  0  0  0
 24 23  1  0  0  0  0
 25 24  2  0  0  0  0
 25 66  1  0  0  0  0
 26 25  1  0  0  0  0
 26 67  1  0  0  0  0
 27 26  2  0  0  0  0
 27 68  1  0  0  0  0
 28 27  1  0  0  0  0
 28 69  1  0  0  0  0
 29 28  2  0  0  0  0
 29 24  1  0  0  0  0
 30 29  1  0  0  0  0
 31 30  1  0  0  0  0
 31 70  1  0  0  0  0
 31 71  1  0  0  0  0
 32 31  1  0  0  0  0
 32 22  1  0  0  0  0
 32 72  1  0  0  0  0
 32 73  1  0  0  0  0
 33  9  1  0  0  0  0
 34 33  2  0  0  0  0
 35 33  1  0  0  0  0
 36 35  1  0  0  0  0
 36 74  1  0  0  0  0
 36 75  1  0  0  0  0
 37 36  1  0  0  0  0
 37 76  1  0  0  0  0
 37 77  1  0  0  0  0
 37 78  1  0  0  0  0
 38 33  1  0  0  0  0
 39 38  1  0  0  0  0
 39 79  1  0  0  0  0
 39 80  1  0  0  0  0
 40 39  1  0  0  0  0
 40 81  1  0  0  0  0
 40 82  1  0  0  0  0
 40 83  1  0  0  0  0
M  END
>  <MOL Chiral Flag>
0

>  <energy>
-44.806237211857876

$$$$
> 602_AKC_j.bmc.2008.07.077
>583.sdf
 OpenBabel10062215383D

 34 35  0  0  0  0  0  0  0  0999 V2000
   -6.2126   -3.9401    2.9135 C   0  0  0  0  0  0  0  0  0  0  0  0
   -4.7683   -4.2255    2.5274 C   0  0  0  0  0  0  0  0  0  0  0  0
   -3.9956   -3.0800    2.8104 O   0  0  0  0  0  0  0  0  0  0  0  0
   -2.7217   -3.1766    2.2081 C   0  0  0  0  0  0  0  0  0  0  0  0
   -2.0875   -1.7920    2.2540 C   0  0  0  0  0  0  0  0  0  0  0  0
   -0.4688   -1.6923    1.4185 S   0  0  0  0  0  0  0  0  0  0  0  0
    0.1629   -0.4717    2.1024 O   0  0  0  0  0  0  0  0  0  0  0  0
    0.4782   -2.7853    1.9375 O   0  0  0  0  0  0  0  0  0  0  0  0
   -0.2410   -1.4385   -0.3617 C   0  0  0  0  0  0  0  0  0  0  0  0
   -1.0781   -1.9442   -1.2803 N   0  3  0  0  0  0  0  0  0  0  0  0
   -2.1316   -2.7228   -1.0650 O   0  5  0  0  0  0  0  0  0  0  0  0
   -0.7168   -1.5113   -2.4468 O   0  0  0  0  0  0  0  0  0  0  0  0
    0.3252   -0.7338   -2.3801 N   0  0  0  0  0  0  0  0  0  0  0  0
    0.6806   -0.6632   -1.0750 C   0  0  0  0  0  0  0  0  0  0  0  0
    1.8444    0.1501   -0.6295 C   0  0  0  0  0  0  0  0  0  0  0  0
    2.2830    1.2093   -1.4489 C   0  0  0  0  0  0  0  0  0  0  0  0
    3.3656    2.0049   -1.0659 C   0  0  0  0  0  0  0  0  0  0  0  0
    4.0361    1.7448    0.1291 C   0  0  0  0  0  0  0  0  0  0  0  0
    3.6297    0.6829    0.9391 C   0  0  0  0  0  0  0  0  0  0  0  0
    2.5419   -0.1134    0.5640 C   0  0  0  0  0  0  0  0  0  0  0  0
   -6.2784   -3.6934    3.9943 H   0  0  0  0  0  0  0  0  0  0  0  0
   -6.5985   -3.0806    2.3236 H   0  0  0  0  0  0  0  0  0  0  0  0
   -6.8443   -4.8291    2.7057 H   0  0  0  0  0  0  0  0  0  0  0  0
   -4.7701   -4.4712    1.4403 H   0  0  0  0  0  0  0  0  0  0  0  0
   -4.4005   -5.0913    3.1207 H   0  0  0  0  0  0  0  0  0  0  0  0
   -2.7997   -3.4775    1.1438 H   0  0  0  0  0  0  0  0  0  0  0  0
   -2.0825   -3.8990    2.7622 H   0  0  0  0  0  0  0  0  0  0  0  0
   -2.7577   -1.0606    1.7552 H   0  0  0  0  0  0  0  0  0  0  0  0
   -1.9707   -1.4702    3.3113 H   0  0  0  0  0  0  0  0  0  0  0  0
    1.7737    1.4325   -2.3784 H   0  0  0  0  0  0  0  0  0  0  0  0
    3.6831    2.8247   -1.6974 H   0  0  0  0  0  0  0  0  0  0  0  0
    4.8759    2.3611    0.4230 H   0  0  0  0  0  0  0  0  0  0  0  0
    4.1620    0.4723    1.8576 H   0  0  0  0  0  0  0  0  0  0  0  0
    2.2745   -0.9441    1.1936 H   0  0  0  0  0  0  0  0  0  0  0  0
  1 21  1  0  0  0  0
  1 22  1  0  0  0  0
  1 23  1  0  0  0  0
  2  1  1  0  0  0  0
  2 24  1  0  0  0  0
  2 25  1  0  0  0  0
  3  2  1  0  0  0  0
  4  3  1  0  0  0  0
  4 26  1  0  0  0  0
  4 27  1  0  0  0  0
  5  4  1  0  0  0  0
  5 28  1  0  0  0  0
  5 29  1  0  0  0  0
  6  5  1  0  0  0  0
  7  6  2  0  0  0  0
  8  6  2  0  0  0  0
  9  6  1  0  0  0  0
 10  9  2  0  0  0  0
 11 10  1  0  0  0  0
 12 10  1  0  0  0  0
 13 12  1  0  0  0  0
 14 13  2  0  0  0  0
 14  9  1  0  0  0  0
 15 14  1  0  0  0  0
 16 15  2  0  0  0  0
 16 30  1  0  0  0  0
 17 16  1  0  0  0  0
 17 31  1  0  0  0  0
 18 17  2  0  0  0  0
 18 32  1  0  0  0  0
 19 18  1  0  0  0  0
 19 33  1  0  0  0  0
 20 19  2  0  0  0  0
 20 15  1  0  0  0  0
 20 34  1  0  0  0  0
M  CHG  2  10   1  11  -1
M  END
>  <MOL Chiral Flag>
0

>  <energy>
-63.589125431179383

$$$$
> 603_AKC_14756360701585619
>585.sdf
 OpenBabel10062215403D

 48 51  0  0  0  0  0  0  0  0999 V2000
    7.3294    2.5063    0.8182 C   0  0  0  0  0  0  0  0  0  0  0  0
    6.9903    1.7073   -0.2577 O   0  0  0  0  0  0  0  0  0  0  0  0
    5.7207    1.3414   -0.5779 C   0  0  0  0  0  0  0  0  0  0  0  0
    5.5273    0.2707   -1.4589 C   0  0  0  0  0  0  0  0  0  0  0  0
    4.2364   -0.1800   -1.7634 C   0  0  0  0  0  0  0  0  0  0  0  0
    3.1109    0.4486   -1.2076 C   0  0  0  0  0  0  0  0  0  0  0  0
    1.7482   -0.1076   -1.4979 C   0  0  0  0  0  0  0  0  0  0  0  0
    0.6262    0.5157   -1.1033 C   0  0  0  0  0  0  0  0  0  0  0  0
   -0.7482   -0.0197   -1.2639 C   0  0  0  0  0  0  0  0  0  0  0  0
   -1.8833    0.5980   -0.7954 N   0  3  0  0  0  0  0  0  0  0  0  0
   -3.0287   -0.0427   -1.1210 N   0  0  0  0  0  0  0  0  0  0  0  0
   -2.8284   -1.1901   -1.8227 C   0  0  0  0  0  0  0  0  0  0  0  0
   -3.8307   -2.1338   -2.2036 N   0  0  0  0  0  0  0  0  0  0  0  0
   -5.2426   -2.0389   -1.9530 C   0  0  0  0  0  0  0  0  0  0  0  0
   -6.0411   -3.1729   -2.2050 C   0  0  0  0  0  0  0  0  0  0  0  0
   -7.4193   -3.1470   -1.9738 C   0  0  0  0  0  0  0  0  0  0  0  0
   -8.0261   -1.9878   -1.4941 C   0  0  0  0  0  0  0  0  0  0  0  0
   -7.2565   -0.8512   -1.2459 C   0  0  0  0  0  0  0  0  0  0  0  0
   -5.8748   -0.8681   -1.4704 C   0  0  0  0  0  0  0  0  0  0  0  0
   -1.2034   -1.3971   -2.0583 S   0  0  0  0  0  0  0  0  0  0  0  0
   -1.9010    1.8050   -0.0026 C   0  0  0  0  0  0  0  0  0  0  0  0
   -0.9772    1.9928    1.0485 C   0  0  0  0  0  0  0  0  0  0  0  0
   -0.9692    3.1764    1.7849 C   0  0  0  0  0  0  0  0  0  0  0  0
   -1.8843    4.1862    1.4908 C   0  0  0  0  0  0  0  0  0  0  0  0
   -2.8251    4.0023    0.4723 C   0  0  0  0  0  0  0  0  0  0  0  0
   -2.8441    2.8108   -0.2644 C   0  0  0  0  0  0  0  0  0  0  0  0
    3.3139    1.5544   -0.3449 C   0  0  0  0  0  0  0  0  0  0  0  0
    4.5993    1.9879   -0.0322 C   0  0  0  0  0  0  0  0  0  0  0  0
    7.0070    2.0150    1.7630 H   0  0  0  0  0  0  0  0  0  0  0  0
    6.8676    3.5124    0.7375 H   0  0  0  0  0  0  0  0  0  0  0  0
    8.4306    2.6290    0.8486 H   0  0  0  0  0  0  0  0  0  0  0  0
    6.3839   -0.2336   -1.8869 H   0  0  0  0  0  0  0  0  0  0  0  0
    4.1157   -1.0291   -2.4244 H   0  0  0  0  0  0  0  0  0  0  0  0
    1.6745   -1.0631   -2.0094 H   0  0  0  0  0  0  0  0  0  0  0  0
    0.7114    1.4731   -0.6429 H   0  0  0  0  0  0  0  0  0  0  0  0
   -3.4888   -3.0029   -2.6415 H   0  0  0  0  0  0  0  0  0  0  0  0
   -5.5894   -4.0850   -2.5750 H   0  0  0  0  0  0  0  0  0  0  0  0
   -8.0172   -4.0289   -2.1667 H   0  0  0  0  0  0  0  0  0  0  0  0
   -9.0941   -1.9689   -1.3169 H   0  0  0  0  0  0  0  0  0  0  0  0
   -7.7324    0.0491   -0.8787 H   0  0  0  0  0  0  0  0  0  0  0  0
   -5.3364    0.0382   -1.2723 H   0  0  0  0  0  0  0  0  0  0  0  0
   -0.2670    1.2172    1.3051 H   0  0  0  0  0  0  0  0  0  0  0  0
   -0.2482    3.3093    2.5819 H   0  0  0  0  0  0  0  0  0  0  0  0
   -1.8669    5.1084    2.0564 H   0  0  0  0  0  0  0  0  0  0  0  0
   -3.5339    4.7880    0.2487 H   0  0  0  0  0  0  0  0  0  0  0  0
   -3.5664    2.6865   -1.0609 H   0  0  0  0  0  0  0  0  0  0  0  0
    2.5018    2.0788    0.1291 H   0  0  0  0  0  0  0  0  0  0  0  0
    4.7082    2.8212    0.6483 H   0  0  0  0  0  0  0  0  0  0  0  0
  1 29  1  0  0  0  0
  1 30  1  0  0  0  0
  1 31  1  0  0  0  0
  2  1  1  0  0  0  0
  3  2  1  0  0  0  0
  4  3  2  0  0  0  0
  4 32  1  0  0  0  0
  5  4  1  0  0  0  0
  5 33  1  0  0  0  0
  6  5  2  0  0  0  0
  7  6  1  0  0  0  0
  7 34  1  0  0  0  0
  8  7  2  0  0  0  0
  8 35  1  0  0  0  0
  9  8  1  0  0  0  0
 10  9  2  0  0  0  0
 11 10  1  0  0  0  0
 12 11  2  0  0  0  0
 13 12  1  0  0  0  0
 13 36  1  0  0  0  0
 14 13  1  0  0  0  0
 15 14  2  0  0  0  0
 15 37  1  0  0  0  0
 16 15  1  0  0  0  0
 16 38  1  0  0  0  0
 17 16  2  0  0  0  0
 17 39  1  0  0  0  0
 18 17  1  0  0  0  0
 18 40  1  0  0  0  0
 19 18  2  0  0  0  0
 19 14  1  0  0  0  0
 19 41  1  0  0  0  0
 20 12  1  0  0  0  0
 20  9  1  0  0  0  0
 21 10  1  0  0  0  0
 22 21  2  0  0  0  0
 22 42  1  0  0  0  0
 23 22  1  0  0  0  0
 23 43  1  0  0  0  0
 24 23  2  0  0  0  0
 24 44  1  0  0  0  0
 25 24  1  0  0  0  0
 25 45  1  0  0  0  0
 26 25  2  0  0  0  0
 26 21  1  0  0  0  0
 26 46  1  0  0  0  0
 27  6  1  0  0  0  0
 27 47  1  0  0  0  0
 28 27  2  0  0  0  0
 28  3  1  0  0  0  0
 28 48  1  0  0  0  0
M  CHG  1  10   1
M  END
>  <MOL Chiral Flag>
0

>  <energy>
118.50665739956135

$$$$
> 604_AKC_jac/dkn046
>586.sdf
 OpenBabel10062215413D

 38 40  0  0  0  0  0  0  0  0999 V2000
    3.3599   -2.9998   -3.2859 C   0  0  0  0  0  0  0  0  0  0  0  0
    3.1835   -1.8204   -2.4292 N   0  3  0  0  0  0  0  0  0  0  0  0
    1.7688   -1.4007   -2.2781 C   0  0  1  0  0  0  0  0  0  0  0  0
    0.9196   -2.4716   -1.5620 C   0  0  0  0  0  0  0  0  0  0  0  0
   -0.5750   -2.0893   -1.5221 C   0  0  0  0  0  0  0  0  0  0  0  0
   -0.8650   -0.5587   -1.5262 C   0  0  1  0  0  0  0  0  0  0  0  0
   -2.1716   -0.2978   -0.7977 C   0  0  0  0  0  0  0  0  0  0  0  0
   -3.2979    0.2004   -1.4703 C   0  0  0  0  0  0  0  0  0  0  0  0
   -4.4930    0.4146   -0.7728 C   0  0  0  0  0  0  0  0  0  0  0  0
   -4.5736    0.1381    0.5981 C   0  0  0  0  0  0  0  0  0  0  0  0
   -6.0893    0.4147    1.4455 Cl  0  0  0  0  0  0  0  0  0  0  0  0
   -3.4491   -0.3561    1.2769 C   0  0  0  0  0  0  0  0  0  0  0  0
   -3.5061   -0.7139    2.9982 Cl  0  0  0  0  0  0  0  0  0  0  0  0
   -2.2594   -0.5729    0.5802 C   0  0  0  0  0  0  0  0  0  0  0  0
    0.3174    0.2652   -1.0298 C   0  0  0  0  0  0  0  0  0  0  0  0
    0.1486    1.4040   -0.2149 C   0  0  0  0  0  0  0  0  0  0  0  0
    1.2563    2.1309    0.2198 C   0  0  0  0  0  0  0  0  0  0  0  0
    2.5403    1.7320   -0.1406 C   0  0  0  0  0  0  0  0  0  0  0  0
    2.7301    0.6094   -0.9477 C   0  0  0  0  0  0  0  0  0  0  0  0
    1.6207   -0.1317   -1.4192 C   0  0  0  0  0  0  0  0  0  0  0  0
    4.4452   -3.1941   -3.4285 H   0  0  0  0  0  0  0  0  0  0  0  0
    2.9012   -2.8344   -4.2845 H   0  0  0  0  0  0  0  0  0  0  0  0
    2.9378   -3.9130   -2.8206 H   0  0  0  0  0  0  0  0  0  0  0  0
    3.7143   -1.0477   -2.8941 H   0  0  0  0  0  0  0  0  0  0  0  0
    3.6074   -2.0228   -1.4924 H   0  0  0  0  0  0  0  0  0  0  0  0
    1.3330   -1.2173   -3.2868 H   0  0  0  0  0  0  0  0  0  0  0  0
    1.3035   -2.5336   -0.5182 H   0  0  0  0  0  0  0  0  0  0  0  0
    0.9825   -3.4886   -1.9955 H   0  0  0  0  0  0  0  0  0  0  0  0
   -1.1004   -2.4972   -2.4157 H   0  0  0  0  0  0  0  0  0  0  0  0
   -1.0020   -2.6224   -0.6460 H   0  0  0  0  0  0  0  0  0  0  0  0
   -0.9387   -0.2729   -2.6009 H   0  0  0  0  0  0  0  0  0  0  0  0
   -3.2536    0.4160   -2.5301 H   0  0  0  0  0  0  0  0  0  0  0  0
   -5.3598    0.7942   -1.2981 H   0  0  0  0  0  0  0  0  0  0  0  0
   -1.3947   -0.9554    1.1102 H   0  0  0  0  0  0  0  0  0  0  0  0
   -0.8353    1.7412    0.0797 H   0  0  0  0  0  0  0  0  0  0  0  0
    1.1172    3.0053    0.8422 H   0  0  0  0  0  0  0  0  0  0  0  0
    3.3963    2.2953    0.2092 H   0  0  0  0  0  0  0  0  0  0  0  0
    3.7435    0.3333   -1.1933 H   0  0  0  0  0  0  0  0  0  0  0  0
  1 21  1  0  0  0  0
  1 22  1  0  0  0  0
  1 23  1  0  0  0  0
  2  1  1  0  0  0  0
  2 24  1  0  0  0  0
  2 25  1  0  0  0  0
  3  2  1  0  0  0  0
  3 26  1  6  0  0  0
  4  3  1  0  0  0  0
  4 27  1  0  0  0  0
  4 28  1  0  0  0  0
  5  4  1  0  0  0  0
  5 29  1  0  0  0  0
  5 30  1  0  0  0  0
  6  5  1  0  0  0  0
  6 31  1  6  0  0  0
  7  6  1  0  0  0  0
  8  7  2  0  0  0  0
  8 32  1  0  0  0  0
  9  8  1  0  0  0  0
  9 33  1  0  0  0  0
 10  9  2  0  0  0  0
 11 10  1  0  0  0  0
 12 10  1  0  0  0  0
 13 12  1  0  0  0  0
 14 12  2  0  0  0  0
 14  7  1  0  0  0  0
 14 34  1  0  0  0  0
 15  6  1  0  0  0  0
 16 15  2  0  0  0  0
 16 35  1  0  0  0  0
 17 16  1  0  0  0  0
 17 36  1  0  0  0  0
 18 17  2  0  0  0  0
 18 37  1  0  0  0  0
 19 18  1  0  0  0  0
 19 38  1  0  0  0  0
 20 19  2  0  0  0  0
 20  3  1  0  0  0  0
 20 15  1  0  0  0  0
M  CHG  1   2   1
M  END
>  <MOL Chiral Flag>
0

>  <energy>
59.940427853363396

$$$$
> 605_AKC_j.bmc.2008.02.052
>587.sdf
 OpenBabel10062215423D

 42 45  0  0  0  0  0  0  0  0999 V2000
    5.4680   -1.8274   -2.8890 O   0  0  0  0  0  0  0  0  0  0  0  0
    5.2046   -1.7168   -1.6986 C   0  0  0  0  0  0  0  0  0  0  0  0
    3.9586   -2.1174   -1.2503 N   0  0  0  0  0  0  0  0  0  0  0  0
    3.6039   -2.2872    0.1576 C   0  0  0  0  0  0  0  0  0  0  0  0
    2.4073   -1.3925    0.4836 C   0  0  0  0  0  0  0  0  0  0  0  0
    1.3583   -1.5695   -0.5129 N   0  0  0  0  0  0  0  0  0  0  0  0
    1.7285   -1.4739   -1.9192 C   0  0  0  0  0  0  0  0  0  0  0  0
    2.8936   -2.4354   -2.1989 C   0  0  0  0  0  0  0  0  0  0  0  0
   -0.0037   -1.4382   -0.1148 C   0  0  0  0  0  0  0  0  0  0  0  0
   -0.4762   -1.7283    1.1286 N   0  0  0  0  0  0  0  0  0  0  0  0
   -1.7630   -1.3657    1.3132 N   0  0  0  0  0  0  0  0  0  0  0  0
   -2.3162   -0.7459    0.2337 C   0  0  0  0  0  0  0  0  0  0  0  0
   -1.1964   -0.6844   -0.9754 S   0  0  0  0  0  0  0  0  0  0  0  0
   -3.6276   -0.0941    0.2384 C   0  0  0  0  0  0  0  0  0  0  0  0
   -4.6095   -0.2440    1.2008 C   0  0  0  0  0  0  0  0  0  0  0  0
   -5.6260    0.6156    0.8431 C   0  0  0  0  0  0  0  0  0  0  0  0
   -5.1940    1.2456   -0.3088 C   0  0  0  0  0  0  0  0  0  0  0  0
   -4.0081    0.7958   -0.6509 O   0  0  0  0  0  0  0  0  0  0  0  0
   -5.8871    2.2633   -1.0114 N   0  0  0  0  0  0  0  0  0  0  0  0
   -5.3820    2.7822   -1.9597 O   0  0  0  0  0  0  0  0  0  0  0  0
   -6.9467    2.6505   -0.6200 O   0  0  0  0  0  0  0  0  0  0  0  0
    6.2707   -1.1175   -0.8274 C   0  0  0  0  0  0  0  0  0  0  0  0
    7.6253   -1.3272   -1.1563 C   0  0  0  0  0  0  0  0  0  0  0  0
    8.6426   -0.7351   -0.4006 C   0  0  0  0  0  0  0  0  0  0  0  0
    8.3248    0.0932    0.6763 C   0  0  0  0  0  0  0  0  0  0  0  0
    6.9898    0.3344    0.9983 C   0  0  0  0  0  0  0  0  0  0  0  0
    5.9684   -0.2619    0.2538 C   0  0  0  0  0  0  0  0  0  0  0  0
    4.4364   -2.1269    0.8647 H   0  0  0  0  0  0  0  0  0  0  0  0
    3.2979   -3.3453    0.3105 H   0  0  0  0  0  0  0  0  0  0  0  0
    2.0474   -1.5863    1.5170 H   0  0  0  0  0  0  0  0  0  0  0  0
    2.7358   -0.3344    0.4341 H   0  0  0  0  0  0  0  0  0  0  0  0
    2.0690   -0.4381   -2.1338 H   0  0  0  0  0  0  0  0  0  0  0  0
    0.8734   -1.7166   -2.5869 H   0  0  0  0  0  0  0  0  0  0  0  0
    2.5674   -3.4887   -2.0494 H   0  0  0  0  0  0  0  0  0  0  0  0
    3.1991   -2.3246   -3.2609 H   0  0  0  0  0  0  0  0  0  0  0  0
   -4.5836   -0.8935    2.0656 H   0  0  0  0  0  0  0  0  0  0  0  0
   -6.5565    0.7768    1.3710 H   0  0  0  0  0  0  0  0  0  0  0  0
    7.8940   -1.9577   -1.9948 H   0  0  0  0  0  0  0  0  0  0  0  0
    9.6791   -0.9123   -0.6563 H   0  0  0  0  0  0  0  0  0  0  0  0
    9.1129    0.5599    1.2531 H   0  0  0  0  0  0  0  0  0  0  0  0
    6.7432    0.9967    1.8185 H   0  0  0  0  0  0  0  0  0  0  0  0
    4.9512   -0.0170    0.5049 H   0  0  0  0  0  0  0  0  0  0  0  0
  2  1  2  0  0  0  0
  3  2  1  0  0  0  0
  4  3  1  0  0  0  0
  4 28  1  0  0  0  0
  4 29  1  0  0  0  0
  5  4  1  0  0  0  0
  5 30  1  0  0  0  0
  5 31  1  0  0  0  0
  6  5  1  0  0  0  0
  7  6  1  0  0  0  0
  7 32  1  0  0  0  0
  7 33  1  0  0  0  0
  8  7  1  0  0  0  0
  8  3  1  0  0  0  0
  8 34  1  0  0  0  0
  8 35  1  0  0  0  0
  9  6  1  0  0  0  0
 10  9  2  0  0  0  0
 11 10  1  0  0  0  0
 12 11  2  0  0  0  0
 13 12  1  0  0  0  0
 13  9  1  0  0  0  0
 14 12  1  0  0  0  0
 15 14  2  0  0  0  0
 15 36  1  0  0  0  0
 16 15  1  0  0  0  0
 16 37  1  0  0  0  0
 17 16  2  0  0  0  0
 18 17  1  0  0  0  0
 18 14  1  0  0  0  0
 19 17  1  0  0  0  0
 20 19  2  0  0  0  0
 21 19  2  0  0  0  0
 22  2  1  0  0  0  0
 23 22  2  0  0  0  0
 23 38  1  0  0  0  0
 24 23  1  0  0  0  0
 24 39  1  0  0  0  0
 25 24  2  0  0  0  0
 25 40  1  0  0  0  0
 26 25  1  0  0  0  0
 26 41  1  0  0  0  0
 27 26  2  0  0  0  0
 27 22  1  0  0  0  0
 27 42  1  0  0  0  0
M  END
>  <MOL Chiral Flag>
0

>  <energy>
145.6661236638854

$$$$
> 606_AKC_j.bmc.2008.02.052
>588.sdf
 OpenBabel10062215423D

 39 42  0  0  0  0  0  0  0  0999 V2000
   -8.5798   -2.2414    4.6888 Cl  0  0  0  0  0  0  0  0  0  0  0  0
   -7.2455   -2.1127    3.5630 C   0  0  0  0  0  0  0  0  0  0  0  0
   -6.5154   -0.9634    3.2713 C   0  0  0  0  0  0  0  0  0  0  0  0
   -5.4981   -1.1756    2.3017 C   0  0  0  0  0  0  0  0  0  0  0  0
   -5.4188   -2.5101    1.8483 C   0  0  0  0  0  0  0  0  0  0  0  0
   -6.6368   -3.3345    2.6267 S   0  0  0  0  0  0  0  0  0  0  0  0
   -4.5286   -3.1225    0.8111 C   0  0  0  0  0  0  0  0  0  0  0  0
   -4.9607   -4.1099    0.2326 O   0  0  0  0  0  0  0  0  0  0  0  0
   -3.2806   -2.6357    0.4700 N   0  0  0  0  0  0  0  0  0  0  0  0
   -2.5781   -1.6176    1.2513 C   0  0  0  0  0  0  0  0  0  0  0  0
   -1.2232   -2.1701    1.6837 C   0  0  0  0  0  0  0  0  0  0  0  0
   -0.5223   -2.6572    0.5102 N   0  0  0  0  0  0  0  0  0  0  0  0
   -1.1780   -3.6999   -0.2605 C   0  0  0  0  0  0  0  0  0  0  0  0
   -2.5558   -3.1722   -0.6910 C   0  0  0  0  0  0  0  0  0  0  0  0
    0.7189   -2.0819    0.1022 C   0  0  0  0  0  0  0  0  0  0  0  0
    1.5248   -2.5717   -0.8813 N   0  0  0  0  0  0  0  0  0  0  0  0
    2.6308   -1.8229   -1.0904 N   0  0  0  0  0  0  0  0  0  0  0  0
    2.7030   -0.7227   -0.2884 C   0  0  0  0  0  0  0  0  0  0  0  0
    1.3887   -0.6956    0.6953 S   0  0  0  0  0  0  0  0  0  0  0  0
    3.7478    0.3009   -0.3274 C   0  0  0  0  0  0  0  0  0  0  0  0
    4.9196    0.2642   -1.0606 C   0  0  0  0  0  0  0  0  0  0  0  0
    5.5680    1.4539   -0.7966 C   0  0  0  0  0  0  0  0  0  0  0  0
    4.7448    2.1425    0.0749 C   0  0  0  0  0  0  0  0  0  0  0  0
    3.6760    1.4303    0.3403 O   0  0  0  0  0  0  0  0  0  0  0  0
    4.9810    3.4354    0.6058 N   0  0  0  0  0  0  0  0  0  0  0  0
    4.1727    3.9414    1.3232 O   0  0  0  0  0  0  0  0  0  0  0  0
    5.9698    4.0365    0.3120 O   0  0  0  0  0  0  0  0  0  0  0  0
   -6.7116   -0.0002    3.7239 H   0  0  0  0  0  0  0  0  0  0  0  0
   -4.8871   -0.3592    1.9456 H   0  0  0  0  0  0  0  0  0  0  0  0
   -3.0659   -1.3456    2.1944 H   0  0  0  0  0  0  0  0  0  0  0  0
   -2.4237   -0.7130    0.6237 H   0  0  0  0  0  0  0  0  0  0  0  0
   -1.3729   -3.0203    2.3859 H   0  0  0  0  0  0  0  0  0  0  0  0
   -0.6630   -1.3854    2.2313 H   0  0  0  0  0  0  0  0  0  0  0  0
   -0.5927   -3.9945   -1.1581 H   0  0  0  0  0  0  0  0  0  0  0  0
   -1.3099   -4.5984    0.3805 H   0  0  0  0  0  0  0  0  0  0  0  0
   -3.1101   -3.9690   -1.2312 H   0  0  0  0  0  0  0  0  0  0  0  0
   -2.3959   -2.3395   -1.4111 H   0  0  0  0  0  0  0  0  0  0  0  0
    5.2617   -0.5316   -1.7087 H   0  0  0  0  0  0  0  0  0  0  0  0
    6.5182    1.7804   -1.1973 H   0  0  0  0  0  0  0  0  0  0  0  0
  2  1  1  0  0  0  0
  3  2  2  0  0  0  0
  3 28  1  0  0  0  0
  4  3  1  0  0  0  0
  4 29  1  0  0  0  0
  5  4  2  0  0  0  0
  6  5  1  0  0  0  0
  6  2  1  0  0  0  0
  7  5  1  0  0  0  0
  8  7  2  0  0  0  0
  9  7  1  0  0  0  0
 10  9  1  0  0  0  0
 10 30  1  0  0  0  0
 10 31  1  0  0  0  0
 11 10  1  0  0  0  0
 11 32  1  0  0  0  0
 11 33  1  0  0  0  0
 12 11  1  0  0  0  0
 13 12  1  0  0  0  0
 13 34  1  0  0  0  0
 13 35  1  0  0  0  0
 14 13  1  0  0  0  0
 14  9  1  0  0  0  0
 14 36  1  0  0  0  0
 14 37  1  0  0  0  0
 15 12  1  0  0  0  0
 16 15  2  0  0  0  0
 17 16  1  0  0  0  0
 18 17  2  0  0  0  0
 19 18  1  0  0  0  0
 19 15  1  0  0  0  0
 20 18  1  0  0  0  0
 21 20  2  0  0  0  0
 21 38  1  0  0  0  0
 22 21  1  0  0  0  0
 22 39  1  0  0  0  0
 23 22  2  0  0  0  0
 24 23  1  0  0  0  0
 24 20  1  0  0  0  0
 25 23  1  0  0  0  0
 26 25  2  0  0  0  0
 27 25  2  0  0  0  0
M  END
>  <MOL Chiral Flag>
0

>  <energy>
108.5794219738786

$$$$
> 607_AKC_ptr.2334
>589.sdf
 OpenBabel10062215423D

 30 31  0  0  0  0  0  0  0  0999 V2000
    5.1840   -2.1218    0.0979 O   0  0  0  0  0  0  0  0  0  0  0  0
    4.3140   -1.0925    0.1476 C   0  0  0  0  0  0  0  0  0  0  0  0
    2.9507   -1.3302   -0.0589 C   0  0  0  0  0  0  0  0  0  0  0  0
    2.0193   -0.2783    0.0054 C   0  0  0  0  0  0  0  0  0  0  0  0
    0.5747   -0.5954   -0.2097 C   0  0  0  0  0  0  0  0  0  0  0  0
   -0.4290    0.2769    0.0312 C   0  0  0  0  0  0  0  0  0  0  0  0
   -1.8769   -0.0249   -0.1694 C   0  0  0  0  0  0  0  0  0  0  0  0
   -2.3421   -1.2001   -0.7969 C   0  0  0  0  0  0  0  0  0  0  0  0
   -3.7133   -1.4167   -0.9619 C   0  0  0  0  0  0  0  0  0  0  0  0
   -4.6422   -0.4782   -0.5027 C   0  0  0  0  0  0  0  0  0  0  0  0
   -5.9597   -0.7163   -0.6750 O   0  0  0  0  0  0  0  0  0  0  0  0
   -4.1924    0.6942    0.1281 C   0  0  0  0  0  0  0  0  0  0  0  0
   -5.0828    1.6026    0.5809 O   0  0  0  0  0  0  0  0  0  0  0  0
   -2.8169    0.9162    0.2861 C   0  0  0  0  0  0  0  0  0  0  0  0
    2.4881    1.0290    0.2661 C   0  0  0  0  0  0  0  0  0  0  0  0
    3.8568    1.2681    0.4604 C   0  0  0  0  0  0  0  0  0  0  0  0
    4.3078    2.5169    0.6985 O   0  0  0  0  0  0  0  0  0  0  0  0
    4.7643    0.2083    0.4063 C   0  0  0  0  0  0  0  0  0  0  0  0
    6.1320   -1.9947    0.2477 H   0  0  0  0  0  0  0  0  0  0  0  0
    2.6157   -2.3416   -0.2572 H   0  0  0  0  0  0  0  0  0  0  0  0
    0.3437   -1.5960   -0.5502 H   0  0  0  0  0  0  0  0  0  0  0  0
   -0.1981    1.2579    0.4214 H   0  0  0  0  0  0  0  0  0  0  0  0
   -1.6634   -1.9493   -1.1731 H   0  0  0  0  0  0  0  0  0  0  0  0
   -4.0571   -2.3196   -1.4511 H   0  0  0  0  0  0  0  0  0  0  0  0
   -6.6404   -0.0962   -0.3772 H   0  0  0  0  0  0  0  0  0  0  0  0
   -4.8014    2.4136    1.0282 H   0  0  0  0  0  0  0  0  0  0  0  0
   -2.4794    1.8237    0.7731 H   0  0  0  0  0  0  0  0  0  0  0  0
    1.8151    1.8704    0.3089 H   0  0  0  0  0  0  0  0  0  0  0  0
    3.7095    3.2772    0.7327 H   0  0  0  0  0  0  0  0  0  0  0  0
    5.8194    0.3969    0.5626 H   0  0  0  0  0  0  0  0  0  0  0  0
  1 19  1  0  0  0  0
  2  1  1  0  0  0  0
  3  2  2  0  0  0  0
  3 20  1  0  0  0  0
  4  3  1  0  0  0  0
  5  4  1  0  0  0  0
  5 21  1  0  0  0  0
  6  5  2  0  0  0  0
  6 22  1  0  0  0  0
  7  6  1  0  0  0  0
  8  7  2  0  0  0  0
  8 23  1  0  0  0  0
  9  8  1  0  0  0  0
  9 24  1  0  0  0  0
 10  9  2  0  0  0  0
 11 10  1  0  0  0  0
 11 25  1  0  0  0  0
 12 10  1  0  0  0  0
 13 12  1  0  0  0  0
 13 26  1  0  0  0  0
 14 12  2  0  0  0  0
 14  7  1  0  0  0  0
 14 27  1  0  0  0  0
 15  4  2  0  0  0  0
 15 28  1  0  0  0  0
 16 15  1  0  0  0  0
 17 16  1  0  0  0  0
 17 29  1  0  0  0  0
 18 16  2  0  0  0  0
 18  2  1  0  0  0  0
 18 30  1  0  0  0  0
M  END
>  <MOL Chiral Flag>
0

>  <energy>
4.5146174142992095

$$$$
> 608_AKC_qua.21355
>590.sdf
 OpenBabel10062215433D

 47 48  0  0  0  0  0  0  0  0999 V2000
   -4.9620    1.4856   -0.6080 C   0  0  0  0  0  0  0  0  0  0  0  0
   -4.9911   -0.0297   -0.3659 C   0  0  0  0  0  0  0  0  0  0  0  0
   -3.8003   -0.8331   -0.9570 C   0  0  1  0  0  0  0  0  0  0  0  0
   -3.7143   -0.6580   -2.4831 C   0  0  0  0  0  0  0  0  0  0  0  0
   -2.4603   -0.5214   -0.3028 C   0  0  0  0  0  0  0  0  0  0  0  0
   -2.3770    0.3711    0.5292 O   0  0  0  0  0  0  0  0  0  0  0  0
   -1.3592   -1.2606   -0.6250 N   0  0  0  0  0  0  0  0  0  0  0  0
   -0.0398   -1.0009   -0.0629 C   0  0  1  0  0  0  0  0  0  0  0  0
    0.3912   -2.2239    0.7604 C   0  0  0  0  0  0  0  0  0  0  0  0
    1.8411   -2.0452    1.1477 C   0  0  0  0  0  0  0  0  0  0  0  0
    2.6473   -1.9992   -0.1229 C   0  0  0  0  0  0  0  0  0  0  0  0
    3.7119   -2.6023   -0.1603 O   0  0  0  0  0  0  0  0  0  0  0  0
    2.1999   -1.3011   -1.2243 N   0  0  0  0  0  0  0  0  0  0  0  0
    3.0962   -1.2546   -2.4011 C   0  0  0  0  0  0  0  0  0  0  0  0
    2.5245   -0.6952   -3.7227 C   0  0  0  0  0  0  0  0  0  0  0  0
    3.3756   -0.9266   -4.9586 C   0  0  0  0  0  0  0  0  0  0  0  0
    2.8388   -0.5646   -6.2067 C   0  0  0  0  0  0  0  0  0  0  0  0
    3.5562   -0.7954   -7.3834 C   0  0  0  0  0  0  0  0  0  0  0  0
    4.8207   -1.3835   -7.3286 C   0  0  0  0  0  0  0  0  0  0  0  0
    5.3731   -1.7378   -6.0964 C   0  0  0  0  0  0  0  0  0  0  0  0
    4.6600   -1.5140   -4.9144 C   0  0  0  0  0  0  0  0  0  0  0  0
    0.9429   -0.7141   -1.1908 C   0  0  0  0  0  0  0  0  0  0  0  0
    0.5813    0.0552   -2.0668 O   0  0  0  0  0  0  0  0  0  0  0  0
   -4.9952    1.7174   -1.6917 H   0  0  0  0  0  0  0  0  0  0  0  0
   -5.8575    1.9436   -0.1375 H   0  0  0  0  0  0  0  0  0  0  0  0
   -4.0670    1.9621   -0.1635 H   0  0  0  0  0  0  0  0  0  0  0  0
   -5.0384   -0.2173    0.7290 H   0  0  0  0  0  0  0  0  0  0  0  0
   -5.9332   -0.4199   -0.8101 H   0  0  0  0  0  0  0  0  0  0  0  0
   -4.0184   -1.9036   -0.7475 H   0  0  0  0  0  0  0  0  0  0  0  0
   -4.6854   -0.9197   -2.9548 H   0  0  0  0  0  0  0  0  0  0  0  0
   -3.4520    0.3868   -2.7514 H   0  0  0  0  0  0  0  0  0  0  0  0
   -2.9402   -1.3232   -2.9179 H   0  0  0  0  0  0  0  0  0  0  0  0
   -1.4565   -2.0389   -1.2954 H   0  0  0  0  0  0  0  0  0  0  0  0
   -0.0519   -0.1027    0.5929 H   0  0  0  0  0  0  0  0  0  0  0  0
    0.2948   -3.1580    0.1597 H   0  0  0  0  0  0  0  0  0  0  0  0
   -0.2561   -2.3186    1.6585 H   0  0  0  0  0  0  0  0  0  0  0  0
    1.9450   -1.0835    1.6960 H   0  0  0  0  0  0  0  0  0  0  0  0
    2.1970   -2.8656    1.8085 H   0  0  0  0  0  0  0  0  0  0  0  0
    4.0322   -0.7139   -2.1361 H   0  0  0  0  0  0  0  0  0  0  0  0
    3.3494   -2.3127   -2.6337 H   0  0  0  0  0  0  0  0  0  0  0  0
    2.3386    0.3968   -3.6322 H   0  0  0  0  0  0  0  0  0  0  0  0
    1.5698   -1.2316   -3.9161 H   0  0  0  0  0  0  0  0  0  0  0  0
    1.8539   -0.1171   -6.2658 H   0  0  0  0  0  0  0  0  0  0  0  0
    3.1273   -0.5237   -8.3392 H   0  0  0  0  0  0  0  0  0  0  0  0
    5.3723   -1.5663   -8.2416 H   0  0  0  0  0  0  0  0  0  0  0  0
    6.3542   -2.1933   -6.0565 H   0  0  0  0  0  0  0  0  0  0  0  0
    5.1163   -1.8056   -3.9797 H   0  0  0  0  0  0  0  0  0  0  0  0
  1 24  1  0  0  0  0
  1 25  1  0  0  0  0
  1 26  1  0  0  0  0
  2  1  1  0  0  0  0
  2 27  1  0  0  0  0
  2 28  1  0  0  0  0
  3  2  1  0  0  0  0
  3 29  1  1  0  0  0
  4  3  1  0  0  0  0
  4 30  1  0  0  0  0
  4 31  1  0  0  0  0
  4 32  1  0  0  0  0
  5  3  1  0  0  0  0
  6  5  2  0  0  0  0
  7  5  1  0  0  0  0
  7 33  1  0  0  0  0
  8  7  1  0  0  0  0
  8 34  1  1  0  0  0
  9  8  1  0  0  0  0
  9 35  1  0  0  0  0
  9 36  1  0  0  0  0
 10  9  1  0  0  0  0
 10 37  1  0  0  0  0
 10 38  1  0  0  0  0
 11 10  1  0  0  0  0
 12 11  2  0  0  0  0
 13 11  1  0  0  0  0
 14 13  1  0  0  0  0
 14 39  1  0  0  0  0
 14 40  1  0  0  0  0
 15 14  1  0  0  0  0
 15 41  1  0  0  0  0
 15 42  1  0  0  0  0
 16 15  1  0  0  0  0
 17 16  2  0  0  0  0
 17 43  1  0  0  0  0
 18 17  1  0  0  0  0
 18 44  1  0  0  0  0
 19 18  2  0  0  0  0
 19 45  1  0  0  0  0
 20 19  1  0  0  0  0
 20 46  1  0  0  0  0
 21 20  2  0  0  0  0
 21 16  1  0  0  0  0
 21 47  1  0  0  0  0
 22 13  1  0  0  0  0
 22  8  1  0  0  0  0
 23 22  2  0  0  0  0
M  END
>  <MOL Chiral Flag>
0

>  <energy>
-5.1581920727743409

$$$$
> 609_AKC_jm701166b
>591.sdf
 OpenBabel10062215433D

 83 83  0  0  0  0  0  0  0  0999 V2000
  -10.0963    2.4160   -5.4824 C   0  0  0  0  0  0  0  0  0  0  0  0
  -10.0812    1.7110   -6.7819 N   0  3  0  0  0  0  0  0  0  0  0  0
  -11.4881    1.5218   -7.2220 C   0  0  0  0  0  0  0  0  0  0  0  0
   -9.4015    2.5554   -7.7938 C   0  0  0  0  0  0  0  0  0  0  0  0
   -9.4344    0.3571   -6.6884 C   0  0  0  0  0  0  0  0  0  0  0  0
   -7.9876    0.2904   -6.1159 C   0  0  0  0  0  0  0  0  0  0  0  0
   -7.9818    0.5103   -4.7227 O   0  0  0  0  0  0  0  0  0  0  0  0
   -6.3229    0.5487   -4.1299 P   0  0  1  0  0  0  0  0  0  0  0  0
   -5.3819    1.7497   -4.9639 O   0  0  0  0  0  0  0  0  0  0  0  0
   -6.4384    1.0384   -2.6591 O   0  0  0  0  0  0  0  0  0  0  0  0
   -5.5051   -1.0174   -4.1068 O   0  0  0  0  0  0  0  0  0  0  0  0
   -4.6455   -1.1504   -2.9786 C   0  0  0  0  0  0  0  0  0  0  0  0
   -3.4353   -2.0234   -3.3681 C   0  0  0  0  0  0  0  0  0  0  0  0
   -2.4559   -2.4157   -2.2142 C   0  0  0  0  0  0  0  0  0  0  0  0
   -1.2831   -3.2212   -2.8271 C   0  0  0  0  0  0  0  0  0  0  0  0
   -0.2303   -3.9500   -1.9348 C   0  0  0  0  0  0  0  0  0  0  0  0
    0.7507   -3.1869   -0.9865 C   0  0  0  0  0  0  0  0  0  0  0  0
    1.3927   -1.8968   -1.6463 C   0  0  0  0  0  0  0  0  0  0  0  0
    2.0607   -1.8803   -3.0691 C   0  0  0  0  0  0  0  0  0  0  0  0
    3.1076   -2.9495   -3.4239 C   0  0  0  0  0  0  0  0  0  0  0  0
    4.3251   -3.0257   -2.5054 C   0  0  0  0  0  0  0  0  0  0  0  0
    5.6077   -2.2221   -2.8131 C   0  0  0  0  0  0  0  0  0  0  0  0
    6.6091   -2.3242   -1.6182 C   0  0  0  0  0  0  0  0  0  0  0  0
    7.0534   -3.7639   -1.2120 C   0  0  0  0  0  0  0  0  0  0  0  0
    7.4351   -3.8396    0.2884 C   0  0  0  0  0  0  0  0  0  0  0  0
    7.3389   -5.2541    0.9335 C   0  0  0  0  0  0  0  0  0  0  0  0
    6.0094   -6.0833    0.7837 C   0  0  0  0  0  0  0  0  0  0  0  0
    4.6199   -5.5984    1.3474 C   0  0  0  0  0  0  0  0  0  0  0  0
    4.1842   -4.2520    0.7638 C   0  0  0  0  0  0  0  0  0  0  0  0
    2.7285   -3.6982    0.7590 C   0  0  0  0  0  0  0  0  0  0  0  0
    1.8114   -4.2208   -0.4008 C   0  0  0  0  0  0  0  0  0  0  0  0
   -9.0696    2.6787   -5.1514 H   0  0  0  0  0  0  0  0  0  0  0  0
  -10.6565    3.3772   -5.5568 H   0  0  0  0  0  0  0  0  0  0  0  0
  -10.5841    1.7972   -4.6974 H   0  0  0  0  0  0  0  0  0  0  0  0
  -12.0641    0.9160   -6.4871 H   0  0  0  0  0  0  0  0  0  0  0  0
  -12.0157    2.4981   -7.3317 H   0  0  0  0  0  0  0  0  0  0  0  0
  -11.5403    1.0045   -8.2065 H   0  0  0  0  0  0  0  0  0  0  0  0
   -9.9255    3.5314   -7.9183 H   0  0  0  0  0  0  0  0  0  0  0  0
   -9.3878    2.0580   -8.7898 H   0  0  0  0  0  0  0  0  0  0  0  0
   -8.3563    2.7867   -7.5042 H   0  0  0  0  0  0  0  0  0  0  0  0
  -10.0620   -0.3296   -6.0758 H   0  0  0  0  0  0  0  0  0  0  0  0
   -9.4005   -0.0825   -7.7119 H   0  0  0  0  0  0  0  0  0  0  0  0
   -7.6257   -0.7458   -6.2973 H   0  0  0  0  0  0  0  0  0  0  0  0
   -7.3294    0.9985   -6.6604 H   0  0  0  0  0  0  0  0  0  0  0  0
   -5.2133   -1.6424   -2.1606 H   0  0  0  0  0  0  0  0  0  0  0  0
   -4.2409   -0.1763   -2.6235 H   0  0  0  0  0  0  0  0  0  0  0  0
   -3.8275   -2.9643   -3.8140 H   0  0  0  0  0  0  0  0  0  0  0  0
   -2.8743   -1.4759   -4.1572 H   0  0  0  0  0  0  0  0  0  0  0  0
   -3.0039   -3.0392   -1.4751 H   0  0  0  0  0  0  0  0  0  0  0  0
   -2.0614   -1.5114   -1.7040 H   0  0  0  0  0  0  0  0  0  0  0  0
   -0.7693   -2.5586   -3.5437 H   0  0  0  0  0  0  0  0  0  0  0  0
   -1.7439   -4.0388   -3.4252 H   0  0  0  0  0  0  0  0  0  0  0  0
   -0.7615   -4.7177   -1.3296 H   0  0  0  0  0  0  0  0  0  0  0  0
    0.4040   -4.5001   -2.6614 H   0  0  0  0  0  0  0  0  0  0  0  0
    0.1538   -2.8267   -0.1190 H   0  0  0  0  0  0  0  0  0  0  0  0
    2.1008   -1.4381   -0.9359 H   0  0  0  0  0  0  0  0  0  0  0  0
    0.5735   -1.1489   -1.7196 H   0  0  0  0  0  0  0  0  0  0  0  0
    1.2687   -1.9916   -3.8297 H   0  0  0  0  0  0  0  0  0  0  0  0
    2.5025   -0.8720   -3.2227 H   0  0  0  0  0  0  0  0  0  0  0  0
    3.4402   -2.8768   -4.4808 H   0  0  0  0  0  0  0  0  0  0  0  0
    2.5582   -3.9085   -3.3443 H   0  0  0  0  0  0  0  0  0  0  0  0
    3.9774   -2.7314   -1.5074 H   0  0  0  0  0  0  0  0  0  0  0  0
    4.6133   -4.0920   -2.5527 H   0  0  0  0  0  0  0  0  0  0  0  0
    6.0701   -2.5866   -3.7552 H   0  0  0  0  0  0  0  0  0  0  0  0
    5.3423   -1.1503   -2.9386 H   0  0  0  0  0  0  0  0  0  0  0  0
    6.0572   -1.8714   -0.7663 H   0  0  0  0  0  0  0  0  0  0  0  0
    7.5107   -1.6964   -1.7857 H   0  0  0  0  0  0  0  0  0  0  0  0
    7.8311   -4.1837   -1.8851 H   0  0  0  0  0  0  0  0  0  0  0  0
    6.2169   -4.4345   -1.3308 H   0  0  0  0  0  0  0  0  0  0  0  0
    8.4506   -3.4088    0.4280 H   0  0  0  0  0  0  0  0  0  0  0  0
    6.7753   -3.1897    0.8778 H   0  0  0  0  0  0  0  0  0  0  0  0
    7.5777   -5.1530    2.0142 H   0  0  0  0  0  0  0  0  0  0  0  0
    8.1465   -5.8676    0.4757 H   0  0  0  0  0  0  0  0  0  0  0  0
    6.2088   -7.0670    1.2629 H   0  0  0  0  0  0  0  0  0  0  0  0
    5.8735   -6.3068   -0.2942 H   0  0  0  0  0  0  0  0  0  0  0  0
    3.8817   -6.3726    1.0481 H   0  0  0  0  0  0  0  0  0  0  0  0
    4.6298   -5.5370    2.4570 H   0  0  0  0  0  0  0  0  0  0  0  0
    4.7883   -3.4973    1.2922 H   0  0  0  0  0  0  0  0  0  0  0  0
    4.4613   -4.3092   -0.2761 H   0  0  0  0  0  0  0  0  0  0  0  0
    2.9057   -2.6327    0.5525 H   0  0  0  0  0  0  0  0  0  0  0  0
    2.2376   -3.7153    1.7545 H   0  0  0  0  0  0  0  0  0  0  0  0
    2.4353   -4.5457   -1.2483 H   0  0  0  0  0  0  0  0  0  0  0  0
    1.3192   -5.1459   -0.0289 H   0  0  0  0  0  0  0  0  0  0  0  0
  1 32  1  0  0  0  0
  1 33  1  0  0  0  0
  1 34  1  0  0  0  0
  2  1  1  0  0  0  0
  3  2  1  0  0  0  0
  3 35  1  0  0  0  0
  3 36  1  0  0  0  0
  3 37  1  0  0  0  0
  4  2  1  0  0  0  0
  4 38  1  0  0  0  0
  4 39  1  0  0  0  0
  4 40  1  0  0  0  0
  5  2  1  0  0  0  0
  5 41  1  0  0  0  0
  5 42  1  0  0  0  0
  6  5  1  0  0  0  0
  6 43  1  0  0  0  0
  6 44  1  0  0  0  0
  7  6  1  0  0  0  0
  8  7  1  6  0  0  0
  9  8  1  0  0  0  0
 10  8  2  0  0  0  0
 11  8  1  0  0  0  0
 12 11  1  0  0  0  0
 12 45  1  0  0  0  0
 12 46  1  0  0  0  0
 13 12  1  0  0  0  0
 13 47  1  0  0  0  0
 13 48  1  0  0  0  0
 14 13  1  0  0  0  0
 14 49  1  0  0  0  0
 14 50  1  0  0  0  0
 15 14  1  0  0  0  0
 15 51  1  0  0  0  0
 15 52  1  0  0  0  0
 16 15  1  0  0  0  0
 16 53  1  0  0  0  0
 16 54  1  0  0  0  0
 17 16  1  0  0  0  0
 17 55  1  0  0  0  0
 18 17  1  0  0  0  0
 18 56  1  0  0  0  0
 18 57  1  0  0  0  0
 19 18  1  0  0  0  0
 19 58  1  0  0  0  0
 19 59  1  0  0  0  0
 20 19  1  0  0  0  0
 20 60  1  0  0  0  0
 20 61  1  0  0  0  0
 21 20  1  0  0  0  0
 21 62  1  0  0  0  0
 21 63  1  0  0  0  0
 22 21  1  0  0  0  0
 22 64  1  0  0  0  0
 22 65  1  0  0  0  0
 23 22  1  0  0  0  0
 23 66  1  0  0  0  0
 23 67  1  0  0  0  0
 24 23  1  0  0  0  0
 24 68  1  0  0  0  0
 24 69  1  0  0  0  0
 25 24  1  0  0  0  0
 25 70  1  0  0  0  0
 25 71  1  0  0  0  0
 26 25  1  0  0  0  0
 26 72  1  0  0  0  0
 26 73  1  0  0  0  0
 27 26  1  0  0  0  0
 27 74  1  0  0  0  0
 27 75  1  0  0  0  0
 28 27  1  0  0  0  0
 28 76  1  0  0  0  0
 28 77  1  0  0  0  0
 29 28  1  0  0  0  0
 29 78  1  0  0  0  0
 29 79  1  0  0  0  0
 30 29  1  0  0  0  0
 30 80  1  0  0  0  0
 30 81  1  0  0  0  0
 31 30  1  0  0  0  0
 31 17  1  0  0  0  0
 31 82  1  0  0  0  0
 31 83  1  0  0  0  0
M  CHG  1   2   1
M  END
>  <MOL Chiral Flag>
0

>  <energy>
-75.289923465074139

$$$$
> 610_AKC_jm7012166
>592.sdf
 OpenBabel10062215443D

 58 62  0  0  0  0  0  0  0  0999 V2000
    5.2244   -4.4328    0.3170 C   0  0  0  0  0  0  0  0  0  0  0  0
    3.8159   -4.8140   -0.2005 C   0  0  0  0  0  0  0  0  0  0  0  0
    3.3925   -6.1151    0.5141 C   0  0  0  0  0  0  0  0  0  0  0  0
    3.9277   -5.0692   -1.7187 C   0  0  0  0  0  0  0  0  0  0  0  0
    2.7620   -3.7138    0.0442 C   0  0  0  0  0  0  0  0  0  0  0  0
    3.1006   -2.4562    0.6350 C   0  0  0  0  0  0  0  0  0  0  0  0
    2.1274   -1.4610    0.8105 C   0  0  0  0  0  0  0  0  0  0  0  0
    0.8289   -1.7320    0.4027 C   0  0  0  0  0  0  0  0  0  0  0  0
   -0.2226   -0.9116    0.4724 N   0  0  0  0  0  0  0  0  0  0  0  0
   -1.2993   -1.5845   -0.0376 C   0  0  0  0  0  0  0  0  0  0  0  0
   -0.8899   -2.8617   -0.4028 C   0  0  0  0  0  0  0  0  0  0  0  0
   -1.6295   -4.0164   -0.9547 C   0  0  0  0  0  0  0  0  0  0  0  0
   -3.1195   -4.0568   -1.0781 C   0  0  0  0  0  0  0  0  0  0  0  0
   -3.5773   -5.1366   -1.4291 O   0  0  0  0  0  0  0  0  0  0  0  0
   -4.0098   -3.0471   -0.8534 N   0  0  0  0  0  0  0  0  0  0  0  0
   -3.8612   -1.6546   -0.5201 C   0  0  0  0  0  0  0  0  0  0  0  0
   -5.0614   -0.9026   -0.5675 C   0  0  0  0  0  0  0  0  0  0  0  0
   -5.0970    0.4646   -0.3359 C   0  0  0  0  0  0  0  0  0  0  0  0
   -3.9322    1.1587   -0.0476 C   0  0  0  0  0  0  0  0  0  0  0  0
   -4.0080    2.6476    0.1127 C   0  0  0  0  0  0  0  0  0  0  0  0
   -2.9302    3.4541    0.2448 C   0  0  0  0  0  0  0  0  0  0  0  0
   -3.0562    4.9379    0.3350 C   0  0  0  0  0  0  0  0  0  0  0  0
   -4.1734    5.4367    0.3195 O   0  0  0  0  0  0  0  0  0  0  0  0
   -1.8592    5.8433    0.4053 C   0  0  0  0  0  0  0  0  0  0  0  0
   -0.5324    5.3560    0.4558 C   0  0  0  0  0  0  0  0  0  0  0  0
    0.5167    6.2201    0.5094 N   0  0  0  0  0  0  0  0  0  0  0  0
    0.3383    7.5654    0.5150 C   0  0  0  0  0  0  0  0  0  0  0  0
   -0.9473    8.0980    0.4669 C   0  0  0  0  0  0  0  0  0  0  0  0
   -2.0455    7.2393    0.4133 C   0  0  0  0  0  0  0  0  0  0  0  0
   -2.7328    0.4383    0.0495 C   0  0  0  0  0  0  0  0  0  0  0  0
   -2.6548   -0.9650   -0.1687 C   0  0  0  0  0  0  0  0  0  0  0  0
    0.4727   -2.9198   -0.1388 C   0  0  0  0  0  0  0  0  0  0  0  0
    1.4088   -3.9373   -0.3387 C   0  0  0  0  0  0  0  0  0  0  0  0
    5.2072   -4.2567    1.4146 H   0  0  0  0  0  0  0  0  0  0  0  0
    5.6064   -3.5220   -0.1928 H   0  0  0  0  0  0  0  0  0  0  0  0
    5.9517   -5.2502    0.1202 H   0  0  0  0  0  0  0  0  0  0  0  0
    4.1409   -6.9187    0.3401 H   0  0  0  0  0  0  0  0  0  0  0  0
    2.4170   -6.4902    0.1417 H   0  0  0  0  0  0  0  0  0  0  0  0
    3.3070   -5.9468    1.6090 H   0  0  0  0  0  0  0  0  0  0  0  0
    4.6800   -5.8586   -1.9332 H   0  0  0  0  0  0  0  0  0  0  0  0
    4.2413   -4.1396   -2.2426 H   0  0  0  0  0  0  0  0  0  0  0  0
    2.9600   -5.3989   -2.1509 H   0  0  0  0  0  0  0  0  0  0  0  0
    4.1070   -2.2288    0.9500 H   0  0  0  0  0  0  0  0  0  0  0  0
    2.3849   -0.5049    1.2482 H   0  0  0  0  0  0  0  0  0  0  0  0
   -0.1566    0.0514    0.8617 H   0  0  0  0  0  0  0  0  0  0  0  0
   -1.3896   -4.8568   -0.2661 H   0  0  0  0  0  0  0  0  0  0  0  0
   -1.1944   -4.2581   -1.9489 H   0  0  0  0  0  0  0  0  0  0  0  0
   -4.9902   -3.3350   -1.0105 H   0  0  0  0  0  0  0  0  0  0  0  0
   -5.9965   -1.3894   -0.8172 H   0  0  0  0  0  0  0  0  0  0  0  0
   -6.0426    0.9882   -0.4132 H   0  0  0  0  0  0  0  0  0  0  0  0
   -4.9944    3.1026    0.0766 H   0  0  0  0  0  0  0  0  0  0  0  0
   -1.9483    3.0298    0.2523 H   0  0  0  0  0  0  0  0  0  0  0  0
   -0.3121    4.3034    0.4550 H   0  0  0  0  0  0  0  0  0  0  0  0
    1.1973    8.2218    0.5562 H   0  0  0  0  0  0  0  0  0  0  0  0
   -1.0924    9.1704    0.4696 H   0  0  0  0  0  0  0  0  0  0  0  0
   -3.0398    7.6654    0.3730 H   0  0  0  0  0  0  0  0  0  0  0  0
   -1.8497    0.9828    0.2738 H   0  0  0  0  0  0  0  0  0  0  0  0
    1.0989   -4.8710   -0.7869 H   0  0  0  0  0  0  0  0  0  0  0  0
  1 34  1  0  0  0  0
  1 35  1  0  0  0  0
  1 36  1  0  0  0  0
  2  1  1  0  0  0  0
  3  2  1  0  0  0  0
  3 37  1  0  0  0  0
  3 38  1  0  0  0  0
  3 39  1  0  0  0  0
  4  2  1  0  0  0  0
  4 40  1  0  0  0  0
  4 41  1  0  0  0  0
  4 42  1  0  0  0  0
  5  2  1  0  0  0  0
  6  5  2  0  0  0  0
  6 43  1  0  0  0  0
  7  6  1  0  0  0  0
  7 44  1  0  0  0  0
  8  7  2  0  0  0  0
  9  8  1  0  0  0  0
  9 45  1  0  0  0  0
 10  9  1  0  0  0  0
 11 10  2  0  0  0  0
 12 11  1  0  0  0  0
 12 46  1  0  0  0  0
 12 47  1  0  0  0  0
 13 12  1  0  0  0  0
 14 13  2  0  0  0  0
 15 13  1  0  0  0  0
 15 48  1  0  0  0  0
 16 15  1  0  0  0  0
 17 16  2  0  0  0  0
 17 49  1  0  0  0  0
 18 17  1  0  0  0  0
 18 50  1  0  0  0  0
 19 18  2  0  0  0  0
 20 19  1  0  0  0  0
 20 51  1  0  0  0  0
 21 20  2  0  0  0  0
 21 52  1  0  0  0  0
 22 21  1  0  0  0  0
 23 22  2  0  0  0  0
 24 22  1  0  0  0  0
 25 24  2  0  0  0  0
 25 53  1  0  0  0  0
 26 25  1  0  0  0  0
 27 26  2  0  0  0  0
 27 54  1  0  0  0  0
 28 27  1  0  0  0  0
 28 55  1  0  0  0  0
 29 28  2  0  0  0  0
 29 24  1  0  0  0  0
 29 56  1  0  0  0  0
 30 19  1  0  0  0  0
 30 57  1  0  0  0  0
 31 30  2  0  0  0  0
 31 10  1  0  0  0  0
 31 16  1  0  0  0  0
 32 11  1  0  0  0  0
 32  8  1  0  0  0  0
 33 32  2  0  0  0  0
 33  5  1  0  0  0  0
 33 58  1  0  0  0  0
M  END
>  <MOL Chiral Flag>
0

>  <energy>
167.12500524998268

$$$$
> 611_AKC_GE-1259.1
>593.sdf
 OpenBabel10062215443D

 34 36  0  0  0  0  0  0  0  0999 V2000
    0.1563    0.3467    2.1829 O   0  0  0  0  0  0  0  0  0  0  0  0
   -0.0802    0.1873    0.7951 C   0  0  1  0  0  0  0  0  0  0  0  0
    0.1219   -1.2849    0.3580 C   0  0  0  0  0  0  0  0  0  0  0  0
   -0.4466   -2.3283    1.1174 C   0  0  0  0  0  0  0  0  0  0  0  0
   -0.2748   -3.6630    0.7346 C   0  0  0  0  0  0  0  0  0  0  0  0
    0.4459   -3.9763   -0.4206 C   0  0  0  0  0  0  0  0  0  0  0  0
    0.6528   -5.6503   -0.9029 Cl  0  0  0  0  0  0  0  0  0  0  0  0
    0.9971   -2.9550   -1.1954 C   0  0  0  0  0  0  0  0  0  0  0  0
    0.8425   -1.6209   -0.8128 C   0  0  0  0  0  0  0  0  0  0  0  0
   -1.5556    0.5386    0.5212 C   0  0  0  0  0  0  0  0  0  0  0  0
   -2.1509    0.2452   -0.7208 C   0  0  0  0  0  0  0  0  0  0  0  0
   -3.4474    0.5802   -0.9550 N   0  0  0  0  0  0  0  0  0  0  0  0
   -4.1872    1.2073   -0.0077 C   0  0  0  0  0  0  0  0  0  0  0  0
   -3.6424    1.5083    1.1968 N   0  0  0  0  0  0  0  0  0  0  0  0
   -2.3526    1.1864    1.4830 C   0  0  0  0  0  0  0  0  0  0  0  0
    0.8996    1.1596    0.0914 C   0  0  0  0  0  0  0  0  0  0  0  0
    0.4355    2.2210   -0.7265 C   0  0  0  0  0  0  0  0  0  0  0  0
    1.3310    3.1086   -1.3258 C   0  0  0  0  0  0  0  0  0  0  0  0
    2.7005    2.9693   -1.1247 C   0  0  0  0  0  0  0  0  0  0  0  0
    3.1861    1.9394   -0.3253 C   0  0  0  0  0  0  0  0  0  0  0  0
    2.3094    1.0352    0.2836 C   0  0  0  0  0  0  0  0  0  0  0  0
    3.0312   -0.2283    1.2807 Cl  0  0  0  0  0  0  0  0  0  0  0  0
    0.6954   -0.4034    2.5420 H   0  0  0  0  0  0  0  0  0  0  0  0
   -1.0111   -2.1060    2.0140 H   0  0  0  0  0  0  0  0  0  0  0  0
   -0.7036   -4.4544    1.3358 H   0  0  0  0  0  0  0  0  0  0  0  0
    1.5457   -3.1935   -2.0982 H   0  0  0  0  0  0  0  0  0  0  0  0
    1.2731   -0.8562   -1.4437 H   0  0  0  0  0  0  0  0  0  0  0  0
   -1.5884   -0.2506   -1.4996 H   0  0  0  0  0  0  0  0  0  0  0  0
   -5.2159    1.4733   -0.2153 H   0  0  0  0  0  0  0  0  0  0  0  0
   -1.9523    1.4616    2.4481 H   0  0  0  0  0  0  0  0  0  0  0  0
   -0.6158    2.3823   -0.9054 H   0  0  0  0  0  0  0  0  0  0  0  0
    0.9582    3.9136   -1.9455 H   0  0  0  0  0  0  0  0  0  0  0  0
    3.3891    3.6643   -1.5871 H   0  0  0  0  0  0  0  0  0  0  0  0
    4.2538    1.8431   -0.1724 H   0  0  0  0  0  0  0  0  0  0  0  0
  1 23  1  0  0  0  0
  2  1  1  1  0  0  0
  3  2  1  0  0  0  0
  4  3  2  0  0  0  0
  4 24  1  0  0  0  0
  5  4  1  0  0  0  0
  5 25  1  0  0  0  0
  6  5  2  0  0  0  0
  7  6  1  0  0  0  0
  8  6  1  0  0  0  0
  8 26  1  0  0  0  0
  9  8  2  0  0  0  0
  9  3  1  0  0  0  0
  9 27  1  0  0  0  0
 10  2  1  0  0  0  0
 11 10  2  0  0  0  0
 11 28  1  0  0  0  0
 12 11  1  0  0  0  0
 13 12  2  0  0  0  0
 13 29  1  0  0  0  0
 14 13  1  0  0  0  0
 15 14  2  0  0  0  0
 15 10  1  0  0  0  0
 15 30  1  0  0  0  0
 16  2  1  0  0  0  0
 17 16  2  0  0  0  0
 17 31  1  0  0  0  0
 18 17  1  0  0  0  0
 18 32  1  0  0  0  0
 19 18  2  0  0  0  0
 19 33  1  0  0  0  0
 20 19  1  0  0  0  0
 20 34  1  0  0  0  0
 21 20  2  0  0  0  0
 21 16  1  0  0  0  0
 22 21  1  0  0  0  0
M  END
>  <MOL Chiral Flag>
0

>  <energy>
45.413681908598846

$$$$
> 612_AKC_j.actatropica.2013.11.003
>594.sdf
 OpenBabel10062215453D

 59 60  0  0  0  0  0  0  0  0999 V2000
   -0.0143  -11.9594   -1.3501 C   0  0  0  0  0  0  0  0  0  0  0  0
    0.6118  -11.4768   -0.0343 C   0  0  0  0  0  0  0  0  0  0  0  0
    1.2657  -10.1349   -0.0392 N   0  3  0  0  0  0  0  0  0  0  0  0
    2.6454  -10.1179   -0.6111 C   0  0  0  0  0  0  0  0  0  0  0  0
    2.7760  -10.1701   -2.1443 C   0  0  0  0  0  0  0  0  0  0  0  0
    0.3754   -9.0293   -0.5071 C   0  0  0  0  0  0  0  0  0  0  0  0
    0.6782   -7.6647    0.1809 C   0  0  0  0  0  0  0  0  0  0  0  0
   -0.1523   -6.5006   -0.4187 C   0  0  0  0  0  0  0  0  0  0  0  0
   -0.0672   -5.1902    0.4125 C   0  0  0  0  0  0  0  0  0  0  0  0
   -0.6924   -3.9804   -0.3323 C   0  0  0  0  0  0  0  0  0  0  0  0
   -0.8109   -2.6957    0.5365 C   0  0  0  0  0  0  0  0  0  0  0  0
   -1.1690   -1.5312   -0.2757 N   0  0  0  0  0  0  0  0  0  0  0  0
   -1.3965   -0.2095    0.2594 C   0  0  0  0  0  0  0  0  0  0  0  0
   -1.6020   -0.0003    1.6405 C   0  0  0  0  0  0  0  0  0  0  0  0
   -1.8450    1.2967    2.1450 C   0  0  0  0  0  0  0  0  0  0  0  0
   -2.0813    1.5404    3.4622 O   0  0  0  0  0  0  0  0  0  0  0  0
   -2.2063    0.5908    4.4514 C   0  0  0  0  0  0  0  0  0  0  0  0
   -1.8575    2.3886    1.2790 C   0  0  0  0  0  0  0  0  0  0  0  0
   -1.6478    2.2269   -0.1023 C   0  0  0  0  0  0  0  0  0  0  0  0
   -1.6464    3.3280   -1.0132 C   0  0  0  0  0  0  0  0  0  0  0  0
   -1.8558    4.7775   -0.6178 C   0  0  0  0  0  0  0  0  0  0  0  0
   -1.4312    3.0748   -2.3732 C   0  0  0  0  0  0  0  0  0  0  0  0
   -1.2249    1.7747   -2.8212 C   0  0  0  0  0  0  0  0  0  0  0  0
   -1.2260    0.7386   -1.9462 N   0  0  0  0  0  0  0  0  0  0  0  0
   -1.4280    0.9138   -0.6104 C   0  0  0  0  0  0  0  0  0  0  0  0
   -0.5387  -12.9201   -1.1542 H   0  0  0  0  0  0  0  0  0  0  0  0
    0.7244  -12.1872   -2.1300 H   0  0  0  0  0  0  0  0  0  0  0  0
   -0.7618  -11.2368   -1.7329 H   0  0  0  0  0  0  0  0  0  0  0  0
    1.3237  -12.2520    0.3312 H   0  0  0  0  0  0  0  0  0  0  0  0
   -0.2217  -11.4527    0.7048 H   0  0  0  0  0  0  0  0  0  0  0  0
    1.4202   -9.9690    0.9849 H   0  0  0  0  0  0  0  0  0  0  0  0
    3.1601   -9.1895   -0.2848 H   0  0  0  0  0  0  0  0  0  0  0  0
    3.2358  -10.9627   -0.1888 H   0  0  0  0  0  0  0  0  0  0  0  0
    2.4201  -11.1129   -2.5815 H   0  0  0  0  0  0  0  0  0  0  0  0
    2.2801   -9.3138   -2.6400 H   0  0  0  0  0  0  0  0  0  0  0  0
    3.8530  -10.1138   -2.4089 H   0  0  0  0  0  0  0  0  0  0  0  0
   -0.6826   -9.2631   -0.2513 H   0  0  0  0  0  0  0  0  0  0  0  0
    0.4115   -8.9397   -1.6097 H   0  0  0  0  0  0  0  0  0  0  0  0
    1.7516   -7.4010    0.0784 H   0  0  0  0  0  0  0  0  0  0  0  0
    0.4478   -7.7770    1.2630 H   0  0  0  0  0  0  0  0  0  0  0  0
    0.2212   -6.3263   -1.4513 H   0  0  0  0  0  0  0  0  0  0  0  0
   -1.2242   -6.7895   -0.4778 H   0  0  0  0  0  0  0  0  0  0  0  0
    0.9950   -4.9423    0.6280 H   0  0  0  0  0  0  0  0  0  0  0  0
   -0.5908   -5.3622    1.3782 H   0  0  0  0  0  0  0  0  0  0  0  0
   -1.7120   -4.2367   -0.6941 H   0  0  0  0  0  0  0  0  0  0  0  0
   -0.0488   -3.7750   -1.2156 H   0  0  0  0  0  0  0  0  0  0  0  0
    0.1610   -2.4826    1.0311 H   0  0  0  0  0  0  0  0  0  0  0  0
   -1.5824   -2.8825    1.3138 H   0  0  0  0  0  0  0  0  0  0  0  0
   -1.1997   -1.6537   -1.2992 H   0  0  0  0  0  0  0  0  0  0  0  0
   -1.5921   -0.8395    2.3177 H   0  0  0  0  0  0  0  0  0  0  0  0
   -2.4137    1.1057    5.4129 H   0  0  0  0  0  0  0  0  0  0  0  0
   -1.2647    0.0136    4.5543 H   0  0  0  0  0  0  0  0  0  0  0  0
   -3.0589   -0.0843    4.2254 H   0  0  0  0  0  0  0  0  0  0  0  0
   -2.0407    3.3543    1.7168 H   0  0  0  0  0  0  0  0  0  0  0  0
   -2.0207    4.9758    0.4526 H   0  0  0  0  0  0  0  0  0  0  0  0
   -2.7377    5.1829   -1.1579 H   0  0  0  0  0  0  0  0  0  0  0  0
   -0.9639    5.3698   -0.9153 H   0  0  0  0  0  0  0  0  0  0  0  0
   -1.4228    3.8912   -3.0866 H   0  0  0  0  0  0  0  0  0  0  0  0
   -1.0586    1.5897   -3.8739 H   0  0  0  0  0  0  0  0  0  0  0  0
  1 26  1  0  0  0  0
  1 27  1  0  0  0  0
  1 28  1  0  0  0  0
  2  1  1  0  0  0  0
  2 29  1  0  0  0  0
  2 30  1  0  0  0  0
  3  2  1  0  0  0  0
  3 31  1  0  0  0  0
  4  3  1  0  0  0  0
  4 32  1  0  0  0  0
  4 33  1  0  0  0  0
  5  4  1  0  0  0  0
  5 34  1  0  0  0  0
  5 35  1  0  0  0  0
  5 36  1  0  0  0  0
  6  3  1  0  0  0  0
  6 37  1  0  0  0  0
  6 38  1  0  0  0  0
  7  6  1  0  0  0  0
  7 39  1  0  0  0  0
  7 40  1  0  0  0  0
  8  7  1  0  0  0  0
  8 41  1  0  0  0  0
  8 42  1  0  0  0  0
  9  8  1  0  0  0  0
  9 43  1  0  0  0  0
  9 44  1  0  0  0  0
 10  9  1  0  0  0  0
 10 45  1  0  0  0  0
 10 46  1  0  0  0  0
 11 10  1  0  0  0  0
 11 47  1  0  0  0  0
 11 48  1  0  0  0  0
 12 11  1  0  0  0  0
 12 49  1  0  0  0  0
 13 12  1  0  0  0  0
 14 13  2  0  0  0  0
 14 50  1  0  0  0  0
 15 14  1  0  0  0  0
 16 15  1  0  0  0  0
 17 16  1  0  0  0  0
 17 51  1  0  0  0  0
 17 52  1  0  0  0  0
 17 53  1  0  0  0  0
 18 15  2  0  0  0  0
 18 54  1  0  0  0  0
 19 18  1  0  0  0  0
 20 19  2  0  0  0  0
 21 20  1  0  0  0  0
 21 55  1  0  0  0  0
 21 56  1  0  0  0  0
 21 57  1  0  0  0  0
 22 20  1  0  0  0  0
 22 58  1  0  0  0  0
 23 22  2  0  0  0  0
 23 59  1  0  0  0  0
 24 23  1  0  0  0  0
 25 24  2  0  0  0  0
 25 13  1  0  0  0  0
 25 19  1  0  0  0  0
M  CHG  1   3   1
M  END
>  <MOL Chiral Flag>
0

>  <energy>
90.212598720024786

$$$$
> 613_AKC_j.fitote.2007.07.005
>595.sdf
 OpenBabel10062215453D

 53 54  0  0  0  0  0  0  0  0999 V2000
   -6.0075   -5.7722   -4.0078 C   0  0  0  0  0  0  0  0  0  0  0  0
   -4.7828   -5.7507   -3.1296 C   0  0  0  0  0  0  0  0  0  0  0  0
   -3.8598   -6.9428   -3.1506 C   0  0  0  0  0  0  0  0  0  0  0  0
   -4.5251   -4.6702   -2.3599 C   0  0  0  0  0  0  0  0  0  0  0  0
   -3.3125   -4.5702   -1.4613 C   0  0  0  0  0  0  0  0  0  0  0  0
   -3.2339   -3.1757   -0.8243 C   0  0  0  0  0  0  0  0  0  0  0  0
   -2.0202   -2.9749    0.0688 C   0  0  0  0  0  0  0  0  0  0  0  0
   -0.6467   -3.2139   -0.5177 C   0  0  0  0  0  0  0  0  0  0  0  0
   -2.2080   -2.5450    1.3420 C   0  0  0  0  0  0  0  0  0  0  0  0
   -1.1116   -2.2075    2.3325 C   0  0  0  0  0  0  0  0  0  0  0  0
   -0.2482   -1.0321    1.8821 C   0  0  0  0  0  0  0  0  0  0  0  0
   -0.8572    0.1860    1.5261 C   0  0  0  0  0  0  0  0  0  0  0  0
   -2.2003    0.3176    1.5885 O   0  0  0  0  0  0  0  0  0  0  0  0
   -0.0765    1.2635    1.1076 C   0  0  0  0  0  0  0  0  0  0  0  0
    1.3162    1.1636    1.0470 C   0  0  0  0  0  0  0  0  0  0  0  0
    2.0355    2.2523    0.6977 O   0  0  0  0  0  0  0  0  0  0  0  0
    1.9633   -0.0467    1.4003 C   0  0  0  0  0  0  0  0  0  0  0  0
    3.4683   -0.1290    1.3967 C   0  0  0  0  0  0  0  0  0  0  0  0
    4.0172   -0.7303    2.3083 O   0  0  0  0  0  0  0  0  0  0  0  0
    4.3396    0.5183    0.3615 C   0  0  0  0  0  0  0  0  0  0  0  0
    3.8397    0.8988   -0.9019 C   0  0  0  0  0  0  0  0  0  0  0  0
    4.6840    1.4819   -1.8527 C   0  0  0  0  0  0  0  0  0  0  0  0
    6.0337    1.6869   -1.5622 C   0  0  0  0  0  0  0  0  0  0  0  0
    6.5465    1.3012   -0.3234 C   0  0  0  0  0  0  0  0  0  0  0  0
    5.7103    0.7145    0.6309 C   0  0  0  0  0  0  0  0  0  0  0  0
    1.1630   -1.1515    1.8289 C   0  0  0  0  0  0  0  0  0  0  0  0
    1.7172   -2.3393    2.1723 O   0  0  0  0  0  0  0  0  0  0  0  0
   -5.6988   -5.8746   -5.0694 H   0  0  0  0  0  0  0  0  0  0  0  0
   -6.6132   -4.8454   -3.9113 H   0  0  0  0  0  0  0  0  0  0  0  0
   -6.6476   -6.6358   -3.7316 H   0  0  0  0  0  0  0  0  0  0  0  0
   -4.2354   -7.7193   -3.8505 H   0  0  0  0  0  0  0  0  0  0  0  0
   -3.7873   -7.3905   -2.1378 H   0  0  0  0  0  0  0  0  0  0  0  0
   -2.8496   -6.6348   -3.4938 H   0  0  0  0  0  0  0  0  0  0  0  0
   -5.2101   -3.8260   -2.3956 H   0  0  0  0  0  0  0  0  0  0  0  0
   -2.4073   -4.7284   -2.0827 H   0  0  0  0  0  0  0  0  0  0  0  0
   -3.3625   -5.3531   -0.6736 H   0  0  0  0  0  0  0  0  0  0  0  0
   -4.1759   -2.9840   -0.2626 H   0  0  0  0  0  0  0  0  0  0  0  0
   -3.1729   -2.4262   -1.6428 H   0  0  0  0  0  0  0  0  0  0  0  0
    0.1778   -3.0466    0.1926 H   0  0  0  0  0  0  0  0  0  0  0  0
   -0.4972   -2.5478   -1.3922 H   0  0  0  0  0  0  0  0  0  0  0  0
   -0.5552   -4.2693   -0.8441 H   0  0  0  0  0  0  0  0  0  0  0  0
   -3.2256   -2.3929    1.6931 H   0  0  0  0  0  0  0  0  0  0  0  0
   -1.6028   -1.9062    3.2829 H   0  0  0  0  0  0  0  0  0  0  0  0
   -0.5199   -3.1208    2.5486 H   0  0  0  0  0  0  0  0  0  0  0  0
   -2.6468    1.1411    1.3448 H   0  0  0  0  0  0  0  0  0  0  0  0
   -0.5566    2.1981    0.8434 H   0  0  0  0  0  0  0  0  0  0  0  0
    1.6168    3.0923    0.4611 H   0  0  0  0  0  0  0  0  0  0  0  0
    2.8033    0.7334   -1.1624 H   0  0  0  0  0  0  0  0  0  0  0  0
    4.2913    1.7708   -2.8190 H   0  0  0  0  0  0  0  0  0  0  0  0
    6.6844    2.1384   -2.3000 H   0  0  0  0  0  0  0  0  0  0  0  0
    7.5948    1.4551   -0.1012 H   0  0  0  0  0  0  0  0  0  0  0  0
    6.1318    0.4228    1.5848 H   0  0  0  0  0  0  0  0  0  0  0  0
    2.6496   -2.5623    2.0768 H   0  0  0  0  0  0  0  0  0  0  0  0
  1 28  1  0  0  0  0
  1 29  1  0  0  0  0
  1 30  1  0  0  0  0
  2  1  1  0  0  0  0
  3  2  1  0  0  0  0
  3 31  1  0  0  0  0
  3 32  1  0  0  0  0
  3 33  1  0  0  0  0
  4  2  2  0  0  0  0
  4 34  1  0  0  0  0
  5  4  1  0  0  0  0
  5 35  1  0  0  0  0
  5 36  1  0  0  0  0
  6  5  1  0  0  0  0
  6 37  1  0  0  0  0
  6 38  1  0  0  0  0
  7  6  1  0  0  0  0
  8  7  1  0  0  0  0
  8 39  1  0  0  0  0
  8 40  1  0  0  0  0
  8 41  1  0  0  0  0
  9  7  2  0  0  0  0
  9 42  1  0  0  0  0
 10  9  1  0  0  0  0
 10 43  1  0  0  0  0
 10 44  1  0  0  0  0
 11 10  1  0  0  0  0
 12 11  2  0  0  0  0
 13 12  1  0  0  0  0
 13 45  1  0  0  0  0
 14 12  1  0  0  0  0
 14 46  1  0  0  0  0
 15 14  2  0  0  0  0
 16 15  1  0  0  0  0
 16 47  1  0  0  0  0
 17 15  1  0  0  0  0
 18 17  1  0  0  0  0
 19 18  2  0  0  0  0
 20 18  1  0  0  0  0
 21 20  2  0  0  0  0
 21 48  1  0  0  0  0
 22 21  1  0  0  0  0
 22 49  1  0  0  0  0
 23 22  2  0  0  0  0
 23 50  1  0  0  0  0
 24 23  1  0  0  0  0
 24 51  1  0  0  0  0
 25 24  2  0  0  0  0
 25 20  1  0  0  0  0
 25 52  1  0  0  0  0
 26 17  2  0  0  0  0
 26 11  1  0  0  0  0
 27 26  1  0  0  0  0
 27 53  1  0  0  0  0
M  END
>  <MOL Chiral Flag>
0

>  <energy>
96.944347910359042

$$$$
> 614_AKC_j.bmc.2007.09.007
>596.sdf
 OpenBabel10062215453D

 42 45  0  0  0  0  0  0  0  0999 V2000
   -0.5016    0.0865    1.6940 O   0  0  0  0  0  0  0  0  0  0  0  0
   -0.9769   -1.2613    1.1311 S   0  0  0  0  0  0  0  0  0  0  0  0
   -1.9224   -1.7984    2.2179 O   0  0  0  0  0  0  0  0  0  0  0  0
   -2.0030   -0.8899   -0.2587 N   0  0  0  0  0  0  0  0  0  0  0  0
   -3.1087    0.0341   -0.2973 C   0  0  0  0  0  0  0  0  0  0  0  0
   -3.7605    0.2112   -1.5339 C   0  0  0  0  0  0  0  0  0  0  0  0
   -4.8337    1.0928   -1.6710 C   0  0  0  0  0  0  0  0  0  0  0  0
   -5.2868    1.8252   -0.5787 C   0  0  0  0  0  0  0  0  0  0  0  0
   -4.6712    1.6765    0.6669 C   0  0  0  0  0  0  0  0  0  0  0  0
   -3.5821    0.7799    0.8254 C   0  0  0  0  0  0  0  0  0  0  0  0
   -3.0161    0.6569    2.0540 N   0  0  0  0  0  0  0  0  0  0  0  0
   -3.4422    1.3621    3.1341 C   0  0  0  0  0  0  0  0  0  0  0  0
   -4.5028    2.2555    3.0102 C   0  0  0  0  0  0  0  0  0  0  0  0
   -5.1221    2.4128    1.7724 C   0  0  0  0  0  0  0  0  0  0  0  0
    0.4229   -2.3493    0.8681 C   0  0  0  0  0  0  0  0  0  0  0  0
    1.1479   -2.2968   -0.3229 C   0  0  0  0  0  0  0  0  0  0  0  0
    2.2551   -3.1315   -0.5126 C   0  0  0  0  0  0  0  0  0  0  0  0
    2.6652   -4.0348    0.4994 C   0  0  0  0  0  0  0  0  0  0  0  0
    1.9161   -4.0648    1.6995 C   0  0  0  0  0  0  0  0  0  0  0  0
    0.8097   -3.2335    1.8746 C   0  0  0  0  0  0  0  0  0  0  0  0
    3.8577   -4.9438    0.3073 C   0  0  0  0  0  0  0  0  0  0  0  0
    4.4777   -5.5813    1.4111 C   0  0  0  0  0  0  0  0  0  0  0  0
    5.5708   -6.4318    1.2260 C   0  0  0  0  0  0  0  0  0  0  0  0
    6.0664   -6.6711   -0.0529 C   0  0  0  0  0  0  0  0  0  0  0  0
    5.4762   -6.0542   -1.1536 C   0  0  0  0  0  0  0  0  0  0  0  0
    4.3864   -5.1952   -0.9821 C   0  0  0  0  0  0  0  0  0  0  0  0
   -1.7593   -1.3811   -1.1318 H   0  0  0  0  0  0  0  0  0  0  0  0
   -3.4290   -0.3409   -2.4047 H   0  0  0  0  0  0  0  0  0  0  0  0
   -5.3152    1.2106   -2.6334 H   0  0  0  0  0  0  0  0  0  0  0  0
   -6.1192    2.5079   -0.7042 H   0  0  0  0  0  0  0  0  0  0  0  0
   -2.9530    1.2283    4.0895 H   0  0  0  0  0  0  0  0  0  0  0  0
   -4.8423    2.8206    3.8685 H   0  0  0  0  0  0  0  0  0  0  0  0
   -5.9487    3.1065    1.6755 H   0  0  0  0  0  0  0  0  0  0  0  0
    0.8600   -1.6038   -1.1034 H   0  0  0  0  0  0  0  0  0  0  0  0
    2.7900   -3.0430   -1.4444 H   0  0  0  0  0  0  0  0  0  0  0  0
    2.1598   -4.7363    2.5057 H   0  0  0  0  0  0  0  0  0  0  0  0
    0.2536   -3.2781    2.8022 H   0  0  0  0  0  0  0  0  0  0  0  0
    4.1420   -5.4221    2.4226 H   0  0  0  0  0  0  0  0  0  0  0  0
    6.0341   -6.9075    2.0811 H   0  0  0  0  0  0  0  0  0  0  0  0
    6.9091   -7.3360   -0.1910 H   0  0  0  0  0  0  0  0  0  0  0  0
    5.8609   -6.2453   -2.1471 H   0  0  0  0  0  0  0  0  0  0  0  0
    3.9562   -4.7557   -1.8671 H   0  0  0  0  0  0  0  0  0  0  0  0
  2  1  2  0  0  0  0
  3  2  2  0  0  0  0
  4  2  1  0  0  0  0
  4 27  1  0  0  0  0
  5  4  1  0  0  0  0
  6  5  2  0  0  0  0
  6 28  1  0  0  0  0
  7  6  1  0  0  0  0
  7 29  1  0  0  0  0
  8  7  2  0  0  0  0
  8 30  1  0  0  0  0
  9  8  1  0  0  0  0
 10  9  2  0  0  0  0
 10  5  1  0  0  0  0
 11 10  1  0  0  0  0
 12 11  2  0  0  0  0
 12 31  1  0  0  0  0
 13 12  1  0  0  0  0
 13 32  1  0  0  0  0
 14 13  2  0  0  0  0
 14  9  1  0  0  0  0
 14 33  1  0  0  0  0
 15  2  1  0  0  0  0
 16 15  2  0  0  0  0
 16 34  1  0  0  0  0
 17 16  1  0  0  0  0
 17 35  1  0  0  0  0
 18 17  2  0  0  0  0
 19 18  1  0  0  0  0
 19 36  1  0  0  0  0
 20 19  2  0  0  0  0
 20 15  1  0  0  0  0
 20 37  1  0  0  0  0
 21 18  1  0  0  0  0
 22 21  2  0  0  0  0
 22 38  1  0  0  0  0
 23 22  1  0  0  0  0
 23 39  1  0  0  0  0
 24 23  2  0  0  0  0
 24 40  1  0  0  0  0
 25 24  1  0  0  0  0
 25 41  1  0  0  0  0
 26 25  2  0  0  0  0
 26 21  1  0  0  0  0
 26 42  1  0  0  0  0
M  END
>  <MOL Chiral Flag>
0

>  <energy>
63.406814203603567

$$$$
> 615_AKC_j.bmc.2007.08.016
>597.sdf
 OpenBabel10062215463D

 31 32  0  0  0  0  0  0  0  0999 V2000
   -2.0295    2.4241    0.2326 C   0  0  0  0  0  0  0  0  0  0  0  0
   -0.8992    1.3877    0.2083 C   0  0  2  0  0  0  0  0  0  0  0  0
   -1.4589   -0.3757    0.2753 S   0  0  0  0  0  0  0  0  0  0  0  0
   -3.2303   -0.2403   -0.0483 C   0  0  0  0  0  0  0  0  0  0  0  0
   -3.6989   -0.0532   -1.3563 C   0  0  0  0  0  0  0  0  0  0  0  0
   -5.0737    0.0257   -1.6059 C   0  0  0  0  0  0  0  0  0  0  0  0
   -5.9863   -0.0920   -0.5517 C   0  0  0  0  0  0  0  0  0  0  0  0
   -7.7103   -0.0044   -0.8683 Cl  0  0  0  0  0  0  0  0  0  0  0  0
   -5.5225   -0.2855    0.7541 C   0  0  0  0  0  0  0  0  0  0  0  0
   -4.1473   -0.3590    1.0063 C   0  0  0  0  0  0  0  0  0  0  0  0
    0.0038    1.6485    1.4047 C   0  0  0  0  0  0  0  0  0  0  0  0
   -0.4637    1.4576    2.5181 O   0  0  0  0  0  0  0  0  0  0  0  0
    1.4131    2.1659    1.2969 C   0  0  0  0  0  0  0  0  0  0  0  0
    2.1557    2.3724    2.4818 C   0  0  0  0  0  0  0  0  0  0  0  0
    3.4575    2.8790    2.4317 C   0  0  0  0  0  0  0  0  0  0  0  0
    4.0423    3.1885    1.2058 C   0  0  0  0  0  0  0  0  0  0  0  0
    3.3287    2.9894    0.0239 C   0  0  0  0  0  0  0  0  0  0  0  0
    2.0242    2.4821    0.0619 C   0  0  0  0  0  0  0  0  0  0  0  0
   -2.6368    2.3350    1.1577 H   0  0  0  0  0  0  0  0  0  0  0  0
   -2.6846    2.3186   -0.6542 H   0  0  0  0  0  0  0  0  0  0  0  0
   -1.5927    3.4457    0.1885 H   0  0  0  0  0  0  0  0  0  0  0  0
   -0.3855    1.5145   -0.7583 H   0  0  0  0  0  0  0  0  0  0  0  0
   -2.9990    0.0331   -2.1768 H   0  0  0  0  0  0  0  0  0  0  0  0
   -5.4296    0.1736   -2.6176 H   0  0  0  0  0  0  0  0  0  0  0  0
   -6.2269   -0.3827    1.5711 H   0  0  0  0  0  0  0  0  0  0  0  0
   -3.7970   -0.5151    2.0185 H   0  0  0  0  0  0  0  0  0  0  0  0
    1.7261    2.1470    3.4492 H   0  0  0  0  0  0  0  0  0  0  0  0
    4.0115    3.0358    3.3488 H   0  0  0  0  0  0  0  0  0  0  0  0
    5.0491    3.5857    1.1710 H   0  0  0  0  0  0  0  0  0  0  0  0
    3.7860    3.2339   -0.9262 H   0  0  0  0  0  0  0  0  0  0  0  0
    1.5153    2.3562   -0.8779 H   0  0  0  0  0  0  0  0  0  0  0  0
  1 19  1  0  0  0  0
  1 20  1  0  0  0  0
  1 21  1  0  0  0  0
  2  1  1  0  0  0  0
  2 22  1  6  0  0  0
  3  2  1  0  0  0  0
  4  3  1  0  0  0  0
  5  4  2  0  0  0  0
  5 23  1  0  0  0  0
  6  5  1  0  0  0  0
  6 24  1  0  0  0  0
  7  6  2  0  0  0  0
  8  7  1  0  0  0  0
  9  7  1  0  0  0  0
  9 25  1  0  0  0  0
 10  9  2  0  0  0  0
 10  4  1  0  0  0  0
 10 26  1  0  0  0  0
 11  2  1  0  0  0  0
 12 11  2  0  0  0  0
 13 11  1  0  0  0  0
 14 13  2  0  0  0  0
 14 27  1  0  0  0  0
 15 14  1  0  0  0  0
 15 28  1  0  0  0  0
 16 15  2  0  0  0  0
 16 29  1  0  0  0  0
 17 16  1  0  0  0  0
 17 30  1  0  0  0  0
 18 17  2  0  0  0  0
 18 13  1  0  0  0  0
 18 31  1  0  0  0  0
M  END
>  <MOL Chiral Flag>
0

>  <energy>
67.852842447037418

$$$$
> 616_AKC_j.ejmech.2007.02.010
>598.sdf
 OpenBabel10062215463D

 37 39  0  0  0  0  0  0  0  0999 V2000
    7.3858   -1.5293   -0.8875 C   0  0  0  0  0  0  0  0  0  0  0  0
    5.9226   -1.2186   -0.7524 C   0  0  0  0  0  0  0  0  0  0  0  0
    5.1371   -1.8220   -1.4635 O   0  0  0  0  0  0  0  0  0  0  0  0
    5.5030   -0.2600    0.1312 N   0  0  0  0  0  0  0  0  0  0  0  0
    4.1445    0.1407    0.3933 C   0  0  0  0  0  0  0  0  0  0  0  0
    3.0091   -0.5752   -0.0643 C   0  0  0  0  0  0  0  0  0  0  0  0
    1.7182   -0.1332    0.2475 C   0  0  0  0  0  0  0  0  0  0  0  0
    0.6386   -0.8434   -0.1795 N   0  0  0  0  0  0  0  0  0  0  0  0
   -0.6330   -0.4595    0.1132 C   0  0  0  0  0  0  0  0  0  0  0  0
   -1.7119   -1.2343   -0.3201 C   0  0  0  0  0  0  0  0  0  0  0  0
   -3.0388   -0.8721   -0.0143 C   0  0  0  0  0  0  0  0  0  0  0  0
   -4.0919   -1.7471   -0.4677 N   0  0  0  0  0  0  0  0  0  0  0  0
   -5.4380   -1.6084   -0.2545 C   0  0  0  0  0  0  0  0  0  0  0  0
   -6.3903   -2.6508   -0.7695 C   0  0  0  0  0  0  0  0  0  0  0  0
   -5.8977   -0.6595    0.3553 O   0  0  0  0  0  0  0  0  0  0  0  0
   -3.2544    0.3156    0.7325 C   0  0  0  0  0  0  0  0  0  0  0  0
   -2.1729    1.0926    1.1630 C   0  0  0  0  0  0  0  0  0  0  0  0
   -0.8620    0.7080    0.8651 C   0  0  0  0  0  0  0  0  0  0  0  0
    0.2324    1.4593    1.3133 C   0  0  0  0  0  0  0  0  0  0  0  0
    1.5335    1.0354    1.0129 C   0  0  0  0  0  0  0  0  0  0  0  0
    2.6473    1.7462    1.4697 C   0  0  0  0  0  0  0  0  0  0  0  0
    3.9358    1.2981    1.1692 C   0  0  0  0  0  0  0  0  0  0  0  0
    7.5557   -2.6041   -0.6667 H   0  0  0  0  0  0  0  0  0  0  0  0
    8.0018   -0.9262   -0.1880 H   0  0  0  0  0  0  0  0  0  0  0  0
    7.7177   -1.3157   -1.9251 H   0  0  0  0  0  0  0  0  0  0  0  0
    6.2378    0.2447    0.6515 H   0  0  0  0  0  0  0  0  0  0  0  0
    3.0886   -1.4802   -0.6372 H   0  0  0  0  0  0  0  0  0  0  0  0
   -1.5166   -2.1356   -0.8892 H   0  0  0  0  0  0  0  0  0  0  0  0
   -3.7936   -2.5822   -0.9949 H   0  0  0  0  0  0  0  0  0  0  0  0
   -5.8596   -3.4709   -1.2972 H   0  0  0  0  0  0  0  0  0  0  0  0
   -6.9500   -3.0902    0.0832 H   0  0  0  0  0  0  0  0  0  0  0  0
   -7.1100   -2.1847   -1.4741 H   0  0  0  0  0  0  0  0  0  0  0  0
   -4.2305    0.6658    1.0059 H   0  0  0  0  0  0  0  0  0  0  0  0
   -2.3615    1.9906    1.7396 H   0  0  0  0  0  0  0  0  0  0  0  0
    0.0733    2.3570    1.9011 H   0  0  0  0  0  0  0  0  0  0  0  0
    2.5212    2.6426    2.0653 H   0  0  0  0  0  0  0  0  0  0  0  0
    4.7835    1.8614    1.5397 H   0  0  0  0  0  0  0  0  0  0  0  0
  1 23  1  0  0  0  0
  1 24  1  0  0  0  0
  1 25  1  0  0  0  0
  2  1  1  0  0  0  0
  3  2  2  0  0  0  0
  4  2  1  0  0  0  0
  4 26  1  0  0  0  0
  5  4  1  0  0  0  0
  6  5  2  0  0  0  0
  6 27  1  0  0  0  0
  7  6  1  0  0  0  0
  8  7  2  0  0  0  0
  9  8  1  0  0  0  0
 10  9  2  0  0  0  0
 10 28  1  0  0  0  0
 11 10  1  0  0  0  0
 12 11  1  0  0  0  0
 12 29  1  0  0  0  0
 13 12  1  0  0  0  0
 14 13  1  0  0  0  0
 14 30  1  0  0  0  0
 14 31  1  0  0  0  0
 14 32  1  0  0  0  0
 15 13  2  0  0  0  0
 16 11  2  0  0  0  0
 16 33  1  0  0  0  0
 17 16  1  0  0  0  0
 17 34  1  0  0  0  0
 18 17  2  0  0  0  0
 18  9  1  0  0  0  0
 19 18  1  0  0  0  0
 19 35  1  0  0  0  0
 20 19  2  0  0  0  0
 20  7  1  0  0  0  0
 21 20  1  0  0  0  0
 21 36  1  0  0  0  0
 22 21  2  0  0  0  0
 22  5  1  0  0  0  0
 22 37  1  0  0  0  0
M  END
>  <MOL Chiral Flag>
0

>  <energy>
26.077918157745302

$$$$
> 617_AKC_j.ejmech.2007.02.010
>599.sdf
 OpenBabel10062215473D

 51 55  0  0  0  0  0  0  0  0999 V2000
    4.7767   -0.4102   -0.9770 O   0  0  0  0  0  0  0  0  0  0  0  0
    5.5125    0.5512   -0.8194 C   0  0  0  0  0  0  0  0  0  0  0  0
    5.0249    1.7168   -0.2854 N   0  0  0  0  0  0  0  0  0  0  0  0
    3.6679    1.9769    0.1175 C   0  0  0  0  0  0  0  0  0  0  0  0
    2.5481    1.2057   -0.2981 C   0  0  0  0  0  0  0  0  0  0  0  0
    1.2572    1.5312    0.1556 C   0  0  0  0  0  0  0  0  0  0  0  0
    0.1767    0.8007   -0.2498 N   0  0  0  0  0  0  0  0  0  0  0  0
   -1.0877    1.0923    0.1768 C   0  0  0  0  0  0  0  0  0  0  0  0
   -2.1841    0.3332   -0.2729 C   0  0  0  0  0  0  0  0  0  0  0  0
   -3.5017    0.6454    0.1675 C   0  0  0  0  0  0  0  0  0  0  0  0
   -4.6971   -0.0454   -0.2523 N   0  0  0  0  0  0  0  0  0  0  0  0
   -4.7944   -1.1201   -1.1017 C   0  0  0  0  0  0  0  0  0  0  0  0
   -3.7902   -1.6288   -1.5707 O   0  0  0  0  0  0  0  0  0  0  0  0
   -6.1334   -1.7052   -1.4855 C   0  0  0  0  0  0  0  0  0  0  0  0
   -7.3682   -1.1611   -1.0472 C   0  0  0  0  0  0  0  0  0  0  0  0
   -8.5798   -1.7362   -1.4418 C   0  0  0  0  0  0  0  0  0  0  0  0
   -8.5916   -2.8543   -2.2723 C   0  0  0  0  0  0  0  0  0  0  0  0
   -7.3901   -3.4049   -2.7146 C   0  0  0  0  0  0  0  0  0  0  0  0
   -6.1709   -2.8386   -2.3283 C   0  0  0  0  0  0  0  0  0  0  0  0
   -3.6663    1.7183    1.0654 C   0  0  0  0  0  0  0  0  0  0  0  0
   -2.5819    2.4674    1.5091 C   0  0  0  0  0  0  0  0  0  0  0  0
   -1.2950    2.1666    1.0665 C   0  0  0  0  0  0  0  0  0  0  0  0
   -0.2054    2.9289    1.4908 C   0  0  0  0  0  0  0  0  0  0  0  0
    1.0762    2.6210    1.0326 C   0  0  0  0  0  0  0  0  0  0  0  0
    2.1725    3.3857    1.4321 C   0  0  0  0  0  0  0  0  0  0  0  0
    3.4476    3.0720    0.9728 C   0  0  0  0  0  0  0  0  0  0  0  0
    6.9746    0.3914   -1.1401 C   0  0  0  0  0  0  0  0  0  0  0  0
    7.8713    1.4874   -1.1757 C   0  0  0  0  0  0  0  0  0  0  0  0
    9.2261    1.2877   -1.4583 C   0  0  0  0  0  0  0  0  0  0  0  0
    9.7120    0.0048   -1.7052 C   0  0  0  0  0  0  0  0  0  0  0  0
    8.8432   -1.0856   -1.6808 C   0  0  0  0  0  0  0  0  0  0  0  0
    7.4849   -0.8973   -1.4067 C   0  0  0  0  0  0  0  0  0  0  0  0
    5.6971    2.4610   -0.0677 H   0  0  0  0  0  0  0  0  0  0  0  0
    2.6451    0.3741   -0.9751 H   0  0  0  0  0  0  0  0  0  0  0  0
   -1.9760   -0.4670   -0.9587 H   0  0  0  0  0  0  0  0  0  0  0  0
   -5.5660    0.3324    0.1352 H   0  0  0  0  0  0  0  0  0  0  0  0
   -7.4287   -0.2965   -0.4102 H   0  0  0  0  0  0  0  0  0  0  0  0
   -9.5148   -1.3086   -1.1016 H   0  0  0  0  0  0  0  0  0  0  0  0
   -9.5339   -3.2932   -2.5744 H   0  0  0  0  0  0  0  0  0  0  0  0
   -7.4023   -4.2731   -3.3607 H   0  0  0  0  0  0  0  0  0  0  0  0
   -5.2550   -3.2881   -2.6900 H   0  0  0  0  0  0  0  0  0  0  0  0
   -4.6548    1.9816    1.4208 H   0  0  0  0  0  0  0  0  0  0  0  0
   -2.7505    3.2894    2.1948 H   0  0  0  0  0  0  0  0  0  0  0  0
   -0.3553    3.7622    2.1692 H   0  0  0  0  0  0  0  0  0  0  0  0
    2.0421    4.2283    2.1009 H   0  0  0  0  0  0  0  0  0  0  0  0
    4.2818    3.6801    1.3006 H   0  0  0  0  0  0  0  0  0  0  0  0
    7.5475    2.5000   -1.0003 H   0  0  0  0  0  0  0  0  0  0  0  0
    9.9016    2.1335   -1.4841 H   0  0  0  0  0  0  0  0  0  0  0  0
   10.7630   -0.1439   -1.9171 H   0  0  0  0  0  0  0  0  0  0  0  0
    9.2230   -2.0809   -1.8711 H   0  0  0  0  0  0  0  0  0  0  0  0
    6.8348   -1.7627   -1.3868 H   0  0  0  0  0  0  0  0  0  0  0  0
  2  1  2  0  0  0  0
  3  2  1  0  0  0  0
  3 33  1  0  0  0  0
  4  3  1  0  0  0  0
  5  4  2  0  0  0  0
  5 34  1  0  0  0  0
  6  5  1  0  0  0  0
  7  6  2  0  0  0  0
  8  7  1  0  0  0  0
  9  8  2  0  0  0  0
  9 35  1  0  0  0  0
 10  9  1  0  0  0  0
 11 10  1  0  0  0  0
 11 36  1  0  0  0  0
 12 11  1  0  0  0  0
 13 12  2  0  0  0  0
 14 12  1  0  0  0  0
 15 14  2  0  0  0  0
 15 37  1  0  0  0  0
 16 15  1  0  0  0  0
 16 38  1  0  0  0  0
 17 16  2  0  0  0  0
 17 39  1  0  0  0  0
 18 17  1  0  0  0  0
 18 40  1  0  0  0  0
 19 18  2  0  0  0  0
 19 14  1  0  0  0  0
 19 41  1  0  0  0  0
 20 10  2  0  0  0  0
 20 42  1  0  0  0  0
 21 20  1  0  0  0  0
 21 43  1  0  0  0  0
 22 21  2  0  0  0  0
 22  8  1  0  0  0  0
 23 22  1  0  0  0  0
 23 44  1  0  0  0  0
 24 23  2  0  0  0  0
 24  6  1  0  0  0  0
 25 24  1  0  0  0  0
 25 45  1  0  0  0  0
 26 25  2  0  0  0  0
 26  4  1  0  0  0  0
 26 46  1  0  0  0  0
 27  2  1  0  0  0  0
 28 27  2  0  0  0  0
 28 47  1  0  0  0  0
 29 28  1  0  0  0  0
 29 48  1  0  0  0  0
 30 29  2  0  0  0  0
 30 49  1  0  0  0  0
 31 30  1  0  0  0  0
 31 50  1  0  0  0  0
 32 31  2  0  0  0  0
 32 27  1  0  0  0  0
 32 51  1  0  0  0  0
M  END
>  <MOL Chiral Flag>
0

>  <energy>
142.11020909805376

$$$$
> 618_AKC_j.bmc.2007.06.042
>600.sdf
 OpenBabel10062215473D

 57 58  0  0  0  0  0  0  0  0999 V2000
   -3.5760   -1.2513    3.4229 C   0  0  0  0  0  0  0  0  0  0  0  0
   -3.2758   -0.4672    2.1445 C   0  0  0  0  0  0  0  0  0  0  0  0
   -3.0787   -1.4238    0.9638 C   0  0  0  0  0  0  0  0  0  0  0  0
   -2.7972   -0.7345   -0.3849 C   0  0  0  0  0  0  0  0  0  0  0  0
   -1.4444   -0.1607   -0.5000 N   0  0  0  0  0  0  0  0  0  0  0  0
   -1.2768    1.1972   -1.0350 C   0  0  0  0  0  0  0  0  0  0  0  0
   -1.9946    2.3191   -0.2427 C   0  0  0  0  0  0  0  0  0  0  0  0
   -1.7356    3.6801   -0.9125 C   0  0  0  0  0  0  0  0  0  0  0  0
   -2.3762    4.8329   -0.1422 C   0  0  0  0  0  0  0  0  0  0  0  0
   -0.3063   -1.0588   -0.4681 C   0  0  0  0  0  0  0  0  0  0  0  0
   -0.1140   -2.0267   -1.5217 C   0  0  0  0  0  0  0  0  0  0  0  0
    0.9120   -2.9936   -1.3955 C   0  0  0  0  0  0  0  0  0  0  0  0
    1.7564   -3.0160   -0.2923 C   0  0  0  0  0  0  0  0  0  0  0  0
    1.6154   -2.0527    0.6980 C   0  0  0  0  0  0  0  0  0  0  0  0
    0.6097   -1.0653    0.6421 C   0  0  0  0  0  0  0  0  0  0  0  0
    0.5334   -0.1251    1.7234 N   0  0  0  0  0  0  0  0  0  0  0  0
    1.2809   -0.2142    2.6515 O   0  0  0  0  0  0  0  0  0  0  0  0
   -0.2078    0.8000    1.6757 O   0  0  0  0  0  0  0  0  0  0  0  0
    2.9863   -4.3319   -0.0896 S   0  0  0  0  0  0  0  0  0  0  0  0
    3.8051   -4.1591    1.1996 O   0  0  0  0  0  0  0  0  0  0  0  0
    2.2466   -5.6465    0.2021 O   0  0  0  0  0  0  0  0  0  0  0  0
    4.1591   -4.7661   -1.3412 N   0  0  0  0  0  0  0  0  0  0  0  0
    4.9571   -5.9597   -1.2896 C   0  0  0  0  0  0  0  0  0  0  0  0
    5.0512   -6.7538   -0.1228 C   0  0  0  0  0  0  0  0  0  0  0  0
    5.8200   -7.9238   -0.1190 C   0  0  0  0  0  0  0  0  0  0  0  0
    6.4999   -8.3220   -1.2698 C   0  0  0  0  0  0  0  0  0  0  0  0
    6.4241   -7.5451   -2.4267 C   0  0  0  0  0  0  0  0  0  0  0  0
    5.6639   -6.3682   -2.4372 C   0  0  0  0  0  0  0  0  0  0  0  0
   -0.9180   -2.0419   -2.7167 N   0  0  0  0  0  0  0  0  0  0  0  0
   -1.5963   -1.1061   -3.0091 O   0  0  0  0  0  0  0  0  0  0  0  0
   -0.7879   -2.9248   -3.5112 O   0  0  0  0  0  0  0  0  0  0  0  0
   -4.4993   -1.8580    3.3013 H   0  0  0  0  0  0  0  0  0  0  0  0
   -3.7232   -0.5510    4.2716 H   0  0  0  0  0  0  0  0  0  0  0  0
   -2.7297   -1.9294    3.6666 H   0  0  0  0  0  0  0  0  0  0  0  0
   -2.3747    0.1406    2.3146 H   0  0  0  0  0  0  0  0  0  0  0  0
   -4.1260    0.2170    1.9324 H   0  0  0  0  0  0  0  0  0  0  0  0
   -4.0305   -1.9904    0.8517 H   0  0  0  0  0  0  0  0  0  0  0  0
   -2.2726   -2.1579    1.1801 H   0  0  0  0  0  0  0  0  0  0  0  0
   -2.9235   -1.5339   -1.1374 H   0  0  0  0  0  0  0  0  0  0  0  0
   -3.5906    0.0116   -0.5968 H   0  0  0  0  0  0  0  0  0  0  0  0
   -0.1933    1.4363   -1.1111 H   0  0  0  0  0  0  0  0  0  0  0  0
   -1.6939    1.2198   -2.0645 H   0  0  0  0  0  0  0  0  0  0  0  0
   -3.0900    2.1431   -0.2120 H   0  0  0  0  0  0  0  0  0  0  0  0
   -1.6345    2.3782    0.7978 H   0  0  0  0  0  0  0  0  0  0  0  0
   -2.1416    3.6716   -1.9480 H   0  0  0  0  0  0  0  0  0  0  0  0
   -0.6405    3.8652   -0.9629 H   0  0  0  0  0  0  0  0  0  0  0  0
   -1.9633    4.8854    0.8878 H   0  0  0  0  0  0  0  0  0  0  0  0
   -2.1521    5.7915   -0.6581 H   0  0  0  0  0  0  0  0  0  0  0  0
   -3.4780    4.7067   -0.0908 H   0  0  0  0  0  0  0  0  0  0  0  0
    1.0512   -3.7441   -2.1632 H   0  0  0  0  0  0  0  0  0  0  0  0
    2.2884   -2.0865    1.5439 H   0  0  0  0  0  0  0  0  0  0  0  0
    4.1784   -4.1904   -2.1957 H   0  0  0  0  0  0  0  0  0  0  0  0
    4.5429   -6.4834    0.7875 H   0  0  0  0  0  0  0  0  0  0  0  0
    5.8851   -8.5258    0.7791 H   0  0  0  0  0  0  0  0  0  0  0  0
    7.0861   -9.2332   -1.2643 H   0  0  0  0  0  0  0  0  0  0  0  0
    6.9524   -7.8584   -3.3184 H   0  0  0  0  0  0  0  0  0  0  0  0
    5.6132   -5.7826   -3.3458 H   0  0  0  0  0  0  0  0  0  0  0  0
  1 32  1  0  0  0  0
  1 33  1  0  0  0  0
  1 34  1  0  0  0  0
  2  1  1  0  0  0  0
  2 35  1  0  0  0  0
  2 36  1  0  0  0  0
  3  2  1  0  0  0  0
  3 37  1  0  0  0  0
  3 38  1  0  0  0  0
  4  3  1  0  0  0  0
  4 39  1  0  0  0  0
  4 40  1  0  0  0  0
  5  4  1  0  0  0  0
  6  5  1  0  0  0  0
  6 41  1  0  0  0  0
  6 42  1  0  0  0  0
  7  6  1  0  0  0  0
  7 43  1  0  0  0  0
  7 44  1  0  0  0  0
  8  7  1  0  0  0  0
  8 45  1  0  0  0  0
  8 46  1  0  0  0  0
  9  8  1  0  0  0  0
  9 47  1  0  0  0  0
  9 48  1  0  0  0  0
  9 49  1  0  0  0  0
 10  5  1  0  0  0  0
 11 10  2  0  0  0  0
 12 11  1  0  0  0  0
 12 50  1  0  0  0  0
 13 12  2  0  0  0  0
 14 13  1  0  0  0  0
 14 51  1  0  0  0  0
 15 14  2  0  0  0  0
 15 10  1  0  0  0  0
 16 15  1  0  0  0  0
 17 16  2  0  0  0  0
 18 16  2  0  0  0  0
 19 13  1  0  0  0  0
 20 19  2  0  0  0  0
 21 19  2  0  0  0  0
 22 19  1  0  0  0  0
 22 52  1  0  0  0  0
 23 22  1  0  0  0  0
 24 23  2  0  0  0  0
 24 53  1  0  0  0  0
 25 24  1  0  0  0  0
 25 54  1  0  0  0  0
 26 25  2  0  0  0  0
 26 55  1  0  0  0  0
 27 26  1  0  0  0  0
 27 56  1  0  0  0  0
 28 27  2  0  0  0  0
 28 23  1  0  0  0  0
 28 57  1  0  0  0  0
 29 11  1  0  0  0  0
 30 29  2  0  0  0  0
 31 29  2  0  0  0  0
M  END
>  <MOL Chiral Flag>
0

>  <energy>
76.904602964014444

$$$$
> 619_AKC_s00726-007-0537-9
>601.sdf
 OpenBabel10062215493D

 17 16  0  0  0  0  0  0  0  0999 V2000
   -2.3820    0.8290    0.1085 N   0  3  0  0  0  0  0  0  0  0  0  0
   -1.0098    1.1827   -0.2532 C   0  0  0  0  0  0  0  0  0  0  0  0
   -0.0154    0.7121    0.8185 C   0  0  0  0  0  0  0  0  0  0  0  0
    1.4161    1.1078    0.4458 C   0  0  0  0  0  0  0  0  0  0  0  0
    2.3136    0.7222    1.4643 O   0  0  0  0  0  0  0  0  0  0  0  0
    2.8621   -0.4637    1.0937 N   0  0  0  0  0  0  0  0  0  0  0  0
   -3.0294    1.1618   -0.6422 H   0  0  0  0  0  0  0  0  0  0  0  0
   -2.6454    1.2899    1.0097 H   0  0  0  0  0  0  0  0  0  0  0  0
   -2.4749   -0.2085    0.2008 H   0  0  0  0  0  0  0  0  0  0  0  0
   -0.9371    2.2875   -0.3677 H   0  0  0  0  0  0  0  0  0  0  0  0
   -0.7543    0.7116   -1.2287 H   0  0  0  0  0  0  0  0  0  0  0  0
   -0.0775   -0.3931    0.9228 H   0  0  0  0  0  0  0  0  0  0  0  0
   -0.2770    1.1778    1.7939 H   0  0  0  0  0  0  0  0  0  0  0  0
    1.4767    2.2123    0.3421 H   0  0  0  0  0  0  0  0  0  0  0  0
    1.6905    0.6916   -0.5540 H   0  0  0  0  0  0  0  0  0  0  0  0
    2.8776   -1.0818    1.9353 H   0  0  0  0  0  0  0  0  0  0  0  0
    3.8500   -0.2764    0.8114 H   0  0  0  0  0  0  0  0  0  0  0  0
  1  7  1  0  0  0  0
  1  8  1  0  0  0  0
  1  9  1  0  0  0  0
  2  1  1  0  0  0  0
  2 10  1  0  0  0  0
  2 11  1  0  0  0  0
  3  2  1  0  0  0  0
  3 12  1  0  0  0  0
  3 13  1  0  0  0  0
  4  3  1  0  0  0  0
  4 14  1  0  0  0  0
  4 15  1  0  0  0  0
  5  4  1  0  0  0  0
  6  5  1  0  0  0  0
  6 16  1  0  0  0  0
  6 17  1  0  0  0  0
M  CHG  1   1   1
M  END
>  <MOL Chiral Flag>
0

>  <energy>
12.883243968995018

$$$$
> 620_AKC_j.bmcl.2007.04.035
>602.sdf
 OpenBabel10062215503D

 42 45  0  0  0  0  0  0  0  0999 V2000
    0.9246    0.3907    1.2376 O   0  0  0  0  0  0  0  0  0  0  0  0
    1.1179    0.3565    2.4392 C   0  0  0  0  0  0  0  0  0  0  0  0
    0.0695    0.4877    3.3045 N   0  0  0  0  0  0  0  0  0  0  0  0
   -1.2914    0.7612    2.8757 C   0  0  0  0  0  0  0  0  0  0  0  0
   -2.2609   -0.2698    3.4607 C   0  0  0  0  0  0  0  0  0  0  0  0
   -3.6784    0.1619    3.2184 C   0  0  0  0  0  0  0  0  0  0  0  0
   -4.2928    0.3170    1.9770 C   0  0  0  0  0  0  0  0  0  0  0  0
   -5.5679    0.7651    2.2528 C   0  0  0  0  0  0  0  0  0  0  0  0
   -6.6216    1.1014    1.4062 C   0  0  0  0  0  0  0  0  0  0  0  0
   -7.8213    1.5518    1.9919 C   0  0  0  0  0  0  0  0  0  0  0  0
   -7.9360    1.6524    3.3987 C   0  0  0  0  0  0  0  0  0  0  0  0
   -6.8531    1.3011    4.2260 C   0  0  0  0  0  0  0  0  0  0  0  0
   -5.6823    0.8602    3.6143 C   0  0  0  0  0  0  0  0  0  0  0  0
   -4.5386    0.4895    4.2115 N   0  0  0  0  0  0  0  0  0  0  0  0
    2.4951    0.1565    2.9788 C   0  0  0  0  0  0  0  0  0  0  0  0
    2.5980   -0.1741    4.1514 O   0  0  0  0  0  0  0  0  0  0  0  0
    3.7665    0.3327    2.2038 C   0  0  0  0  0  0  0  0  0  0  0  0
    4.9922   -0.1167    2.7019 C   0  0  0  0  0  0  0  0  0  0  0  0
    5.9870    0.1704    1.8403 N   0  0  0  0  0  0  0  0  0  0  0  0
    5.4300    0.8085    0.8020 C   0  0  0  0  0  0  0  0  0  0  0  0
    6.0990    1.3055   -0.3136 C   0  0  0  0  0  0  0  0  0  0  0  0
    5.3491    1.9712   -1.2924 C   0  0  0  0  0  0  0  0  0  0  0  0
    3.9594    2.1332   -1.1294 C   0  0  0  0  0  0  0  0  0  0  0  0
    3.3077    1.6249    0.0102 C   0  0  0  0  0  0  0  0  0  0  0  0
    4.0678    0.9420    0.9747 C   0  0  0  0  0  0  0  0  0  0  0  0
    0.2485    0.4589    4.3195 H   0  0  0  0  0  0  0  0  0  0  0  0
   -1.5655    1.7632    3.2724 H   0  0  0  0  0  0  0  0  0  0  0  0
   -1.3929    0.7935    1.7689 H   0  0  0  0  0  0  0  0  0  0  0  0
   -2.0992   -0.3241    4.5593 H   0  0  0  0  0  0  0  0  0  0  0  0
   -2.0768   -1.2764    3.0277 H   0  0  0  0  0  0  0  0  0  0  0  0
   -3.8586    0.1374    1.0022 H   0  0  0  0  0  0  0  0  0  0  0  0
   -6.5220    1.0246    0.3313 H   0  0  0  0  0  0  0  0  0  0  0  0
   -8.6585    1.8252    1.3631 H   0  0  0  0  0  0  0  0  0  0  0  0
   -8.8595    2.0029    3.8411 H   0  0  0  0  0  0  0  0  0  0  0  0
   -6.9270    1.3766    5.3033 H   0  0  0  0  0  0  0  0  0  0  0  0
   -4.3468    0.4749    5.2383 H   0  0  0  0  0  0  0  0  0  0  0  0
    5.1473   -0.6275    3.6437 H   0  0  0  0  0  0  0  0  0  0  0  0
    6.9993   -0.0525    1.9680 H   0  0  0  0  0  0  0  0  0  0  0  0
    7.1699    1.1879   -0.4201 H   0  0  0  0  0  0  0  0  0  0  0  0
    5.8406    2.3713   -2.1697 H   0  0  0  0  0  0  0  0  0  0  0  0
    3.3896    2.6604   -1.8836 H   0  0  0  0  0  0  0  0  0  0  0  0
    2.2556    1.7952    0.1071 H   0  0  0  0  0  0  0  0  0  0  0  0
  2  1  2  0  0  0  0
  3  2  1  0  0  0  0
  3 26  1  0  0  0  0
  4  3  1  0  0  0  0
  4 27  1  0  0  0  0
  4 28  1  0  0  0  0
  5  4  1  0  0  0  0
  5 29  1  0  0  0  0
  5 30  1  0  0  0  0
  6  5  1  0  0  0  0
  7  6  2  0  0  0  0
  7 31  1  0  0  0  0
  8  7  1  0  0  0  0
  9  8  2  0  0  0  0
  9 32  1  0  0  0  0
 10  9  1  0  0  0  0
 10 33  1  0  0  0  0
 11 10  2  0  0  0  0
 11 34  1  0  0  0  0
 12 11  1  0  0  0  0
 12 35  1  0  0  0  0
 13 12  2  0  0  0  0
 13  8  1  0  0  0  0
 14 13  1  0  0  0  0
 14  6  1  0  0  0  0
 14 36  1  0  0  0  0
 15  2  1  0  0  0  0
 16 15  2  0  0  0  0
 17 15  1  0  0  0  0
 18 17  2  0  0  0  0
 18 37  1  0  0  0  0
 19 18  1  0  0  0  0
 19 38  1  0  0  0  0
 20 19  1  0  0  0  0
 21 20  2  0  0  0  0
 21 39  1  0  0  0  0
 22 21  1  0  0  0  0
 22 40  1  0  0  0  0
 23 22  2  0  0  0  0
 23 41  1  0  0  0  0
 24 23  1  0  0  0  0
 24 42  1  0  0  0  0
 25 24  2  0  0  0  0
 25 17  1  0  0  0  0
 25 20  1  0  0  0  0
M  END
>  <MOL Chiral Flag>
0

>  <energy>
111.94133726637097

$$$$
> 621_AKC_j.jep.2007.03.025
>603.sdf
 OpenBabel10062215503D

 35 38  0  0  0  0  0  0  0  0999 V2000
    4.2789   -3.9646   -0.0310 C   0  0  0  0  0  0  0  0  0  0  0  0
    3.2542   -3.0453    0.0466 O   0  0  0  0  0  0  0  0  0  0  0  0
    3.4559   -1.7097    0.1921 C   0  0  0  0  0  0  0  0  0  0  0  0
    4.5924   -1.2617    0.2767 O   0  0  0  0  0  0  0  0  0  0  0  0
    2.2877   -0.7919    0.2161 C   0  0  0  0  0  0  0  0  0  0  0  0
    2.4389    0.5439    0.3353 C   0  0  0  0  0  0  0  0  0  0  0  0
    1.3444    1.3413    0.2300 O   0  0  0  0  0  0  0  0  0  0  0  0
    0.3939    1.0263   -0.7315 C   0  0  2  0  0  0  0  0  0  0  0  0
   -0.6999    1.9116   -0.6746 O   0  0  0  0  0  0  0  0  0  0  0  0
   -1.6777    1.2926    0.1334 C   0  0  1  0  0  0  0  0  0  0  0  0
   -3.0140    1.2327   -0.5439 C   0  0  0  0  0  0  0  0  0  0  0  0
   -3.7711    2.2653   -0.9625 C   0  0  0  0  0  0  0  0  0  0  0  0
   -3.3615    3.7032   -0.8137 C   0  0  0  0  0  0  0  0  0  0  0  0
   -3.3822   -0.1547   -0.6525 C   0  0  0  0  0  0  0  0  0  0  0  0
   -4.4237   -0.5756   -1.1305 O   0  0  0  0  0  0  0  0  0  0  0  0
   -2.4261   -0.9511   -0.1714 O   0  0  0  0  0  0  0  0  0  0  0  0
   -1.3380   -0.2167    0.2749 C   0  0  2  0  0  0  0  0  0  0  0  0
   -0.8904   -0.6459    1.6165 C   0  0  0  0  0  0  0  0  0  0  0  0
    0.3173   -1.2753    1.5609 C   0  0  0  0  0  0  0  0  0  0  0  0
    0.8717   -1.3414    0.1735 C   0  0  1  0  0  0  0  0  0  0  0  0
   -0.1199   -0.4190   -0.6051 C   0  0  2  0  0  0  0  0  0  0  0  0
    3.8477   -4.9776   -0.1677 H   0  0  0  0  0  0  0  0  0  0  0  0
    4.9326   -3.7371   -0.9006 H   0  0  0  0  0  0  0  0  0  0  0  0
    4.8777   -3.9522    0.9044 H   0  0  0  0  0  0  0  0  0  0  0  0
    3.4180    0.9947    0.4635 H   0  0  0  0  0  0  0  0  0  0  0  0
    0.8936    1.1211   -1.7226 H   0  0  0  0  0  0  0  0  0  0  0  0
   -1.7747    1.8086    1.1142 H   0  0  0  0  0  0  0  0  0  0  0  0
   -4.7286    2.0612   -1.4333 H   0  0  0  0  0  0  0  0  0  0  0  0
   -2.3795    3.8276   -0.3156 H   0  0  0  0  0  0  0  0  0  0  0  0
   -3.3078    4.1701   -1.8191 H   0  0  0  0  0  0  0  0  0  0  0  0
   -4.1257    4.2358   -0.2109 H   0  0  0  0  0  0  0  0  0  0  0  0
   -1.4714   -0.5426    2.5236 H   0  0  0  0  0  0  0  0  0  0  0  0
    0.7883   -1.7224    2.4273 H   0  0  0  0  0  0  0  0  0  0  0  0
    0.8095   -2.4125   -0.1129 H   0  0  0  0  0  0  0  0  0  0  0  0
   -0.3940   -0.7459   -1.6335 H   0  0  0  0  0  0  0  0  0  0  0  0
  1 22  1  0  0  0  0
  1 23  1  0  0  0  0
  1 24  1  0  0  0  0
  2  1  1  0  0  0  0
  3  2  1  0  0  0  0
  4  3  2  0  0  0  0
  5  3  1  0  0  0  0
  6  5  2  0  0  0  0
  6 25  1  0  0  0  0
  7  6  1  0  0  0  0
  8  7  1  0  0  0  0
  8 26  1  6  0  0  0
  9  8  1  0  0  0  0
 10  9  1  0  0  0  0
 10 27  1  1  0  0  0
 11 10  1  0  0  0  0
 12 11  2  0  0  0  0
 12 28  1  0  0  0  0
 13 12  1  0  0  0  0
 13 29  1  0  0  0  0
 13 30  1  0  0  0  0
 13 31  1  0  0  0  0
 14 11  1  0  0  0  0
 15 14  2  0  0  0  0
 16 14  1  0  0  0  0
 17 16  1  6  0  0  0
 17 10  1  0  0  0  0
 18 17  1  0  0  0  0
 18 32  1  0  0  0  0
 19 18  2  0  0  0  0
 19 33  1  0  0  0  0
 20 19  1  0  0  0  0
 20  5  1  0  0  0  0
 20 34  1  6  0  0  0
 21 20  1  0  0  0  0
 21  8  1  0  0  0  0
 21 17  1  0  0  0  0
 21 35  1  6  0  0  0
M  END
>  <MOL Chiral Flag>
0

>  <energy>
31.942910404980672

$$$$
> 622_AKC_157018007784620031
>604.sdf
 OpenBabel10062215503D

 38 40  0  0  0  0  0  0  0  0999 V2000
   -3.4859    0.3892    1.8491 C   0  0  0  0  0  0  0  0  0  0  0  0
   -2.4742   -0.5224    1.1455 C   0  0  0  0  0  0  0  0  0  0  0  0
   -3.0140   -1.9523    1.0200 C   0  0  0  0  0  0  0  0  0  0  0  0
   -2.0856    0.0233   -0.2278 C   0  0  0  0  0  0  0  0  0  0  0  0
   -0.7310    0.2782   -0.5488 C   0  0  0  0  0  0  0  0  0  0  0  0
    0.2364    0.0528    0.3737 N   0  0  0  0  0  0  0  0  0  0  0  0
    1.5596    0.1893    0.1040 C   0  0  0  0  0  0  0  0  0  0  0  0
    1.9619    0.6159   -1.1696 C   0  0  0  0  0  0  0  0  0  0  0  0
    0.9993    0.9198   -2.1451 C   0  0  0  0  0  0  0  0  0  0  0  0
    1.4520    1.4231   -3.4931 C   0  0  0  0  0  0  0  0  0  0  0  0
   -0.3745    0.7339   -1.8428 C   0  0  0  0  0  0  0  0  0  0  0  0
   -1.3877    0.9688   -2.7911 C   0  0  0  0  0  0  0  0  0  0  0  0
   -2.7233    0.7251   -2.4695 C   0  0  0  0  0  0  0  0  0  0  0  0
   -3.0709    0.2465   -1.2063 C   0  0  0  0  0  0  0  0  0  0  0  0
    2.5347   -0.1487    1.1630 C   0  0  0  0  0  0  0  0  0  0  0  0
    3.7634   -0.7570    0.8584 C   0  0  0  0  0  0  0  0  0  0  0  0
    4.6377   -1.1094    1.8875 C   0  0  0  0  0  0  0  0  0  0  0  0
    4.2921   -0.8274    3.2100 C   0  0  0  0  0  0  0  0  0  0  0  0
    3.1042   -0.2296    3.4917 N   0  0  0  0  0  0  0  0  0  0  0  0
    2.2226    0.0992    2.5105 C   0  0  0  0  0  0  0  0  0  0  0  0
   -3.0656    1.4111    1.9577 H   0  0  0  0  0  0  0  0  0  0  0  0
   -4.4388    0.4489    1.2830 H   0  0  0  0  0  0  0  0  0  0  0  0
   -3.7109   -0.0066    2.8627 H   0  0  0  0  0  0  0  0  0  0  0  0
   -1.5846   -0.5836    1.8075 H   0  0  0  0  0  0  0  0  0  0  0  0
   -3.2505   -2.3619    2.0254 H   0  0  0  0  0  0  0  0  0  0  0  0
   -2.2412   -2.6052    0.5582 H   0  0  0  0  0  0  0  0  0  0  0  0
   -3.9312   -1.9880    0.3960 H   0  0  0  0  0  0  0  0  0  0  0  0
    3.0151    0.7390   -1.3922 H   0  0  0  0  0  0  0  0  0  0  0  0
    1.1229    0.7269   -4.2919 H   0  0  0  0  0  0  0  0  0  0  0  0
    1.0212    2.4305   -3.6779 H   0  0  0  0  0  0  0  0  0  0  0  0
    2.5577    1.5144   -3.5498 H   0  0  0  0  0  0  0  0  0  0  0  0
   -1.1561    1.3232   -3.7864 H   0  0  0  0  0  0  0  0  0  0  0  0
   -3.4941    0.8959   -3.2097 H   0  0  0  0  0  0  0  0  0  0  0  0
   -4.1131    0.0499   -0.9921 H   0  0  0  0  0  0  0  0  0  0  0  0
    4.0260   -0.9954   -0.1642 H   0  0  0  0  0  0  0  0  0  0  0  0
    5.5733   -1.6046    1.6627 H   0  0  0  0  0  0  0  0  0  0  0  0
    4.9648   -1.0913    4.0146 H   0  0  0  0  0  0  0  0  0  0  0  0
    1.2884    0.5783    2.7771 H   0  0  0  0  0  0  0  0  0  0  0  0
  1 21  1  0  0  0  0
  1 22  1  0  0  0  0
  1 23  1  0  0  0  0
  2  1  1  0  0  0  0
  2 24  1  0  0  0  0
  3  2  1  0  0  0  0
  3 25  1  0  0  0  0
  3 26  1  0  0  0  0
  3 27  1  0  0  0  0
  4  2  1  0  0  0  0
  5  4  2  0  0  0  0
  6  5  1  0  0  0  0
  7  6  2  0  0  0  0
  8  7  1  0  0  0  0
  8 28  1  0  0  0  0
  9  8  2  0  0  0  0
 10  9  1  0  0  0  0
 10 29  1  0  0  0  0
 10 30  1  0  0  0  0
 10 31  1  0  0  0  0
 11  9  1  0  0  0  0
 11  5  1  0  0  0  0
 12 11  2  0  0  0  0
 12 32  1  0  0  0  0
 13 12  1  0  0  0  0
 13 33  1  0  0  0  0
 14 13  2  0  0  0  0
 14  4  1  0  0  0  0
 14 34  1  0  0  0  0
 15  7  1  0  0  0  0
 16 15  2  0  0  0  0
 16 35  1  0  0  0  0
 17 16  1  0  0  0  0
 17 36  1  0  0  0  0
 18 17  2  0  0  0  0
 18 37  1  0  0  0  0
 19 18  1  0  0  0  0
 20 19  2  0  0  0  0
 20 15  1  0  0  0  0
 20 38  1  0  0  0  0
M  END
>  <MOL Chiral Flag>
0

>  <energy>
74.277972793272767

$$$$
> 623_AKC_j.bmcl.2006.11.004
>605.sdf
 OpenBabel10062215513D

 19 20  0  0  0  0  0  0  0  0999 V2000
    3.3322    1.6898   -0.1160 O   0  0  0  0  0  0  0  0  0  0  0  0
    2.4533    0.8504    0.0032 C   0  0  0  0  0  0  0  0  0  0  0  0
    1.1584    1.2527   -0.1900 N   0  0  0  0  0  0  0  0  0  0  0  0
   -0.0447    0.5979   -0.1380 C   0  0  0  0  0  0  0  0  0  0  0  0
   -0.2447   -0.7958    0.1597 C   0  0  0  0  0  0  0  0  0  0  0  0
   -1.5878   -1.2818    0.1625 C   0  0  0  0  0  0  0  0  0  0  0  0
   -2.6731   -0.4601   -0.1084 C   0  0  0  0  0  0  0  0  0  0  0  0
   -2.4747    0.8738   -0.3927 C   0  0  0  0  0  0  0  0  0  0  0  0
   -1.1896    1.3941   -0.4079 C   0  0  0  0  0  0  0  0  0  0  0  0
    0.7638   -1.7513    0.4546 C   0  0  0  0  0  0  0  0  0  0  0  0
    0.4242   -2.9009    0.6863 O   0  0  0  0  0  0  0  0  0  0  0  0
    2.0849   -1.5044    0.5037 N   0  0  0  0  0  0  0  0  0  0  0  0
    2.8641   -0.4287    0.3235 C   0  0  0  0  0  0  0  0  0  0  0  0
    1.0925    2.2725   -0.4246 H   0  0  0  0  0  0  0  0  0  0  0  0
   -1.8097   -2.3199    0.3784 H   0  0  0  0  0  0  0  0  0  0  0  0
   -3.6766   -0.8663   -0.0966 H   0  0  0  0  0  0  0  0  0  0  0  0
   -3.3218    1.5140   -0.6039 H   0  0  0  0  0  0  0  0  0  0  0  0
   -1.0809    2.4478   -0.6363 H   0  0  0  0  0  0  0  0  0  0  0  0
    3.9306   -0.5836    0.4428 H   0  0  0  0  0  0  0  0  0  0  0  0
  2  1  2  0  0  0  0
  3  2  1  0  0  0  0
  3 14  1  0  0  0  0
  4  3  1  0  0  0  0
  5  4  2  0  0  0  0
  6  5  1  0  0  0  0
  6 15  1  0  0  0  0
  7  6  2  0  0  0  0
  7 16  1  0  0  0  0
  8  7  1  0  0  0  0
  8 17  1  0  0  0  0
  9  8  2  0  0  0  0
  9  4  1  0  0  0  0
  9 18  1  0  0  0  0
 10  5  1  0  0  0  0
 11 10  2  0  0  0  0
 12 10  1  0  0  0  0
 13 12  2  0  0  0  0
 13  2  1  0  0  0  0
 13 19  1  0  0  0  0
M  END
>  <MOL Chiral Flag>
0

>  <energy>
57.785843290781415

$$$$
> 624_AKC_j.ejmech.2006.07.013
>606.sdf
 OpenBabel10062215513D

 21 21  0  0  0  0  0  0  0  0999 V2000
   -1.2878    2.1885   -0.1621 O   0  0  0  0  0  0  0  0  0  0  0  0
   -1.0601    0.9248    0.4401 C   0  0  1  0  0  0  0  0  0  0  0  0
   -2.0820   -0.1042    0.0020 C   0  0  0  0  0  0  0  0  0  0  0  0
   -2.2904   -1.2224    0.7160 C   0  0  0  0  0  0  0  0  0  0  0  0
   -2.8317    0.1035   -1.1982 C   0  0  0  0  0  0  0  0  0  0  0  0
   -3.4543    0.2438   -2.1656 N   0  0  0  0  0  0  0  0  0  0  0  0
    0.3579    0.4472    0.1653 C   0  0  0  0  0  0  0  0  0  0  0  0
    1.1528   -0.0046    1.2326 C   0  0  0  0  0  0  0  0  0  0  0  0
    2.4211   -0.5403    1.0014 C   0  0  0  0  0  0  0  0  0  0  0  0
    2.9136   -0.6262   -0.2976 C   0  0  0  0  0  0  0  0  0  0  0  0
    4.6374   -1.3401   -0.6046 Br  0  0  0  0  0  0  0  0  0  0  0  0
    2.1404   -0.1834   -1.3701 C   0  0  0  0  0  0  0  0  0  0  0  0
    0.8699    0.3574   -1.1405 C   0  0  0  0  0  0  0  0  0  0  0  0
   -2.1731    2.4928    0.1238 H   0  0  0  0  0  0  0  0  0  0  0  0
   -1.1778    1.0842    1.5220 H   0  0  0  0  0  0  0  0  0  0  0  0
   -1.7238   -1.4275    1.6179 H   0  0  0  0  0  0  0  0  0  0  0  0
   -3.0067   -1.9762    0.3991 H   0  0  0  0  0  0  0  0  0  0  0  0
    0.7846    0.0389    2.2526 H   0  0  0  0  0  0  0  0  0  0  0  0
    3.0180   -0.8921    1.8405 H   0  0  0  0  0  0  0  0  0  0  0  0
    2.5154   -0.2583   -2.3878 H   0  0  0  0  0  0  0  0  0  0  0  0
    0.2767    0.6940   -1.9869 H   0  0  0  0  0  0  0  0  0  0  0  0
  1 14  1  0  0  0  0
  2  1  1  0  0  0  0
  2 15  1  1  0  0  0
  3  2  1  0  0  0  0
  4  3  2  0  0  0  0
  4 16  1  0  0  0  0
  4 17  1  0  0  0  0
  5  3  1  0  0  0  0
  6  5  3  0  0  0  0
  7  2  1  0  0  0  0
  8  7  2  0  0  0  0
  8 18  1  0  0  0  0
  9  8  1  0  0  0  0
  9 19  1  0  0  0  0
 10  9  2  0  0  0  0
 11 10  1  0  0  0  0
 12 10  1  0  0  0  0
 12 20  1  0  0  0  0
 13 12  2  0  0  0  0
 13  7  1  0  0  0  0
 13 21  1  0  0  0  0
M  END
>  <MOL Chiral Flag>
0

>  <energy>
34.547264615528348

$$$$
> 625_AKC_AAC.00936-06
>607.sdf
 OpenBabel10062215513D

 48 51  0  0  0  0  0  0  0  0999 V2000
   -6.1715    1.1607   -1.6917 C   0  0  0  0  0  0  0  0  0  0  0  0
   -5.6404    0.2345   -0.8183 O   0  0  0  0  0  0  0  0  0  0  0  0
   -4.3277    0.1340   -0.4759 C   0  0  0  0  0  0  0  0  0  0  0  0
   -3.3692    1.0723   -0.8821 C   0  0  0  0  0  0  0  0  0  0  0  0
   -2.0253    0.9330   -0.5005 C   0  0  0  0  0  0  0  0  0  0  0  0
   -1.6075   -0.1548    0.3051 C   0  0  0  0  0  0  0  0  0  0  0  0
   -2.5851   -1.1286    0.6806 C   0  0  0  0  0  0  0  0  0  0  0  0
   -2.2198   -2.2343    1.3776 O   0  0  0  0  0  0  0  0  0  0  0  0
   -2.8217   -3.4716    1.2614 C   0  0  0  0  0  0  0  0  0  0  0  0
   -3.9295   -0.9543    0.2919 C   0  0  0  0  0  0  0  0  0  0  0  0
   -0.2218   -0.2260    0.6857 C   0  0  0  0  0  0  0  0  0  0  0  0
    0.2814   -1.3478    1.5872 C   0  0  0  0  0  0  0  0  0  0  0  0
    0.6594    0.7463    0.2429 N   0  3  0  0  0  0  0  0  0  0  0  0
    0.2406    1.7709   -0.5716 C   0  0  0  0  0  0  0  0  0  0  0  0
    1.2161    2.7988   -1.0982 C   0  0  0  0  0  0  0  0  0  0  0  0
   -1.0995    1.8743   -0.9372 C   0  0  0  0  0  0  0  0  0  0  0  0
    2.0430    0.7246    0.6621 C   0  0  0  0  0  0  0  0  0  0  0  0
    2.4150    1.4775    1.7855 C   0  0  0  0  0  0  0  0  0  0  0  0
    3.7363    1.4863    2.2297 C   0  0  0  0  0  0  0  0  0  0  0  0
    4.7081    0.7459    1.5579 C   0  0  0  0  0  0  0  0  0  0  0  0
    4.3628   -0.0148    0.4311 C   0  0  0  0  0  0  0  0  0  0  0  0
    3.0190   -0.0332   -0.0271 C   0  0  0  0  0  0  0  0  0  0  0  0
    2.6900   -0.8023   -1.1592 C   0  0  0  0  0  0  0  0  0  0  0  0
    3.6782   -1.5369   -1.8220 C   0  0  0  0  0  0  0  0  0  0  0  0
    4.9986   -1.5137   -1.3671 C   0  0  0  0  0  0  0  0  0  0  0  0
    5.3421   -0.7571   -0.2453 C   0  0  0  0  0  0  0  0  0  0  0  0
   -7.2666    0.9987   -1.7655 H   0  0  0  0  0  0  0  0  0  0  0  0
   -5.9936    2.1948   -1.3282 H   0  0  0  0  0  0  0  0  0  0  0  0
   -5.7265    1.0230   -2.7001 H   0  0  0  0  0  0  0  0  0  0  0  0
   -3.6624    1.9167   -1.4931 H   0  0  0  0  0  0  0  0  0  0  0  0
   -2.7485   -3.8133    0.2048 H   0  0  0  0  0  0  0  0  0  0  0  0
   -3.8807   -3.4523    1.5845 H   0  0  0  0  0  0  0  0  0  0  0  0
   -2.2758   -4.1986    1.8954 H   0  0  0  0  0  0  0  0  0  0  0  0
   -4.6838   -1.6712    0.5824 H   0  0  0  0  0  0  0  0  0  0  0  0
    0.1423   -2.3287    1.0885 H   0  0  0  0  0  0  0  0  0  0  0  0
    1.3559   -1.2984    1.8411 H   0  0  0  0  0  0  0  0  0  0  0  0
   -0.2584   -1.3176    2.5574 H   0  0  0  0  0  0  0  0  0  0  0  0
    1.9969    2.2857   -1.7000 H   0  0  0  0  0  0  0  0  0  0  0  0
    0.7223    3.5449   -1.7562 H   0  0  0  0  0  0  0  0  0  0  0  0
    1.6969    3.3413   -0.2596 H   0  0  0  0  0  0  0  0  0  0  0  0
   -1.4216    2.6929   -1.5717 H   0  0  0  0  0  0  0  0  0  0  0  0
    1.6696    2.0562    2.3166 H   0  0  0  0  0  0  0  0  0  0  0  0
    4.0074    2.0707    3.0994 H   0  0  0  0  0  0  0  0  0  0  0  0
    5.7303    0.7661    1.9168 H   0  0  0  0  0  0  0  0  0  0  0  0
    1.6744   -0.8361   -1.5326 H   0  0  0  0  0  0  0  0  0  0  0  0
    3.4201   -2.1259   -2.6924 H   0  0  0  0  0  0  0  0  0  0  0  0
    5.7590   -2.0836   -1.8854 H   0  0  0  0  0  0  0  0  0  0  0  0
    6.3710   -0.7492    0.0952 H   0  0  0  0  0  0  0  0  0  0  0  0
  1 27  1  0  0  0  0
  1 28  1  0  0  0  0
  1 29  1  0  0  0  0
  2  1  1  0  0  0  0
  3  2  1  0  0  0  0
  4  3  2  0  0  0  0
  4 30  1  0  0  0  0
  5  4  1  0  0  0  0
  6  5  2  0  0  0  0
  7  6  1  0  0  0  0
  8  7  1  0  0  0  0
  9  8  1  0  0  0  0
  9 31  1  0  0  0  0
  9 32  1  0  0  0  0
  9 33  1  0  0  0  0
 10  7  2  0  0  0  0
 10  3  1  0  0  0  0
 10 34  1  0  0  0  0
 11  6  1  0  0  0  0
 12 11  1  0  0  0  0
 12 35  1  0  0  0  0
 12 36  1  0  0  0  0
 12 37  1  0  0  0  0
 13 11  2  0  0  0  0
 14 13  1  0  0  0  0
 15 14  1  0  0  0  0
 15 38  1  0  0  0  0
 15 39  1  0  0  0  0
 15 40  1  0  0  0  0
 16 14  2  0  0  0  0
 16  5  1  0  0  0  0
 16 41  1  0  0  0  0
 17 13  1  0  0  0  0
 18 17  2  0  0  0  0
 18 42  1  0  0  0  0
 19 18  1  0  0  0  0
 19 43  1  0  0  0  0
 20 19  2  0  0  0  0
 20 44  1  0  0  0  0
 21 20  1  0  0  0  0
 22 21  2  0  0  0  0
 22 17  1  0  0  0  0
 23 22  1  0  0  0  0
 23 45  1  0  0  0  0
 24 23  2  0  0  0  0
 24 46  1  0  0  0  0
 25 24  1  0  0  0  0
 25 47  1  0  0  0  0
 26 25  2  0  0  0  0
 26 21  1  0  0  0  0
 26 48  1  0  0  0  0
M  CHG  1  13   1
M  END
>  <MOL Chiral Flag>
0

>  <energy>
135.87350217529493

$$$$
> 626_AKC_s-2006-951726
>608.sdf
 OpenBabel10102219433D

 72 78  0  0  1  0  0  0  0  0999 V2000
    4.1574    0.7661   -2.4862 O   0  0  0  0  0  0  0  0  0  0  0  0
    3.0741   -0.0767   -2.1139 C   0  0  2  0  0  0  0  0  0  0  0  0
    2.7794   -1.0876   -3.2796 C   0  0  1  0  0  0  0  0  0  0  0  0
    4.0562   -1.8384   -3.6995 C   0  0  2  0  0  0  0  0  0  0  0  0
    5.1627   -0.8328   -4.0011 C   0  0  1  0  0  0  0  0  0  0  0  0
    5.3544    0.0570   -2.7572 C   0  0  1  0  0  0  0  0  0  0  0  0
    2.0071    0.8260   -1.8247 O   0  0  0  0  0  0  0  0  0  0  0  0
    0.7282    0.2595   -1.6120 C   0  0  2  0  0  0  0  0  0  0  0  0
    0.1712   -0.0495   -2.8443 O   0  0  0  0  0  0  0  0  0  0  0  0
   -1.1408   -0.3381   -3.0325 C   0  0  0  0  0  0  0  0  0  0  0  0
   -2.0674    0.0220   -2.1238 C   0  0  0  0  0  0  0  0  0  0  0  0
   -1.6447    0.7882   -0.8845 C   0  0  2  0  0  0  0  0  0  0  0  0
   -0.1768    1.3162   -0.9375 C   0  0  1  0  0  0  0  0  0  0  0  0
    0.3272    1.7357    0.4946 C   0  0  2  0  0  0  0  0  0  0  0  0
    0.1637    0.6441    1.3555 O   0  0  0  0  0  0  0  0  0  0  0  0
   -1.2311    0.6694    1.6208 C   0  0  1  0  0  0  0  0  0  0  0  0
   -1.6656    2.1152    1.6918 N   0  3  2  0  0  0  0  0  0  0  0  0
   -0.4716    2.8169    1.2170 C   0  0  0  0  0  0  0  0  0  0  0  0
   -1.8988   -0.0406    0.4089 C   0  0  0  0  0  0  0  0  0  0  0  0
   -1.4869   -0.0683    2.9216 C   0  0  0  0  0  0  0  0  0  0  0  0
   -1.6729   -1.4649    3.0864 N   0  3  0  0  0  0  0  0  0  0  0  0
   -2.0281   -1.6515    4.4323 C   0  0  0  0  0  0  0  0  0  0  0  0
   -2.0430   -0.4426    5.0801 C   0  0  0  0  0  0  0  0  0  0  0  0
   -1.6676    0.5646    4.0821 C   0  0  0  0  0  0  0  0  0  0  0  0
   -1.5516    2.0447    4.2017 C   0  0  0  0  0  0  0  0  0  0  0  0
   -2.2364    2.6315    2.9716 C   0  0  0  0  0  0  0  0  0  0  0  0
   -2.3515   -2.8396    5.0814 C   0  0  0  0  0  0  0  0  0  0  0  0
   -2.7024   -2.7702    6.4432 C   0  0  0  0  0  0  0  0  0  0  0  0
   -2.7190   -1.5248    7.1142 C   0  0  0  0  0  0  0  0  0  0  0  0
   -2.3843   -0.3417    6.4269 C   0  0  0  0  0  0  0  0  0  0  0  0
    1.7958   -2.0320   -2.9344 O   0  0  0  0  0  0  0  0  0  0  0  0
    3.8121   -2.6212   -4.8404 O   0  0  0  0  0  0  0  0  0  0  0  0
    6.3456   -1.5285   -4.3082 O   0  0  0  0  0  0  0  0  0  0  0  0
    6.4701    1.0827   -2.9964 C   0  0  0  0  0  0  0  0  0  0  0  0
    6.6248    1.8820   -1.8568 O   0  0  0  0  0  0  0  0  0  0  0  0
   -3.5066   -0.2991   -2.3344 C   0  0  0  0  0  0  0  0  0  0  0  0
   -3.8588   -0.9504   -3.3094 O   0  0  0  0  0  0  0  0  0  0  0  0
   -4.4283    0.1632   -1.4498 O   0  0  0  0  0  0  0  0  0  0  0  0
   -5.7800   -0.0812   -1.5573 C   0  0  0  0  0  0  0  0  0  0  0  0
   -2.2692    1.6998   -0.8846 H   0  0  0  0  0  0  0  0  0  0  0  0
   -0.1504    2.2001   -1.6153 H   0  0  0  0  0  0  0  0  0  0  0  0
    3.3463   -0.6196   -1.1794 H   0  0  0  0  0  0  0  0  0  0  0  0
    2.4273   -0.5001   -4.1564 H   0  0  0  0  0  0  0  0  0  0  0  0
    4.4095   -2.4844   -2.8594 H   0  0  0  0  0  0  0  0  0  0  0  0
    4.8409   -0.1996   -4.8656 H   0  0  0  0  0  0  0  0  0  0  0  0
    5.6522   -0.5594   -1.8768 H   0  0  0  0  0  0  0  0  0  0  0  0
    0.7741   -0.6438   -0.9614 H   0  0  0  0  0  0  0  0  0  0  0  0
   -1.4324   -0.8508   -3.9435 H   0  0  0  0  0  0  0  0  0  0  0  0
    1.3888    2.0586    0.4266 H   0  0  0  0  0  0  0  0  0  0  0  0
   -2.4325    2.3229    1.0202 H   0  0  0  0  0  0  0  0  0  0  0  0
    0.1430    3.1232    2.0940 H   0  0  0  0  0  0  0  0  0  0  0  0
   -0.6854    3.7213    0.6066 H   0  0  0  0  0  0  0  0  0  0  0  0
   -1.4362   -1.0464    0.3002 H   0  0  0  0  0  0  0  0  0  0  0  0
   -2.9881   -0.1709    0.5767 H   0  0  0  0  0  0  0  0  0  0  0  0
   -2.0020    2.4085    5.1497 H   0  0  0  0  0  0  0  0  0  0  0  0
   -0.4809    2.3321    4.1801 H   0  0  0  0  0  0  0  0  0  0  0  0
   -3.3119    2.3375    3.0319 H   0  0  0  0  0  0  0  0  0  0  0  0
   -2.2078    3.7436    2.9913 H   0  0  0  0  0  0  0  0  0  0  0  0
    6.1985    1.7219   -3.8676 H   0  0  0  0  0  0  0  0  0  0  0  0
    7.4267    0.5536   -3.2043 H   0  0  0  0  0  0  0  0  0  0  0  0
   -1.6060   -2.1935    2.3633 H   0  0  0  0  0  0  0  0  0  0  0  0
    6.7871   -1.0440   -5.0545 H   0  0  0  0  0  0  0  0  0  0  0  0
    7.3354    2.5392   -2.0766 H   0  0  0  0  0  0  0  0  0  0  0  0
   -6.3055    0.4248   -0.7213 H   0  0  0  0  0  0  0  0  0  0  0  0
   -5.9767   -1.1725   -1.4955 H   0  0  0  0  0  0  0  0  0  0  0  0
   -6.1681    0.3208   -2.5175 H   0  0  0  0  0  0  0  0  0  0  0  0
    2.1119   -2.5126   -2.1246 H   0  0  0  0  0  0  0  0  0  0  0  0
    3.3976   -3.4675   -4.5287 H   0  0  0  0  0  0  0  0  0  0  0  0
   -2.9939   -1.4802    8.1602 H   0  0  0  0  0  0  0  0  0  0  0  0
   -2.3990    0.6159    6.9303 H   0  0  0  0  0  0  0  0  0  0  0  0
   -2.3402   -3.7846    4.5552 H   0  0  0  0  0  0  0  0  0  0  0  0
   -2.9647   -3.6738    6.9781 H   0  0  0  0  0  0  0  0  0  0  0  0
  1  2  1  0  0  0  0
  1  6  1  0  0  0  0
  2  7  1  0  0  0  0
  2  3  1  0  0  0  0
  2 42  1  1  0  0  0
  3  4  1  0  0  0  0
  3 31  1  0  0  0  0
  3 43  1  6  0  0  0
  4  5  1  0  0  0  0
  4 32  1  0  0  0  0
  4 44  1  1  0  0  0
  5  6  1  0  0  0  0
  5 33  1  0  0  0  0
  5 45  1  6  0  0  0
  6 34  1  0  0  0  0
  6 46  1  1  0  0  0
  8  7  1  0  0  0  0
  8 13  1  0  0  0  0
  8  9  1  0  0  0  0
  8 47  1  1  0  0  0
  9 10  1  0  0  0  0
 10 11  2  0  0  0  0
 11 12  1  0  0  0  0
 11 36  1  0  0  0  0
 12 19  1  0  0  0  0
 12 13  1  0  0  0  0
 12 40  1  1  0  0  0
 13 14  1  0  0  0  0
 13 41  1  6  0  0  0
 14 18  1  0  0  0  0
 14 15  1  0  0  0  0
 14 49  1  6  0  0  0
 16 15  1  6  0  0  0
 16 20  1  0  0  0  0
 16 17  1  0  0  0  0
 16 19  1  0  0  0  0
 17 26  1  0  0  0  0
 17 18  1  0  0  0  0
 17 50  1  6  0  0  0
 20 21  1  0  0  0  0
 20 24  2  0  0  0  0
 22 21  1  0  0  0  0
 22 27  1  0  0  0  0
 22 23  2  0  0  0  0
 23 30  1  0  0  0  0
 23 24  1  0  0  0  0
 24 25  1  0  0  0  0
 25 26  1  0  0  0  0
 27 28  2  0  0  0  0
 27 71  1  0  0  0  0
 28 29  1  0  0  0  0
 28 72  1  0  0  0  0
 29 30  2  0  0  0  0
 29 69  1  0  0  0  0
 30 70  1  0  0  0  0
 34 35  1  0  0  0  0
 36 37  2  0  0  0  0
 36 38  1  0  0  0  0
 38 39  1  0  0  0  0
 48 10  1  0  0  0  0
 51 18  1  0  0  0  0
 52 18  1  0  0  0  0
 53 19  1  0  0  0  0
 54 19  1  0  0  0  0
 55 25  1  0  0  0  0
 56 25  1  0  0  0  0
 57 26  1  0  0  0  0
 58 26  1  0  0  0  0
 59 34  1  0  0  0  0
 60 34  1  0  0  0  0
 61 21  1  0  0  0  0
 62 33  1  0  0  0  0
 63 35  1  0  0  0  0
 64 39  1  0  0  0  0
 65 39  1  0  0  0  0
 66 39  1  0  0  0  0
 67 31  1  0  0  0  0
 68 32  1  0  0  0  0
M  CHG  2  17   1  21   1
M  END
>  <MOL Chiral Flag>
1

$$$$
> 627_AKC_s-2006-951726
>608_2.sdf
 OpenBabel10102219433D

 72 78  0  0  1  0  0  0  0  0999 V2000
    4.1435    0.7341   -2.5338 O   0  0  0  0  0  0  0  0  0  0  0  0
    3.0309   -0.0930   -2.2196 C   0  0  2  0  0  0  0  0  0  0  0  0
    2.7979   -1.1239   -3.3710 C   0  0  1  0  0  0  0  0  0  0  0  0
    4.0878   -1.9058   -3.6729 C   0  0  2  0  0  0  0  0  0  0  0  0
    5.2237   -0.9195   -3.9353 C   0  0  1  0  0  0  0  0  0  0  0  0
    5.3487    0.0120   -2.7128 C   0  0  1  0  0  0  0  0  0  0  0  0
    1.9505    0.8130   -2.0764 O   0  0  0  0  0  0  0  0  0  0  0  0
    0.6978    0.2577   -1.7257 C   0  0  2  0  0  0  0  0  0  0  0  0
    0.0274   -0.0634   -2.8875 O   0  0  0  0  0  0  0  0  0  0  0  0
   -1.3092   -0.2736   -2.9486 C   0  0  0  0  0  0  0  0  0  0  0  0
   -2.1514    0.1787   -1.9854 C   0  0  0  0  0  0  0  0  0  0  0  0
   -1.5995    0.9865   -0.7977 C   0  0  2  0  0  0  0  0  0  0  0  0
   -0.0949    1.3541   -1.0060 C   0  0  1  0  0  0  0  0  0  0  0  0
    0.5599    1.7146    0.3462 C   0  0  2  0  0  0  0  0  0  0  0  0
    0.4299    0.5807    1.2214 O   0  0  0  0  0  0  0  0  0  0  0  0
   -0.8686    0.7794    1.7253 C   0  0  1  0  0  0  0  0  0  0  0  0
   -0.8172    2.2023    2.1269 N   0  3  1  0  0  0  0  0  0  0  0  0
   -0.2067    2.8794    1.0085 C   0  0  0  0  0  0  0  0  0  0  0  0
   -1.8426    0.3021    0.5738 C   0  0  0  0  0  0  0  0  0  0  0  0
   -1.2646   -0.0143    2.9695 C   0  0  0  0  0  0  0  0  0  0  0  0
   -1.2365   -1.4217    3.1411 N   0  3  0  0  0  0  0  0  0  0  0  0
   -1.7567   -1.6689    4.4266 C   0  0  0  0  0  0  0  0  0  0  0  0
   -2.0838   -0.4811    5.0318 C   0  0  0  0  0  0  0  0  0  0  0  0
   -1.8040    0.5739    4.0611 C   0  0  0  0  0  0  0  0  0  0  0  0
   -2.1025    2.0521    4.1845 C   0  0  0  0  0  0  0  0  0  0  0  0
   -2.0148    2.7227    2.7871 C   0  0  0  0  0  0  0  0  0  0  0  0
   -1.9590   -2.8915    5.0630 C   0  0  0  0  0  0  0  0  0  0  0  0
   -2.4923   -2.8766    6.3683 C   0  0  0  0  0  0  0  0  0  0  0  0
   -2.8038   -1.6494    6.9998 C   0  0  0  0  0  0  0  0  0  0  0  0
   -2.6035   -0.4331    6.3227 C   0  0  0  0  0  0  0  0  0  0  0  0
    1.7652   -2.0297   -3.0724 O   0  0  0  0  0  0  0  0  0  0  0  0
    3.9107   -2.7268   -4.7985 O   0  0  0  0  0  0  0  0  0  0  0  0
    6.4166   -1.6336   -4.1449 O   0  0  0  0  0  0  0  0  0  0  0  0
    6.4803    1.0277   -2.9231 C   0  0  0  0  0  0  0  0  0  0  0  0
    6.5741    1.8656   -1.8046 O   0  0  0  0  0  0  0  0  0  0  0  0
   -3.6082   -0.1179   -2.1195 C   0  0  0  0  0  0  0  0  0  0  0  0
   -4.0096   -0.7712   -3.0747 O   0  0  0  0  0  0  0  0  0  0  0  0
   -4.4914    0.3329   -1.1934 O   0  0  0  0  0  0  0  0  0  0  0  0
   -5.8449    0.0722   -1.2820 C   0  0  0  0  0  0  0  0  0  0  0  0
   -2.1443    1.9520   -0.7471 H   0  0  0  0  0  0  0  0  0  0  0  0
   -0.0680    2.2298   -1.6965 H   0  0  0  0  0  0  0  0  0  0  0  0
    3.2259   -0.5995   -1.2454 H   0  0  0  0  0  0  0  0  0  0  0  0
    2.5182   -0.5530   -4.2840 H   0  0  0  0  0  0  0  0  0  0  0  0
    4.3741   -2.5244   -2.7880 H   0  0  0  0  0  0  0  0  0  0  0  0
    4.9625   -0.3126   -4.8384 H   0  0  0  0  0  0  0  0  0  0  0  0
    5.5911   -0.5744   -1.7959 H   0  0  0  0  0  0  0  0  0  0  0  0
    0.7765   -0.6352   -1.0631 H   0  0  0  0  0  0  0  0  0  0  0  0
   -1.6936   -0.8117   -3.8090 H   0  0  0  0  0  0  0  0  0  0  0  0
    1.6265    1.9959    0.2118 H   0  0  0  0  0  0  0  0  0  0  0  0
   -0.0568    2.2597    2.8565 H   0  0  0  0  0  0  0  0  0  0  0  0
    0.4860    3.6756    1.3694 H   0  0  0  0  0  0  0  0  0  0  0  0
   -0.9495    3.3750    0.3499 H   0  0  0  0  0  0  0  0  0  0  0  0
   -1.6224   -0.7801    0.4344 H   0  0  0  0  0  0  0  0  0  0  0  0
   -2.9130    0.3869    0.8605 H   0  0  0  0  0  0  0  0  0  0  0  0
   -3.1126    2.2364    4.6044 H   0  0  0  0  0  0  0  0  0  0  0  0
   -1.3471    2.4751    4.8841 H   0  0  0  0  0  0  0  0  0  0  0  0
   -2.9087    2.4722    2.1768 H   0  0  0  0  0  0  0  0  0  0  0  0
   -1.9672    3.8261    2.9167 H   0  0  0  0  0  0  0  0  0  0  0  0
    6.2595    1.6379   -3.8290 H   0  0  0  0  0  0  0  0  0  0  0  0
    7.4455    0.4913   -3.0597 H   0  0  0  0  0  0  0  0  0  0  0  0
   -0.9296   -2.1248    2.4537 H   0  0  0  0  0  0  0  0  0  0  0  0
    6.9052   -1.1797   -4.8810 H   0  0  0  0  0  0  0  0  0  0  0  0
    7.2939    2.5179   -2.0090 H   0  0  0  0  0  0  0  0  0  0  0  0
   -6.3677    0.5334   -0.4213 H   0  0  0  0  0  0  0  0  0  0  0  0
   -6.0253   -1.0254   -1.2670 H   0  0  0  0  0  0  0  0  0  0  0  0
   -6.2560    0.4971   -2.2240 H   0  0  0  0  0  0  0  0  0  0  0  0
    2.0140   -2.5013   -2.2341 H   0  0  0  0  0  0  0  0  0  0  0  0
    3.4456   -3.5466   -4.4873 H   0  0  0  0  0  0  0  0  0  0  0  0
   -3.2064   -1.6452    8.0049 H   0  0  0  0  0  0  0  0  0  0  0  0
   -2.8483    0.5119    6.7910 H   0  0  0  0  0  0  0  0  0  0  0  0
   -1.7190   -3.8245    4.5712 H   0  0  0  0  0  0  0  0  0  0  0  0
   -2.6641   -3.8077    6.8924 H   0  0  0  0  0  0  0  0  0  0  0  0
  1  2  1  0  0  0  0
  1  6  1  0  0  0  0
  2  7  1  0  0  0  0
  2  3  1  0  0  0  0
  2 42  1  1  0  0  0
  3  4  1  0  0  0  0
  3 31  1  0  0  0  0
  3 43  1  6  0  0  0
  4  5  1  0  0  0  0
  4 32  1  0  0  0  0
  4 44  1  1  0  0  0
  5  6  1  0  0  0  0
  5 33  1  0  0  0  0
  5 45  1  6  0  0  0
  6 34  1  0  0  0  0
  6 46  1  1  0  0  0
  8  7  1  0  0  0  0
  8 13  1  0  0  0  0
  8  9  1  0  0  0  0
  8 47  1  1  0  0  0
  9 10  1  0  0  0  0
 10 11  2  0  0  0  0
 11 12  1  0  0  0  0
 11 36  1  0  0  0  0
 12 19  1  0  0  0  0
 12 13  1  0  0  0  0
 12 40  1  1  0  0  0
 13 14  1  0  0  0  0
 13 41  1  6  0  0  0
 14 18  1  0  0  0  0
 14 15  1  0  0  0  0
 14 49  1  6  0  0  0
 16 15  1  6  0  0  0
 16 20  1  0  0  0  0
 16 17  1  0  0  0  0
 16 19  1  0  0  0  0
 17 26  1  0  0  0  0
 17 18  1  0  0  0  0
 17 50  1  1  0  0  0
 20 21  1  0  0  0  0
 20 24  2  0  0  0  0
 22 21  1  0  0  0  0
 22 27  1  0  0  0  0
 22 23  2  0  0  0  0
 23 30  1  0  0  0  0
 23 24  1  0  0  0  0
 24 25  1  0  0  0  0
 25 26  1  0  0  0  0
 27 28  2  0  0  0  0
 27 71  1  0  0  0  0
 28 29  1  0  0  0  0
 28 72  1  0  0  0  0
 29 30  2  0  0  0  0
 29 69  1  0  0  0  0
 30 70  1  0  0  0  0
 34 35  1  0  0  0  0
 36 37  2  0  0  0  0
 36 38  1  0  0  0  0
 38 39  1  0  0  0  0
 48 10  1  0  0  0  0
 51 18  1  0  0  0  0
 52 18  1  0  0  0  0
 53 19  1  0  0  0  0
 54 19  1  0  0  0  0
 55 25  1  0  0  0  0
 56 25  1  0  0  0  0
 57 26  1  0  0  0  0
 58 26  1  0  0  0  0
 59 34  1  0  0  0  0
 60 34  1  0  0  0  0
 61 21  1  0  0  0  0
 62 33  1  0  0  0  0
 63 35  1  0  0  0  0
 64 39  1  0  0  0  0
 65 39  1  0  0  0  0
 66 39  1  0  0  0  0
 67 31  1  0  0  0  0
 68 32  1  0  0  0  0
M  CHG  2  17   1  21   1
M  END
>  <MOL Chiral Flag>
1

$$$$
> 628_AKC_GE-632R1.1
>609.sdf
 OpenBabel10062215523D

 90 89  0  0  0  0  0  0  0  0999 V2000
   -3.5912  -19.3488   -7.0661 C   0  0  0  0  0  0  0  0  0  0  0  0
   -3.5331  -18.4427   -5.8321 C   0  0  0  0  0  0  0  0  0  0  0  0
   -3.5128  -16.9548   -6.2247 C   0  0  0  0  0  0  0  0  0  0  0  0
   -3.4228  -16.0167   -4.9972 C   0  0  0  0  0  0  0  0  0  0  0  0
   -3.3001  -14.5403   -5.4389 C   0  0  0  0  0  0  0  0  0  0  0  0
   -3.0886  -13.5295   -4.2734 C   0  0  0  0  0  0  0  0  0  0  0  0
   -2.6951  -12.1381   -4.8387 C   0  0  0  0  0  0  0  0  0  0  0  0
   -2.1701  -11.0725   -3.8291 C   0  0  0  0  0  0  0  0  0  0  0  0
   -3.1924  -10.0841   -3.1998 C   0  0  0  0  0  0  0  0  0  0  0  0
   -2.4540   -8.9876   -2.3564 C   0  0  0  0  0  0  0  0  0  0  0  0
   -3.3125   -7.7375   -2.0005 C   0  0  0  0  0  0  0  0  0  0  0  0
   -2.5419   -6.6726   -1.1458 C   0  0  0  0  0  0  0  0  0  0  0  0
   -3.3350   -5.3388   -0.9826 C   0  0  0  0  0  0  0  0  0  0  0  0
   -2.6855   -4.2595   -0.0456 C   0  0  0  0  0  0  0  0  0  0  0  0
   -3.5767   -2.9788    0.0289 C   0  0  0  0  0  0  0  0  0  0  0  0
   -3.2414   -1.8860    1.0971 C   0  0  0  0  0  0  0  0  0  0  0  0
   -1.7998   -0.7815    0.7450 S   0  0  0  0  0  0  0  0  0  0  0  0
   -2.2757    0.6770    1.8267 C   0  0  0  0  0  0  0  0  0  0  0  0
   -1.3591    1.9411    1.6438 C   0  0  1  0  0  0  0  0  0  0  0  0
   -1.5418    2.5846    0.2508 C   0  0  0  0  0  0  0  0  0  0  0  0
   -1.2328    1.6630   -0.7750 O   0  0  0  0  0  0  0  0  0  0  0  0
   -2.0982    1.8533   -1.8713 C   0  0  0  0  0  0  0  0  0  0  0  0
   -1.6274    3.0451    2.7229 C   0  0  0  0  0  0  0  0  0  0  0  0
   -0.6420    4.0678    2.6262 O   0  0  0  0  0  0  0  0  0  0  0  0
   -1.2506    5.6458    3.1470 P   0  0  1  0  0  0  0  0  0  0  0  0
   -1.2995    6.5207    1.8635 O   0  0  0  0  0  0  0  0  0  0  0  0
   -2.8747    5.5908    3.7621 O   0  5  0  0  0  0  0  0  0  0  0  0
   -0.1764    6.4507    4.2977 O   0  0  0  0  0  0  0  0  0  0  0  0
   -0.2770    7.8621    4.1776 C   0  0  0  0  0  0  0  0  0  0  0  0
    0.2458    8.5282    5.4813 C   0  0  0  0  0  0  0  0  0  0  0  0
    0.2764   10.0283    5.5053 N   0  3  0  0  0  0  0  0  0  0  0  0
    1.2570   10.5848    4.5428 C   0  0  0  0  0  0  0  0  0  0  0  0
   -1.0562   10.6115    5.2287 C   0  0  0  0  0  0  0  0  0  0  0  0
    0.6367   10.4825    6.8692 C   0  0  0  0  0  0  0  0  0  0  0  0
   -3.5942  -20.4152   -6.7529 H   0  0  0  0  0  0  0  0  0  0  0  0
   -4.5137  -19.1533   -7.6531 H   0  0  0  0  0  0  0  0  0  0  0  0
   -2.7062  -19.1813   -7.7174 H   0  0  0  0  0  0  0  0  0  0  0  0
   -2.6110  -18.6907   -5.2625 H   0  0  0  0  0  0  0  0  0  0  0  0
   -4.4161  -18.6538   -5.1918 H   0  0  0  0  0  0  0  0  0  0  0  0
   -4.4302  -16.7163   -6.8062 H   0  0  0  0  0  0  0  0  0  0  0  0
   -2.6274  -16.7851   -6.8771 H   0  0  0  0  0  0  0  0  0  0  0  0
   -2.5145  -16.2905   -4.4163 H   0  0  0  0  0  0  0  0  0  0  0  0
   -4.3153  -16.1542   -4.3499 H   0  0  0  0  0  0  0  0  0  0  0  0
   -4.1948  -14.2467   -6.0301 H   0  0  0  0  0  0  0  0  0  0  0  0
   -2.4117  -14.4906   -6.1068 H   0  0  0  0  0  0  0  0  0  0  0  0
   -2.2356  -13.8966   -3.6617 H   0  0  0  0  0  0  0  0  0  0  0  0
   -3.9905  -13.4731   -3.6277 H   0  0  0  0  0  0  0  0  0  0  0  0
   -1.8212  -12.3540   -5.4931 H   0  0  0  0  0  0  0  0  0  0  0  0
   -3.4877  -11.7132   -5.4924 H   0  0  0  0  0  0  0  0  0  0  0  0
   -1.5313  -11.5605   -3.0623 H   0  0  0  0  0  0  0  0  0  0  0  0
   -1.5068  -10.4153   -4.4342 H   0  0  0  0  0  0  0  0  0  0  0  0
   -3.9445  -10.6144   -2.5769 H   0  0  0  0  0  0  0  0  0  0  0  0
   -3.7215   -9.5880   -4.0425 H   0  0  0  0  0  0  0  0  0  0  0  0
   -1.5956   -8.6044   -2.9501 H   0  0  0  0  0  0  0  0  0  0  0  0
   -2.0515   -9.4623   -1.4357 H   0  0  0  0  0  0  0  0  0  0  0  0
   -3.6220   -7.2685   -2.9599 H   0  0  0  0  0  0  0  0  0  0  0  0
   -4.2275   -8.0495   -1.4526 H   0  0  0  0  0  0  0  0  0  0  0  0
   -2.3339   -7.1142   -0.1470 H   0  0  0  0  0  0  0  0  0  0  0  0
   -1.5720   -6.4345   -1.6329 H   0  0  0  0  0  0  0  0  0  0  0  0
   -3.4709   -4.8974   -1.9938 H   0  0  0  0  0  0  0  0  0  0  0  0
   -4.3385   -5.5856   -0.5735 H   0  0  0  0  0  0  0  0  0  0  0  0
   -1.6673   -3.9899   -0.3979 H   0  0  0  0  0  0  0  0  0  0  0  0
   -2.6039   -4.6990    0.9724 H   0  0  0  0  0  0  0  0  0  0  0  0
   -4.5933   -3.3394    0.2981 H   0  0  0  0  0  0  0  0  0  0  0  0
   -3.6450   -2.5058   -0.9748 H   0  0  0  0  0  0  0  0  0  0  0  0
   -4.1264   -1.2146    1.1078 H   0  0  0  0  0  0  0  0  0  0  0  0
   -3.1384   -2.3537    2.0984 H   0  0  0  0  0  0  0  0  0  0  0  0
   -2.1781    0.3351    2.8791 H   0  0  0  0  0  0  0  0  0  0  0  0
   -3.3287    0.9755    1.6341 H   0  0  0  0  0  0  0  0  0  0  0  0
   -0.3066    1.6062    1.7708 H   0  0  0  0  0  0  0  0  0  0  0  0
   -0.8620    3.4585    0.1453 H   0  0  0  0  0  0  0  0  0  0  0  0
   -2.5929    2.9643    0.2016 H   0  0  0  0  0  0  0  0  0  0  0  0
   -1.8055    1.1497   -2.6760 H   0  0  0  0  0  0  0  0  0  0  0  0
   -2.0108    2.8849   -2.2798 H   0  0  0  0  0  0  0  0  0  0  0  0
   -3.1496    1.6124   -1.5946 H   0  0  0  0  0  0  0  0  0  0  0  0
   -1.5589    2.5991    3.7379 H   0  0  0  0  0  0  0  0  0  0  0  0
   -2.6609    3.4288    2.5703 H   0  0  0  0  0  0  0  0  0  0  0  0
    0.3400    8.1909    3.3159 H   0  0  0  0  0  0  0  0  0  0  0  0
   -1.3348    8.1728    4.0346 H   0  0  0  0  0  0  0  0  0  0  0  0
    1.2736    8.1406    5.6690 H   0  0  0  0  0  0  0  0  0  0  0  0
   -0.3958    8.1590    6.3142 H   0  0  0  0  0  0  0  0  0  0  0  0
    2.2749   10.1727    4.7241 H   0  0  0  0  0  0  0  0  0  0  0  0
    1.3239   11.6936    4.6394 H   0  0  0  0  0  0  0  0  0  0  0  0
    0.9732   10.3632    3.4932 H   0  0  0  0  0  0  0  0  0  0  0  0
   -1.3795   10.4156    4.1848 H   0  0  0  0  0  0  0  0  0  0  0  0
   -1.8227   10.2058    5.9255 H   0  0  0  0  0  0  0  0  0  0  0  0
   -1.0395   11.7202    5.3504 H   0  0  0  0  0  0  0  0  0  0  0  0
    1.6526   10.1342    7.1636 H   0  0  0  0  0  0  0  0  0  0  0  0
    1.6526   10.1342    7.1636 H   0  0  0  0  0  0  0  0  0  0  0  0
    1.6526   10.1342    7.1636 H   0  0  0  0  0  0  0  0  0  0  0  0
  1 35  1  0  0  0  0
  1 36  1  0  0  0  0
  1 37  1  0  0  0  0
  2  1  1  0  0  0  0
  2 38  1  0  0  0  0
  2 39  1  0  0  0  0
  3  2  1  0  0  0  0
  3 40  1  0  0  0  0
  3 41  1  0  0  0  0
  4  3  1  0  0  0  0
  4 42  1  0  0  0  0
  4 43  1  0  0  0  0
  5  4  1  0  0  0  0
  5 44  1  0  0  0  0
  5 45  1  0  0  0  0
  6  5  1  0  0  0  0
  6 46  1  0  0  0  0
  6 47  1  0  0  0  0
  7  6  1  0  0  0  0
  7 48  1  0  0  0  0
  7 49  1  0  0  0  0
  8  7  1  0  0  0  0
  8 50  1  0  0  0  0
  8 51  1  0  0  0  0
  9  8  1  0  0  0  0
  9 52  1  0  0  0  0
  9 53  1  0  0  0  0
 10  9  1  0  0  0  0
 10 54  1  0  0  0  0
 10 55  1  0  0  0  0
 11 10  1  0  0  0  0
 11 56  1  0  0  0  0
 11 57  1  0  0  0  0
 12 11  1  0  0  0  0
 12 58  1  0  0  0  0
 12 59  1  0  0  0  0
 13 12  1  0  0  0  0
 13 60  1  0  0  0  0
 13 61  1  0  0  0  0
 14 13  1  0  0  0  0
 14 62  1  0  0  0  0
 14 63  1  0  0  0  0
 15 14  1  0  0  0  0
 15 64  1  0  0  0  0
 15 65  1  0  0  0  0
 16 15  1  0  0  0  0
 16 66  1  0  0  0  0
 16 67  1  0  0  0  0
 17 16  1  0  0  0  0
 18 17  1  0  0  0  0
 18 68  1  0  0  0  0
 18 69  1  0  0  0  0
 19 18  1  0  0  0  0
 19 70  1  1  0  0  0
 20 19  1  0  0  0  0
 20 71  1  0  0  0  0
 20 72  1  0  0  0  0
 21 20  1  0  0  0  0
 22 21  1  0  0  0  0
 22 73  1  0  0  0  0
 22 74  1  0  0  0  0
 22 75  1  0  0  0  0
 23 19  1  0  0  0  0
 23 76  1  0  0  0  0
 23 77  1  0  0  0  0
 24 23  1  0  0  0  0
 25 24  1  6  0  0  0
 26 25  2  0  0  0  0
 27 25  1  0  0  0  0
 28 25  1  0  0  0  0
 29 28  1  0  0  0  0
 29 78  1  0  0  0  0
 29 79  1  0  0  0  0
 30 29  1  0  0  0  0
 30 80  1  0  0  0  0
 30 81  1  0  0  0  0
 31 30  1  0  0  0  0
 32 31  1  0  0  0  0
 32 82  1  0  0  0  0
 32 83  1  0  0  0  0
 32 84  1  0  0  0  0
 33 31  1  0  0  0  0
 33 85  1  0  0  0  0
 33 86  1  0  0  0  0
 33 87  1  0  0  0  0
 34 31  1  0  0  0  0
 34 88  1  0  0  0  0
 34 89  1  0  0  0  0
 34 90  1  0  0  0  0
M  CHG  2  27  -1  31   1
M  END
>  <MOL Chiral Flag>
0

>  <energy>
-108.09022101987389

$$$$
> 629_AKC_j.ejmech.2006.03.033
>610.sdf
 OpenBabel10062215533D

 80 83  0  0  0  0  0  0  0  0999 V2000
    4.0553    7.1058   -0.9458 C   0  0  0  0  0  0  0  0  0  0  0  0
    4.2264    5.8137   -0.1352 C   0  0  0  0  0  0  0  0  0  0  0  0
    5.6281    5.2319   -0.3898 C   0  0  0  0  0  0  0  0  0  0  0  0
    3.1585    4.7884   -0.5598 C   0  0  0  0  0  0  0  0  0  0  0  0
    2.8440    3.6900    0.4806 C   0  0  0  0  0  0  0  0  0  0  0  0
    1.7923    4.1877    1.5060 C   0  0  0  0  0  0  0  0  0  0  0  0
    0.8897    3.0820    2.1191 C   0  0  1  0  0  0  0  0  0  0  0  0
    0.0102    3.7352    3.2091 C   0  0  0  0  0  0  0  0  0  0  0  0
   -0.0407    2.3330    1.0728 C   0  0  1  0  0  0  0  0  0  0  0  0
   -0.2153    2.8431   -0.4013 C   0  0  0  0  0  0  0  0  0  0  0  0
   -0.4504    1.5712   -1.2420 C   0  0  0  0  0  0  0  0  0  0  0  0
   -0.9694    0.5693   -0.2128 C   0  0  1  0  0  0  0  0  0  0  0  0
   -1.1620   -0.9109   -0.6193 C   0  0  2  0  0  0  0  0  0  0  0  0
   -2.1698   -1.1032   -1.8163 C   0  0  2  0  0  0  0  0  0  0  0  0
   -3.5799   -0.4131   -1.7765 C   0  0  0  0  0  0  0  0  0  0  0  0
   -3.5974    1.0166   -2.1017 N   0  3  0  0  0  0  0  0  0  0  0  0
   -2.4717   -2.5676   -2.0320 C   0  0  0  0  0  0  0  0  0  0  0  0
   -2.2852   -3.5405   -1.1142 C   0  0  0  0  0  0  0  0  0  0  0  0
   -2.6694   -4.9659   -1.4730 C   0  0  0  0  0  0  0  0  0  0  0  0
   -3.6663   -5.4947   -0.4288 C   0  0  1  0  0  0  0  0  0  0  0  0
   -4.0389   -6.8176   -0.7177 O   0  0  0  0  0  0  0  0  0  0  0  0
   -3.0746   -5.3878    0.9911 C   0  0  0  0  0  0  0  0  0  0  0  0
   -2.7206   -3.9245    1.3141 C   0  0  0  0  0  0  0  0  0  0  0  0
   -1.7315   -3.2746    0.2923 C   0  0  1  0  0  0  0  0  0  0  0  0
   -0.3409   -3.9714    0.3693 C   0  0  0  0  0  0  0  0  0  0  0  0
   -1.6389   -1.7264    0.6221 C   0  0  1  0  0  0  0  0  0  0  0  0
   -0.7894   -1.4392    1.9122 C   0  0  0  0  0  0  0  0  0  0  0  0
   -0.6139    0.0610    2.2011 C   0  0  0  0  0  0  0  0  0  0  0  0
    0.0012    0.7820    0.9747 C   0  0  2  0  0  0  0  0  0  0  0  0
    1.4602    0.2740    0.7169 C   0  0  0  0  0  0  0  0  0  0  0  0
    4.8379    7.8441   -0.6701 H   0  0  0  0  0  0  0  0  0  0  0  0
    4.1107    6.9065   -2.0373 H   0  0  0  0  0  0  0  0  0  0  0  0
    3.0663    7.5605   -0.7174 H   0  0  0  0  0  0  0  0  0  0  0  0
    4.1036    6.0832    0.9364 H   0  0  0  0  0  0  0  0  0  0  0  0
    5.7508    4.9953   -1.4724 H   0  0  0  0  0  0  0  0  0  0  0  0
    5.7869    4.2990    0.1878 H   0  0  0  0  0  0  0  0  0  0  0  0
    6.4149    5.9639   -0.1136 H   0  0  0  0  0  0  0  0  0  0  0  0
    3.4855    4.3256   -1.5166 H   0  0  0  0  0  0  0  0  0  0  0  0
    2.2000    5.2956   -0.8062 H   0  0  0  0  0  0  0  0  0  0  0  0
    3.7372    3.2316    0.9573 H   0  0  0  0  0  0  0  0  0  0  0  0
    2.4069    2.8774   -0.1027 H   0  0  0  0  0  0  0  0  0  0  0  0
    1.0802    4.8906    1.0237 H   0  0  0  0  0  0  0  0  0  0  0  0
    2.3286    4.7627    2.2939 H   0  0  0  0  0  0  0  0  0  0  0  0
    1.5272    2.3474    2.6517 H   0  0  0  0  0  0  0  0  0  0  0  0
   -0.6557    4.5060    2.7608 H   0  0  0  0  0  0  0  0  0  0  0  0
    0.6338    4.2179    3.9903 H   0  0  0  0  0  0  0  0  0  0  0  0
   -0.6268    2.9710    3.7060 H   0  0  0  0  0  0  0  0  0  0  0  0
   -1.0802    2.4868    1.4522 H   0  0  0  0  0  0  0  0  0  0  0  0
    0.5823    3.4225   -0.8914 H   0  0  0  0  0  0  0  0  0  0  0  0
   -1.1075    3.5075   -0.4254 H   0  0  0  0  0  0  0  0  0  0  0  0
    0.5171    1.1923   -1.6271 H   0  0  0  0  0  0  0  0  0  0  0  0
   -1.0612    1.7581   -2.1431 H   0  0  0  0  0  0  0  0  0  0  0  0
   -1.9653    0.9165    0.1314 H   0  0  0  0  0  0  0  0  0  0  0  0
   -0.1804   -1.3195   -0.9384 H   0  0  0  0  0  0  0  0  0  0  0  0
   -1.6461   -0.7487   -2.7315 H   0  0  0  0  0  0  0  0  0  0  0  0
   -4.2048   -0.8843   -2.5722 H   0  0  0  0  0  0  0  0  0  0  0  0
   -4.1027   -0.6102   -0.8167 H   0  0  0  0  0  0  0  0  0  0  0  0
   -4.5928    1.3143   -2.2209 H   0  0  0  0  0  0  0  0  0  0  0  0
   -3.1077    1.1847   -3.0104 H   0  0  0  0  0  0  0  0  0  0  0  0
   -3.2093    1.6215   -1.3542 H   0  0  0  0  0  0  0  0  0  0  0  0
   -2.9114   -2.8374   -2.9892 H   0  0  0  0  0  0  0  0  0  0  0  0
   -1.7673   -5.6107   -1.4834 H   0  0  0  0  0  0  0  0  0  0  0  0
   -3.1239   -5.0371   -2.4855 H   0  0  0  0  0  0  0  0  0  0  0  0
   -4.5854   -4.8682   -0.4739 H   0  0  0  0  0  0  0  0  0  0  0  0
   -3.2226   -7.3806   -0.6620 H   0  0  0  0  0  0  0  0  0  0  0  0
   -2.1748   -6.0315    1.0816 H   0  0  0  0  0  0  0  0  0  0  0  0
   -3.8217   -5.7503    1.7304 H   0  0  0  0  0  0  0  0  0  0  0  0
   -2.3181   -3.8708    2.3469 H   0  0  0  0  0  0  0  0  0  0  0  0
   -3.6779   -3.3560    1.2967 H   0  0  0  0  0  0  0  0  0  0  0  0
   -0.3804   -5.0462    0.1144 H   0  0  0  0  0  0  0  0  0  0  0  0
    0.0767   -3.9489    1.3947 H   0  0  0  0  0  0  0  0  0  0  0  0
    0.3784   -3.4967   -0.3299 H   0  0  0  0  0  0  0  0  0  0  0  0
   -2.6611   -1.3399    0.8289 H   0  0  0  0  0  0  0  0  0  0  0  0
    0.2236   -1.8632    1.8253 H   0  0  0  0  0  0  0  0  0  0  0  0
   -1.2604   -1.9151    2.7964 H   0  0  0  0  0  0  0  0  0  0  0  0
    0.0182    0.2119    3.1028 H   0  0  0  0  0  0  0  0  0  0  0  0
   -1.6207    0.4783    2.4251 H   0  0  0  0  0  0  0  0  0  0  0  0
    2.0959    0.4472    1.6085 H   0  0  0  0  0  0  0  0  0  0  0  0
    1.9620    0.7630   -0.1324 H   0  0  0  0  0  0  0  0  0  0  0  0
    1.5108   -0.8066    0.4928 H   0  0  0  0  0  0  0  0  0  0  0  0
  1 31  1  0  0  0  0
  1 32  1  0  0  0  0
  1 33  1  0  0  0  0
  2  1  1  0  0  0  0
  2 34  1  0  0  0  0
  3  2  1  0  0  0  0
  3 35  1  0  0  0  0
  3 36  1  0  0  0  0
  3 37  1  0  0  0  0
  4  2  1  0  0  0  0
  4 38  1  0  0  0  0
  4 39  1  0  0  0  0
  5  4  1  0  0  0  0
  5 40  1  0  0  0  0
  5 41  1  0  0  0  0
  6  5  1  0  0  0  0
  6 42  1  0  0  0  0
  6 43  1  0  0  0  0
  7  6  1  0  0  0  0
  7 44  1  1  0  0  0
  8  7  1  0  0  0  0
  8 45  1  0  0  0  0
  8 46  1  0  0  0  0
  8 47  1  0  0  0  0
  9  7  1  0  0  0  0
  9 48  1  1  0  0  0
 10  9  1  0  0  0  0
 10 49  1  0  0  0  0
 10 50  1  0  0  0  0
 11 10  1  0  0  0  0
 11 51  1  0  0  0  0
 11 52  1  0  0  0  0
 12 11  1  0  0  0  0
 12 53  1  1  0  0  0
 13 12  1  0  0  0  0
 13 54  1  6  0  0  0
 14 13  1  0  0  0  0
 14 55  1  6  0  0  0
 15 14  1  0  0  0  0
 15 56  1  0  0  0  0
 15 57  1  0  0  0  0
 16 15  1  0  0  0  0
 16 58  1  0  0  0  0
 16 59  1  0  0  0  0
 16 60  1  0  0  0  0
 17 14  1  0  0  0  0
 17 61  1  0  0  0  0
 18 17  2  0  0  0  0
 19 18  1  0  0  0  0
 19 62  1  0  0  0  0
 19 63  1  0  0  0  0
 20 19  1  0  0  0  0
 20 64  1  6  0  0  0
 21 20  1  0  0  0  0
 21 65  1  0  0  0  0
 22 20  1  0  0  0  0
 22 66  1  0  0  0  0
 22 67  1  0  0  0  0
 23 22  1  0  0  0  0
 23 68  1  0  0  0  0
 23 69  1  0  0  0  0
 24 23  1  0  0  0  0
 24 18  1  0  0  0  0
 24 25  1  1  0  0  0
 25 70  1  0  0  0  0
 25 71  1  0  0  0  0
 25 72  1  0  0  0  0
 26 24  1  0  0  0  0
 26 13  1  0  0  0  0
 26 73  1  1  0  0  0
 27 26  1  0  0  0  0
 27 74  1  0  0  0  0
 27 75  1  0  0  0  0
 28 27  1  0  0  0  0
 28 76  1  0  0  0  0
 28 77  1  0  0  0  0
 29 28  1  0  0  0  0
 29  9  1  0  0  0  0
 29 12  1  0  0  0  0
 29 30  1  6  0  0  0
 30 78  1  0  0  0  0
 30 79  1  0  0  0  0
 30 80  1  0  0  0  0
M  CHG  1  16   1
M  END
>  <MOL Chiral Flag>
0

>  <energy>
141.87610312140461

$$$$
> 630_AKC_jm060156v
>611.sdf
 OpenBabel10062215533D

 33 34  0  0  0  0  0  0  0  0999 V2000
    2.9151    1.7324   -1.8848 C   0  0  0  0  0  0  0  0  0  0  0  0
    2.8740    0.8223   -0.6884 C   0  0  0  0  0  0  0  0  0  0  0  0
    1.8773   -0.1660   -0.5866 C   0  0  0  0  0  0  0  0  0  0  0  0
    1.8371   -1.0259    0.5225 C   0  0  0  0  0  0  0  0  0  0  0  0
    0.5642   -2.3069    0.6462 S   0  0  0  0  0  0  0  0  0  0  0  0
   -0.9090   -1.2683    0.3470 C   0  0  0  0  0  0  0  0  0  0  0  0
   -1.3840   -0.3526    1.3493 C   0  0  0  0  0  0  0  0  0  0  0  0
   -2.5302    0.4187    1.0789 C   0  0  0  0  0  0  0  0  0  0  0  0
   -3.2292    0.3018   -0.1178 C   0  0  0  0  0  0  0  0  0  0  0  0
   -2.7791   -0.5903   -1.0909 C   0  0  0  0  0  0  0  0  0  0  0  0
   -1.6282   -1.3818   -0.8948 C   0  0  0  0  0  0  0  0  0  0  0  0
   -1.2372   -2.2808   -1.9551 N   0  0  0  0  0  0  0  0  0  0  0  0
   -1.8958   -2.3519   -2.9496 O   0  0  0  0  0  0  0  0  0  0  0  0
   -0.2609   -2.9586   -1.8680 O   0  0  0  0  0  0  0  0  0  0  0  0
   -4.4720    1.1362   -0.3273 C   0  0  0  0  0  0  0  0  0  0  0  0
   -5.3914    0.8439    0.6647 F   0  0  0  0  0  0  0  0  0  0  0  0
   -4.1450    2.4779   -0.2551 F   0  0  0  0  0  0  0  0  0  0  0  0
   -5.0634    0.8929   -1.5550 F   0  0  0  0  0  0  0  0  0  0  0  0
   -0.7550   -0.1937    2.6351 N   0  0  0  0  0  0  0  0  0  0  0  0
    0.0926   -0.9426    3.0035 O   0  0  0  0  0  0  0  0  0  0  0  0
   -1.1420    0.6482    3.3895 O   0  0  0  0  0  0  0  0  0  0  0  0
    2.8185   -0.9052    1.5274 C   0  0  0  0  0  0  0  0  0  0  0  0
    2.8605   -1.9923    2.9130 Cl  0  0  0  0  0  0  0  0  0  0  0  0
    3.8013    0.0821    1.4302 C   0  0  0  0  0  0  0  0  0  0  0  0
    3.8341    0.9469    0.3347 C   0  0  0  0  0  0  0  0  0  0  0  0
    5.0996    2.1696    0.2603 Cl  0  0  0  0  0  0  0  0  0  0  0  0
    3.8863    1.6111   -2.4106 H   0  0  0  0  0  0  0  0  0  0  0  0
    2.8080    2.7883   -1.5586 H   0  0  0  0  0  0  0  0  0  0  0  0
    2.1017    1.5041   -2.6049 H   0  0  0  0  0  0  0  0  0  0  0  0
    1.1375   -0.2685   -1.3703 H   0  0  0  0  0  0  0  0  0  0  0  0
   -2.9021    1.1118    1.8239 H   0  0  0  0  0  0  0  0  0  0  0  0
   -3.3324   -0.6758   -2.0167 H   0  0  0  0  0  0  0  0  0  0  0  0
    4.5490    0.1728    2.2085 H   0  0  0  0  0  0  0  0  0  0  0  0
  1 27  1  0  0  0  0
  1 28  1  0  0  0  0
  1 29  1  0  0  0  0
  2  1  1  0  0  0  0
  3  2  2  0  0  0  0
  3 30  1  0  0  0  0
  4  3  1  0  0  0  0
  5  4  1  0  0  0  0
  6  5  1  0  0  0  0
  7  6  2  0  0  0  0
  8  7  1  0  0  0  0
  8 31  1  0  0  0  0
  9  8  2  0  0  0  0
 10  9  1  0  0  0  0
 10 32  1  0  0  0  0
 11 10  2  0  0  0  0
 11  6  1  0  0  0  0
 12 11  1  0  0  0  0
 13 12  2  0  0  0  0
 14 12  2  0  0  0  0
 15  9  1  0  0  0  0
 16 15  1  0  0  0  0
 17 15  1  0  0  0  0
 18 15  1  0  0  0  0
 19  7  1  0  0  0  0
 20 19  2  0  0  0  0
 21 19  2  0  0  0  0
 22  4  2  0  0  0  0
 23 22  1  0  0  0  0
 24 22  1  0  0  0  0
 24 33  1  0  0  0  0
 25 24  2  0  0  0  0
 25  2  1  0  0  0  0
 26 25  1  0  0  0  0
M  END
>  <MOL Chiral Flag>
0

>  <energy>
106.54584978109246

$$$$
> 631_AKC_LAJOP.2007.0004
>612.sdf
 OpenBabel10062215543D

 34 34  0  0  0  0  0  0  0  0999 V2000
   -2.8979    2.9957   -0.5089 C   0  0  0  0  0  0  0  0  0  0  0  0
   -2.7374    1.8793    0.2850 O   0  0  0  0  0  0  0  0  0  0  0  0
   -1.7020    1.0006    0.1953 C   0  0  0  0  0  0  0  0  0  0  0  0
   -1.9530   -0.3672    0.3994 C   0  0  0  0  0  0  0  0  0  0  0  0
   -3.3607   -0.8279    0.7119 C   0  0  0  0  0  0  0  0  0  0  0  0
   -0.8966   -1.3096    0.2751 C   0  0  0  0  0  0  0  0  0  0  0  0
   -1.1795   -2.7032    0.3924 N   0  0  0  0  0  0  0  0  0  0  0  0
    0.4239   -0.8526   -0.0102 C   0  0  0  0  0  0  0  0  0  0  0  0
    1.4728   -1.7162   -0.1109 O   0  0  0  0  0  0  0  0  0  0  0  0
    1.8138   -2.6659    0.8349 C   0  0  0  0  0  0  0  0  0  0  0  0
    0.6651    0.5295   -0.2062 C   0  0  0  0  0  0  0  0  0  0  0  0
   -0.4035    1.4352   -0.1071 C   0  0  0  0  0  0  0  0  0  0  0  0
    2.0578    1.0862   -0.5130 C   0  0  0  0  0  0  0  0  0  0  0  0
    2.6024    0.5611   -1.8476 C   0  0  0  0  0  0  0  0  0  0  0  0
    3.0489    0.8303    0.6322 C   0  0  0  0  0  0  0  0  0  0  0  0
   -3.0449    2.6721   -1.5622 H   0  0  0  0  0  0  0  0  0  0  0  0
   -3.8102    3.5366   -0.1841 H   0  0  0  0  0  0  0  0  0  0  0  0
   -2.0396    3.6913   -0.4394 H   0  0  0  0  0  0  0  0  0  0  0  0
   -3.3734   -1.3589    1.6868 H   0  0  0  0  0  0  0  0  0  0  0  0
   -4.0903    0.0043    0.7870 H   0  0  0  0  0  0  0  0  0  0  0  0
   -3.7220   -1.5048   -0.0900 H   0  0  0  0  0  0  0  0  0  0  0  0
   -0.4772   -3.4153    0.1655 H   0  0  0  0  0  0  0  0  0  0  0  0
   -2.1257   -3.0461    0.6009 H   0  0  0  0  0  0  0  0  0  0  0  0
    1.1808   -2.5899    1.7460 H   0  0  0  0  0  0  0  0  0  0  0  0
    1.7426   -3.6819    0.3960 H   0  0  0  0  0  0  0  0  0  0  0  0
    2.8681   -2.5100    1.1402 H   0  0  0  0  0  0  0  0  0  0  0  0
   -0.2111    2.4883   -0.2511 H   0  0  0  0  0  0  0  0  0  0  0  0
    1.9916    2.1921   -0.6169 H   0  0  0  0  0  0  0  0  0  0  0  0
    2.7538   -0.5365   -1.8346 H   0  0  0  0  0  0  0  0  0  0  0  0
    1.8980    0.8161   -2.6676 H   0  0  0  0  0  0  0  0  0  0  0  0
    3.5807    1.0383   -2.0712 H   0  0  0  0  0  0  0  0  0  0  0  0
    2.6562    1.2563    1.5798 H   0  0  0  0  0  0  0  0  0  0  0  0
    3.2467   -0.2457    0.7824 H   0  0  0  0  0  0  0  0  0  0  0  0
    4.0218    1.3186    0.4099 H   0  0  0  0  0  0  0  0  0  0  0  0
  1 16  1  0  0  0  0
  1 17  1  0  0  0  0
  1 18  1  0  0  0  0
  2  1  1  0  0  0  0
  3  2  1  0  0  0  0
  4  3  2  0  0  0  0
  5  4  1  0  0  0  0
  5 19  1  0  0  0  0
  5 20  1  0  0  0  0
  5 21  1  0  0  0  0
  6  4  1  0  0  0  0
  7  6  1  0  0  0  0
  7 22  1  0  0  0  0
  7 23  1  0  0  0  0
  8  6  2  0  0  0  0
  9  8  1  0  0  0  0
 10  9  1  0  0  0  0
 10 24  1  0  0  0  0
 10 25  1  0  0  0  0
 10 26  1  0  0  0  0
 11  8  1  0  0  0  0
 12 11  2  0  0  0  0
 12  3  1  0  0  0  0
 12 27  1  0  0  0  0
 13 11  1  0  0  0  0
 13 28  1  0  0  0  0
 14 13  1  0  0  0  0
 14 29  1  0  0  0  0
 14 30  1  0  0  0  0
 14 31  1  0  0  0  0
 15 13  1  0  0  0  0
 15 32  1  0  0  0  0
 15 33  1  0  0  0  0
 15 34  1  0  0  0  0
M  END
>  <MOL Chiral Flag>
0

>  <energy>
51.428609149587146

$$$$
> 632_AKC_j.bmcl.2006.02.012
>613.sdf
 OpenBabel10062215543D

 33 34  0  0  0  0  0  0  0  0999 V2000
    0.5802   -3.1138    0.9712 C   0  0  0  0  0  0  0  0  0  0  0  0
   -0.0928   -2.6638   -0.6467 S   0  0  0  0  0  0  0  0  0  0  0  0
   -0.8768   -1.0751   -0.2332 C   0  0  0  0  0  0  0  0  0  0  0  0
   -0.1410    0.1368   -0.3116 C   0  0  0  0  0  0  0  0  0  0  0  0
   -0.8250    1.3722   -0.2077 C   0  0  0  0  0  0  0  0  0  0  0  0
   -0.0874    2.6778   -0.4406 C   0  0  0  0  0  0  0  0  0  0  0  0
   -2.1983    1.3877    0.1276 C   0  0  0  0  0  0  0  0  0  0  0  0
   -2.8887    2.6410    0.3179 C   0  0  0  0  0  0  0  0  0  0  0  0
   -3.4897    3.6143    0.4835 N   0  0  0  0  0  0  0  0  0  0  0  0
   -2.9079    0.1857    0.3047 C   0  0  0  0  0  0  0  0  0  0  0  0
   -4.2851    0.2122    0.6636 N   0  0  0  0  0  0  0  0  0  0  0  0
   -2.2545   -1.0421    0.0876 C   0  0  0  0  0  0  0  0  0  0  0  0
   -3.0091   -2.2661    0.2243 C   0  0  0  0  0  0  0  0  0  0  0  0
   -3.6717   -3.2056    0.3495 N   0  0  0  0  0  0  0  0  0  0  0  0
    1.3450    0.1283   -0.4449 C   0  0  0  0  0  0  0  0  0  0  0  0
    2.1454    0.3485    0.7024 C   0  0  0  0  0  0  0  0  0  0  0  0
    3.5403    0.3407    0.6012 C   0  0  0  0  0  0  0  0  0  0  0  0
    4.1379    0.1170   -0.6350 C   0  0  0  0  0  0  0  0  0  0  0  0
    5.4797    0.1012   -0.7324 F   0  0  0  0  0  0  0  0  0  0  0  0
    3.3605   -0.0912   -1.7731 C   0  0  0  0  0  0  0  0  0  0  0  0
    1.9654   -0.0842   -1.6805 C   0  0  0  0  0  0  0  0  0  0  0  0
   -0.1870   -3.0485    1.7532 H   0  0  0  0  0  0  0  0  0  0  0  0
    1.4380   -2.4768    1.2169 H   0  0  0  0  0  0  0  0  0  0  0  0
    0.9364   -4.1620    0.9284 H   0  0  0  0  0  0  0  0  0  0  0  0
    0.3316    3.0373    0.5061 H   0  0  0  0  0  0  0  0  0  0  0  0
   -0.7444    3.4595   -0.8691 H   0  0  0  0  0  0  0  0  0  0  0  0
    0.7270    2.5725   -1.1806 H   0  0  0  0  0  0  0  0  0  0  0  0
   -4.6561    1.0414    1.1256 H   0  0  0  0  0  0  0  0  0  0  0  0
   -4.7447   -0.6543    0.9359 H   0  0  0  0  0  0  0  0  0  0  0  0
    1.6921    0.5130    1.6728 H   0  0  0  0  0  0  0  0  0  0  0  0
    4.1662    0.5046    1.4760 H   0  0  0  0  0  0  0  0  0  0  0  0
    3.8442   -0.2631   -2.7274 H   0  0  0  0  0  0  0  0  0  0  0  0
    1.3702   -0.2447   -2.5661 H   0  0  0  0  0  0  0  0  0  0  0  0
  1 22  1  0  0  0  0
  1 23  1  0  0  0  0
  1 24  1  0  0  0  0
  2  1  1  0  0  0  0
  3  2  1  0  0  0  0
  4  3  2  0  0  0  0
  5  4  1  0  0  0  0
  6  5  1  0  0  0  0
  6 25  1  0  0  0  0
  6 26  1  0  0  0  0
  6 27  1  0  0  0  0
  7  5  2  0  0  0  0
  8  7  1  0  0  0  0
  9  8  3  0  0  0  0
 10  7  1  0  0  0  0
 11 10  1  0  0  0  0
 11 28  1  0  0  0  0
 11 29  1  0  0  0  0
 12 10  2  0  0  0  0
 12  3  1  0  0  0  0
 13 12  1  0  0  0  0
 14 13  3  0  0  0  0
 15  4  1  0  0  0  0
 16 15  2  0  0  0  0
 16 30  1  0  0  0  0
 17 16  1  0  0  0  0
 17 31  1  0  0  0  0
 18 17  2  0  0  0  0
 19 18  1  0  0  0  0
 20 18  1  0  0  0  0
 20 32  1  0  0  0  0
 21 20  2  0  0  0  0
 21 15  1  0  0  0  0
 21 33  1  0  0  0  0
M  END
>  <MOL Chiral Flag>
0

>  <energy>
99.675955332517503

$$$$
> 633_AKC_j.bmc.2005.10.005
>614.sdf
 OpenBabel10062215543D

 39 40  0  0  0  0  0  0  0  0999 V2000
    2.6031    5.2624    0.7253 C   0  0  0  0  0  0  0  0  0  0  0  0
    1.4045    4.7267    1.1445 O   0  0  0  0  0  0  0  0  0  0  0  0
    1.2162    3.4442    1.5515 C   0  0  0  0  0  0  0  0  0  0  0  0
    2.2824    2.5593    1.7953 C   0  0  0  0  0  0  0  0  0  0  0  0
    2.0389    1.2140    2.1601 C   0  0  0  0  0  0  0  0  0  0  0  0
    3.0667    0.3496    2.3917 O   0  0  0  0  0  0  0  0  0  0  0  0
    4.4042    0.6925    2.4421 C   0  0  0  0  0  0  0  0  0  0  0  0
    0.7017    0.7483    2.2548 C   0  0  0  0  0  0  0  0  0  0  0  0
    0.4140   -0.7082    2.5165 C   0  0  0  0  0  0  0  0  0  0  0  0
    1.2363   -1.4150    3.0816 O   0  0  0  0  0  0  0  0  0  0  0  0
   -0.8131   -1.3213    1.9406 C   0  0  0  0  0  0  0  0  0  0  0  0
   -1.2235   -2.5846    2.1576 C   0  0  0  0  0  0  0  0  0  0  0  0
   -2.4745   -3.1430    1.5390 C   0  0  0  0  0  0  0  0  0  0  0  0
   -3.3119   -2.3855    0.6794 C   0  0  0  0  0  0  0  0  0  0  0  0
   -4.4813   -2.9369    0.1317 C   0  0  0  0  0  0  0  0  0  0  0  0
   -4.8202   -4.2633    0.4441 C   0  0  0  0  0  0  0  0  0  0  0  0
   -4.0030   -5.0200    1.2862 C   0  0  0  0  0  0  0  0  0  0  0  0
   -2.8395   -4.4670    1.8303 C   0  0  0  0  0  0  0  0  0  0  0  0
   -5.3123   -2.1521   -0.7285 N   0  3  0  0  0  0  0  0  0  0  0  0
   -4.9860   -0.9090   -1.0181 O   0  5  0  0  0  0  0  0  0  0  0  0
   -6.3117   -2.6133   -1.1905 O   0  0  0  0  0  0  0  0  0  0  0  0
   -0.3607    1.6781    2.0687 C   0  0  0  0  0  0  0  0  0  0  0  0
   -1.6478    1.3107    2.2491 O   0  0  0  0  0  0  0  0  0  0  0  0
   -0.0877    3.0011    1.7209 C   0  0  0  0  0  0  0  0  0  0  0  0
    2.4339    6.3125    0.4105 H   0  0  0  0  0  0  0  0  0  0  0  0
    3.3463    5.2513    1.5483 H   0  0  0  0  0  0  0  0  0  0  0  0
    2.9843    4.6936   -0.1509 H   0  0  0  0  0  0  0  0  0  0  0  0
    3.2964    2.9115    1.6848 H   0  0  0  0  0  0  0  0  0  0  0  0
    5.0033   -0.2107    2.6768 H   0  0  0  0  0  0  0  0  0  0  0  0
    4.7429    1.0944    1.4640 H   0  0  0  0  0  0  0  0  0  0  0  0
    4.5753    1.4429    3.2448 H   0  0  0  0  0  0  0  0  0  0  0  0
   -1.3778   -0.7029    1.2809 H   0  0  0  0  0  0  0  0  0  0  0  0
   -0.6380   -3.2240    2.8136 H   0  0  0  0  0  0  0  0  0  0  0  0
   -3.0830   -1.3685    0.4230 H   0  0  0  0  0  0  0  0  0  0  0  0
   -5.7173   -4.7110    0.0364 H   0  0  0  0  0  0  0  0  0  0  0  0
   -4.2753   -6.0407    1.5201 H   0  0  0  0  0  0  0  0  0  0  0  0
   -2.2237   -5.0728    2.4834 H   0  0  0  0  0  0  0  0  0  0  0  0
   -2.3842    1.9300    2.1465 H   0  0  0  0  0  0  0  0  0  0  0  0
   -0.9072    3.6916    1.5617 H   0  0  0  0  0  0  0  0  0  0  0  0
  1 25  1  0  0  0  0
  1 26  1  0  0  0  0
  1 27  1  0  0  0  0
  2  1  1  0  0  0  0
  3  2  1  0  0  0  0
  4  3  2  0  0  0  0
  4 28  1  0  0  0  0
  5  4  1  0  0  0  0
  6  5  1  0  0  0  0
  7  6  1  0  0  0  0
  7 29  1  0  0  0  0
  7 30  1  0  0  0  0
  7 31  1  0  0  0  0
  8  5  2  0  0  0  0
  9  8  1  0  0  0  0
 10  9  2  0  0  0  0
 11  9  1  0  0  0  0
 11 32  1  0  0  0  0
 12 11  2  0  0  0  0
 12 33  1  0  0  0  0
 13 12  1  0  0  0  0
 14 13  2  0  0  0  0
 14 34  1  0  0  0  0
 15 14  1  0  0  0  0
 16 15  2  0  0  0  0
 16 35  1  0  0  0  0
 17 16  1  0  0  0  0
 17 36  1  0  0  0  0
 18 17  2  0  0  0  0
 18 13  1  0  0  0  0
 18 37  1  0  0  0  0
 19 15  1  0  0  0  0
 20 19  1  0  0  0  0
 21 19  2  0  0  0  0
 22  8  1  0  0  0  0
 23 22  1  0  0  0  0
 23 38  1  0  0  0  0
 24 22  2  0  0  0  0
 24  3  1  0  0  0  0
 24 39  1  0  0  0  0
M  CHG  2  19   1  20  -1
M  END
>  <MOL Chiral Flag>
0

>  <energy>
115.53160896918931

$$$$
> 634_AKC_np0502600
>615.sdf
 OpenBabel10062215543D

 44 46  0  0  0  0  0  0  0  0999 V2000
   -3.4816    1.6994    0.9625 C   0  0  0  0  0  0  0  0  0  0  0  0
   -2.7695    1.4088   -0.3386 C   0  0  0  0  0  0  0  0  0  0  0  0
   -2.8704    2.4472   -1.4267 C   0  0  0  0  0  0  0  0  0  0  0  0
   -2.0745    0.2653   -0.5582 C   0  0  0  0  0  0  0  0  0  0  0  0
   -1.9863   -0.8576    0.4514 C   0  0  0  0  0  0  0  0  0  0  0  0
   -1.1967   -2.0332   -0.1005 C   0  0  0  0  0  0  0  0  0  0  0  0
    0.2220   -2.0182   -0.1202 C   0  0  0  0  0  0  0  0  0  0  0  0
    0.9236   -3.1044   -0.6604 C   0  0  0  0  0  0  0  0  0  0  0  0
    0.2412   -4.2028   -1.1765 C   0  0  0  0  0  0  0  0  0  0  0  0
   -1.1574   -4.2322   -1.1714 C   0  0  0  0  0  0  0  0  0  0  0  0
   -1.8129   -5.2961   -1.6822 O   0  0  0  0  0  0  0  0  0  0  0  0
   -1.8817   -3.1497   -0.6368 C   0  0  0  0  0  0  0  0  0  0  0  0
   -3.2339   -3.1643   -0.6523 O   0  0  0  0  0  0  0  0  0  0  0  0
    1.0003   -0.8963    0.4502 C   0  0  0  0  0  0  0  0  0  0  0  0
    1.1403   -0.7871    1.8343 C   0  0  0  0  0  0  0  0  0  0  0  0
    1.8614    0.1888    2.3659 O   0  0  0  0  0  0  0  0  0  0  0  0
    2.4725    1.1140    1.6324 C   0  0  0  0  0  0  0  0  0  0  0  0
    3.2072    2.1043    2.2877 C   0  0  0  0  0  0  0  0  0  0  0  0
    3.8554    3.1003    1.5646 C   0  0  0  0  0  0  0  0  0  0  0  0
    4.5569    4.0479    2.2199 O   0  0  0  0  0  0  0  0  0  0  0  0
    3.7721    3.1135    0.1702 C   0  0  0  0  0  0  0  0  0  0  0  0
    3.0498    2.1346   -0.5243 C   0  0  0  0  0  0  0  0  0  0  0  0
    3.0275    2.2405   -1.8741 O   0  0  0  0  0  0  0  0  0  0  0  0
    2.3817    1.0990    0.2115 C   0  0  0  0  0  0  0  0  0  0  0  0
    1.6284    0.0462   -0.3762 C   0  0  0  0  0  0  0  0  0  0  0  0
    1.5051   -0.0564   -1.5820 O   0  0  0  0  0  0  0  0  0  0  0  0
   -3.3623    0.9116    1.7307 H   0  0  0  0  0  0  0  0  0  0  0  0
   -4.5674    1.8238    0.7689 H   0  0  0  0  0  0  0  0  0  0  0  0
   -3.0849    2.6444    1.3893 H   0  0  0  0  0  0  0  0  0  0  0  0
   -2.3353    2.1478   -2.3530 H   0  0  0  0  0  0  0  0  0  0  0  0
   -3.9405    2.6014   -1.6848 H   0  0  0  0  0  0  0  0  0  0  0  0
   -2.4477    3.4091   -1.0702 H   0  0  0  0  0  0  0  0  0  0  0  0
   -1.5869    0.1260   -1.5210 H   0  0  0  0  0  0  0  0  0  0  0  0
   -1.5510   -0.5217    1.4147 H   0  0  0  0  0  0  0  0  0  0  0  0
   -3.0297   -1.1699    0.6630 H   0  0  0  0  0  0  0  0  0  0  0  0
    2.0074   -3.1047   -0.6651 H   0  0  0  0  0  0  0  0  0  0  0  0
    0.8018   -5.0361   -1.5815 H   0  0  0  0  0  0  0  0  0  0  0  0
   -1.3425   -6.0543   -2.0572 H   0  0  0  0  0  0  0  0  0  0  0  0
   -3.7431   -3.8922   -1.0350 H   0  0  0  0  0  0  0  0  0  0  0  0
    0.6754   -1.5159    2.4868 H   0  0  0  0  0  0  0  0  0  0  0  0
    3.2726    2.0985    3.3691 H   0  0  0  0  0  0  0  0  0  0  0  0
    5.0175    4.7576    1.7495 H   0  0  0  0  0  0  0  0  0  0  0  0
    4.2745    3.8956   -0.3864 H   0  0  0  0  0  0  0  0  0  0  0  0
    2.5618    1.6674   -2.4884 H   0  0  0  0  0  0  0  0  0  0  0  0
  1 27  1  0  0  0  0
  1 28  1  0  0  0  0
  1 29  1  0  0  0  0
  2  1  1  0  0  0  0
  3  2  1  0  0  0  0
  3 30  1  0  0  0  0
  3 31  1  0  0  0  0
  3 32  1  0  0  0  0
  4  2  2  0  0  0  0
  4 33  1  0  0  0  0
  5  4  1  0  0  0  0
  5 34  1  0  0  0  0
  5 35  1  0  0  0  0
  6  5  1  0  0  0  0
  7  6  2  0  0  0  0
  8  7  1  0  0  0  0
  8 36  1  0  0  0  0
  9  8  2  0  0  0  0
  9 37  1  0  0  0  0
 10  9  1  0  0  0  0
 11 10  1  0  0  0  0
 11 38  1  0  0  0  0
 12 10  2  0  0  0  0
 12  6  1  0  0  0  0
 13 12  1  0  0  0  0
 13 39  1  0  0  0  0
 14  7  1  0  0  0  0
 15 14  2  0  0  0  0
 15 40  1  0  0  0  0
 16 15  1  0  0  0  0
 17 16  1  0  0  0  0
 18 17  2  0  0  0  0
 18 41  1  0  0  0  0
 19 18  1  0  0  0  0
 20 19  1  0  0  0  0
 20 42  1  0  0  0  0
 21 19  2  0  0  0  0
 21 43  1  0  0  0  0
 22 21  1  0  0  0  0
 23 22  1  0  0  0  0
 23 44  1  0  0  0  0
 24 22  2  0  0  0  0
 24 17  1  0  0  0  0
 25 24  1  0  0  0  0
 25 14  1  0  0  0  0
 26 25  2  0  0  0  0
M  END
>  <MOL Chiral Flag>
0

>  <energy>
51.996044700759256

$$$$
> 635_AKC_np0502600
>616.sdf
 OpenBabel10062215553D

 35 38  0  0  0  0  0  0  0  0999 V2000
    6.0549    2.0596   -0.8300 C   0  0  0  0  0  0  0  0  0  0  0  0
    5.0195    1.7846    0.0379 O   0  0  0  0  0  0  0  0  0  0  0  0
    3.9391    1.0152   -0.2552 C   0  0  0  0  0  0  0  0  0  0  0  0
    3.8604    0.2236   -1.4403 C   0  0  0  0  0  0  0  0  0  0  0  0
    2.6921   -0.5095   -1.7343 C   0  0  0  0  0  0  0  0  0  0  0  0
    1.6196   -0.4253   -0.8435 C   0  0  0  0  0  0  0  0  0  0  0  0
    1.7158    0.3094    0.3061 C   0  0  0  0  0  0  0  0  0  0  0  0
    0.5959    0.2622    0.9767 O   0  0  0  0  0  0  0  0  0  0  0  0
   -0.2749   -0.4645    0.3015 C   0  0  0  0  0  0  0  0  0  0  0  0
    0.3338   -0.9443   -0.8680 C   0  0  0  0  0  0  0  0  0  0  0  0
   -0.2686   -1.8117   -1.9040 C   0  0  0  0  0  0  0  0  0  0  0  0
    0.3741   -2.1546   -2.8825 O   0  0  0  0  0  0  0  0  0  0  0  0
   -1.6923   -0.5407    0.7224 C   0  0  0  0  0  0  0  0  0  0  0  0
   -2.0563   -0.6156    2.1079 C   0  0  0  0  0  0  0  0  0  0  0  0
   -1.1331   -0.7742    3.0831 O   0  0  0  0  0  0  0  0  0  0  0  0
   -3.4119   -0.5340    2.4798 C   0  0  0  0  0  0  0  0  0  0  0  0
   -4.3597   -0.3577    1.4789 C   0  0  0  0  0  0  0  0  0  0  0  0
   -5.6753   -0.1987    1.6060 O   0  0  0  0  0  0  0  0  0  0  0  0
   -6.2188    0.0025    0.3325 C   0  0  0  0  0  0  0  0  0  0  0  0
   -5.1275   -0.0843   -0.5376 O   0  0  0  0  0  0  0  0  0  0  0  0
   -4.0272   -0.2943    0.1872 C   0  0  0  0  0  0  0  0  0  0  0  0
   -2.7129   -0.3943   -0.2504 C   0  0  0  0  0  0  0  0  0  0  0  0
    2.8528    1.0327    0.6355 C   0  0  0  0  0  0  0  0  0  0  0  0
    6.7671    2.7490   -0.3320 H   0  0  0  0  0  0  0  0  0  0  0  0
    5.6610    2.5650   -1.7391 H   0  0  0  0  0  0  0  0  0  0  0  0
    6.5922    1.1299   -1.1076 H   0  0  0  0  0  0  0  0  0  0  0  0
    4.6853    0.1873   -2.1381 H   0  0  0  0  0  0  0  0  0  0  0  0
    2.6306   -1.0918   -2.6428 H   0  0  0  0  0  0  0  0  0  0  0  0
   -1.2778   -2.1861   -1.7830 H   0  0  0  0  0  0  0  0  0  0  0  0
   -0.1958   -0.9253    2.9084 H   0  0  0  0  0  0  0  0  0  0  0  0
   -3.7095   -0.5825    3.5192 H   0  0  0  0  0  0  0  0  0  0  0  0
   -6.6829    1.0112    0.2692 H   0  0  0  0  0  0  0  0  0  0  0  0
   -6.9645   -0.7848    0.0998 H   0  0  0  0  0  0  0  0  0  0  0  0
   -2.4875   -0.2867   -1.3025 H   0  0  0  0  0  0  0  0  0  0  0  0
    2.8819    1.6288    1.5388 H   0  0  0  0  0  0  0  0  0  0  0  0
  1 24  1  0  0  0  0
  1 25  1  0  0  0  0
  1 26  1  0  0  0  0
  2  1  1  0  0  0  0
  3  2  1  0  0  0  0
  4  3  2  0  0  0  0
  4 27  1  0  0  0  0
  5  4  1  0  0  0  0
  5 28  1  0  0  0  0
  6  5  2  0  0  0  0
  7  6  1  0  0  0  0
  8  7  1  0  0  0  0
  9  8  1  0  0  0  0
 10  9  2  0  0  0  0
 10  6  1  0  0  0  0
 11 10  1  0  0  0  0
 11 29  1  0  0  0  0
 12 11  2  0  0  0  0
 13  9  1  0  0  0  0
 14 13  2  0  0  0  0
 15 14  1  0  0  0  0
 15 30  1  0  0  0  0
 16 14  1  0  0  0  0
 16 31  1  0  0  0  0
 17 16  2  0  0  0  0
 18 17  1  0  0  0  0
 19 18  1  0  0  0  0
 19 32  1  0  0  0  0
 19 33  1  0  0  0  0
 20 19  1  0  0  0  0
 21 20  1  0  0  0  0
 21 17  1  0  0  0  0
 22 21  2  0  0  0  0
 22 13  1  0  0  0  0
 22 34  1  0  0  0  0
 23  7  2  0  0  0  0
 23  3  1  0  0  0  0
 23 35  1  0  0  0  0
M  END
>  <MOL Chiral Flag>
0

>  <energy>
37.452621794488152

$$$$
> 636_AKC_j.bmc.2005.07.043
>617.sdf
 OpenBabel10062215553D

 52 54  0  0  0  0  0  0  0  0999 V2000
   -3.6236    3.5391    1.9085 C   0  0  0  0  0  0  0  0  0  0  0  0
   -3.0175    3.5091    0.4969 C   0  0  0  0  0  0  0  0  0  0  0  0
   -4.1153    3.8498   -0.5257 C   0  0  0  0  0  0  0  0  0  0  0  0
   -2.2866    2.1885    0.2264 C   0  0  0  0  0  0  0  0  0  0  0  0
   -2.6173    1.3384   -0.8547 C   0  0  0  0  0  0  0  0  0  0  0  0
   -1.8718    0.1801   -1.1062 C   0  0  0  0  0  0  0  0  0  0  0  0
   -0.7934   -0.1669   -0.2788 C   0  0  0  0  0  0  0  0  0  0  0  0
   -0.4857    0.6558    0.8193 C   0  0  0  0  0  0  0  0  0  0  0  0
   -1.2140    1.8220    1.0603 C   0  0  0  0  0  0  0  0  0  0  0  0
    0.0857   -1.3721   -0.6004 C   0  0  2  0  0  0  0  0  0  0  0  0
   -0.0880   -2.4450    0.4818 C   0  0  0  0  0  0  0  0  0  0  0  0
   -1.4657   -3.0559    0.6460 C   0  0  0  0  0  0  0  0  0  0  0  0
   -2.4377   -3.1822   -0.4985 C   0  0  0  0  0  0  0  0  0  0  0  0
   -1.8393   -3.4548    1.7364 O   0  0  0  0  0  0  0  0  0  0  0  0
    0.9810   -2.8093    1.2642 C   0  0  0  0  0  0  0  0  0  0  0  0
    0.9298   -3.8982    2.3223 C   0  0  0  0  0  0  0  0  0  0  0  0
    2.2573   -2.2000    1.0805 N   0  0  0  0  0  0  0  0  0  0  0  0
    2.5349   -1.2533    0.0514 C   0  0  0  0  0  0  0  0  0  0  0  0
    1.5004   -0.8464   -0.7931 C   0  0  0  0  0  0  0  0  0  0  0  0
    1.7757    0.0882   -1.8080 C   0  0  0  0  0  0  0  0  0  0  0  0
    0.8791    0.4493   -2.5549 O   0  0  0  0  0  0  0  0  0  0  0  0
    3.0454    0.6011   -1.9550 N   0  0  0  0  0  0  0  0  0  0  0  0
    3.3434    1.5990   -2.9993 C   0  0  0  0  0  0  0  0  0  0  0  0
    4.0554    0.1883   -1.1117 C   0  0  0  0  0  0  0  0  0  0  0  0
    5.1788    0.6489   -1.2503 O   0  0  0  0  0  0  0  0  0  0  0  0
    3.8033   -0.7389   -0.1122 N   0  0  0  0  0  0  0  0  0  0  0  0
    4.8999   -1.1684    0.7788 C   0  0  0  0  0  0  0  0  0  0  0  0
   -2.8436    3.4007    2.6848 H   0  0  0  0  0  0  0  0  0  0  0  0
   -4.0968    4.5271    2.0981 H   0  0  0  0  0  0  0  0  0  0  0  0
   -4.3903    2.7447    2.0232 H   0  0  0  0  0  0  0  0  0  0  0  0
   -2.2588    4.3210    0.4340 H   0  0  0  0  0  0  0  0  0  0  0  0
   -4.5550    4.8450   -0.2990 H   0  0  0  0  0  0  0  0  0  0  0  0
   -4.9301    3.0947   -0.4979 H   0  0  0  0  0  0  0  0  0  0  0  0
   -3.6896    3.9016   -1.5504 H   0  0  0  0  0  0  0  0  0  0  0  0
   -3.4298    1.5724   -1.5263 H   0  0  0  0  0  0  0  0  0  0  0  0
   -2.1249   -0.4353   -1.9597 H   0  0  0  0  0  0  0  0  0  0  0  0
    0.3494    0.4135    1.4649 H   0  0  0  0  0  0  0  0  0  0  0  0
   -0.9232    2.4537    1.8893 H   0  0  0  0  0  0  0  0  0  0  0  0
   -0.1916   -1.8315   -1.5691 H   0  0  0  0  0  0  0  0  0  0  0  0
   -3.3594   -2.6056   -0.2817 H   0  0  0  0  0  0  0  0  0  0  0  0
   -2.0370   -2.8594   -1.4738 H   0  0  0  0  0  0  0  0  0  0  0  0
   -2.7059   -4.2550   -0.6119 H   0  0  0  0  0  0  0  0  0  0  0  0
    1.7079   -4.6514    2.0769 H   0  0  0  0  0  0  0  0  0  0  0  0
    0.0046   -4.4814    2.4205 H   0  0  0  0  0  0  0  0  0  0  0  0
    1.1718   -3.4582    3.3118 H   0  0  0  0  0  0  0  0  0  0  0  0
    3.0135   -2.5088    1.7053 H   0  0  0  0  0  0  0  0  0  0  0  0
    3.7117    2.5350   -2.5268 H   0  0  0  0  0  0  0  0  0  0  0  0
    2.4565    1.8629   -3.6123 H   0  0  0  0  0  0  0  0  0  0  0  0
    4.1235    1.2056   -3.6845 H   0  0  0  0  0  0  0  0  0  0  0  0
    5.0576   -2.2639    0.6824 H   0  0  0  0  0  0  0  0  0  0  0  0
    5.8698   -0.6829    0.5466 H   0  0  0  0  0  0  0  0  0  0  0  0
    4.6554   -0.9114    1.8316 H   0  0  0  0  0  0  0  0  0  0  0  0
  1 28  1  0  0  0  0
  1 29  1  0  0  0  0
  1 30  1  0  0  0  0
  2  1  1  0  0  0  0
  2 31  1  0  0  0  0
  3  2  1  0  0  0  0
  3 32  1  0  0  0  0
  3 33  1  0  0  0  0
  3 34  1  0  0  0  0
  4  2  1  0  0  0  0
  5  4  2  0  0  0  0
  5 35  1  0  0  0  0
  6  5  1  0  0  0  0
  6 36  1  0  0  0  0
  7  6  2  0  0  0  0
  8  7  1  0  0  0  0
  8 37  1  0  0  0  0
  9  8  2  0  0  0  0
  9  4  1  0  0  0  0
  9 38  1  0  0  0  0
 10  7  1  0  0  0  0
 10 39  1  6  0  0  0
 11 10  1  0  0  0  0
 12 11  1  0  0  0  0
 13 12  1  0  0  0  0
 13 40  1  0  0  0  0
 13 41  1  0  0  0  0
 13 42  1  0  0  0  0
 14 12  2  0  0  0  0
 15 11  2  0  0  0  0
 16 15  1  0  0  0  0
 16 43  1  0  0  0  0
 16 44  1  0  0  0  0
 16 45  1  0  0  0  0
 17 15  1  0  0  0  0
 17 46  1  0  0  0  0
 18 17  1  0  0  0  0
 19 18  2  0  0  0  0
 19 10  1  0  0  0  0
 20 19  1  0  0  0  0
 21 20  2  0  0  0  0
 22 20  1  0  0  0  0
 23 22  1  0  0  0  0
 23 47  1  0  0  0  0
 23 48  1  0  0  0  0
 23 49  1  0  0  0  0
 24 22  1  0  0  0  0
 25 24  2  0  0  0  0
 26 24  1  0  0  0  0
 26 18  1  0  0  0  0
 27 26  1  0  0  0  0
 27 50  1  0  0  0  0
 27 51  1  0  0  0  0
 27 52  1  0  0  0  0
M  END
>  <MOL Chiral Flag>
0

>  <energy>
-63.46470157650603

$$$$
> 637_AKC_j.bmc.2005.07.043
>617_2.sdf
 OpenBabel10102219513D

 52 54  0  0  0  0  0  0  0  0999 V2000
   -3.3442    2.3995   -3.5956 C   0  0  0  0  0  0  0  0  0  0  0  0
   -1.8537    2.0669   -3.7327 C   0  0  0  0  0  0  0  0  0  0  0  0
   -1.5836    1.4420   -5.1103 C   0  0  0  0  0  0  0  0  0  0  0  0
   -1.3350    1.2422   -2.5537 C   0  0  0  0  0  0  0  0  0  0  0  0
   -0.7529   -0.0382   -2.7089 C   0  0  0  0  0  0  0  0  0  0  0  0
   -0.1584   -0.6851   -1.6196 C   0  0  0  0  0  0  0  0  0  0  0  0
   -0.1300   -0.0657   -0.3600 C   0  0  0  0  0  0  0  0  0  0  0  0
   -0.7756    1.1688   -0.1875 C   0  0  0  0  0  0  0  0  0  0  0  0
   -1.3671    1.8149   -1.2706 C   0  0  0  0  0  0  0  0  0  0  0  0
    0.7043   -0.6348    0.7807 C   0  0  1  0  0  0  0  0  0  0  0  0
    0.1594   -1.9712    1.2521 C   0  0  0  0  0  0  0  0  0  0  0  0
   -1.2799   -2.0188    1.6110 C   0  0  0  0  0  0  0  0  0  0  0  0
   -2.2475   -2.7606    0.7349 C   0  0  0  0  0  0  0  0  0  0  0  0
   -1.7012   -1.3352    2.5306 O   0  0  0  0  0  0  0  0  0  0  0  0
    0.9589   -3.0696    1.3520 C   0  0  0  0  0  0  0  0  0  0  0  0
    0.4557   -4.3950    1.8865 C   0  0  0  0  0  0  0  0  0  0  0  0
    2.3368   -2.9996    0.9965 N   0  0  0  0  0  0  0  0  0  0  0  0
    2.9279   -1.8336    0.4226 C   0  0  0  0  0  0  0  0  0  0  0  0
    2.1612   -0.6657    0.3085 C   0  0  0  0  0  0  0  0  0  0  0  0
    2.7468    0.4721   -0.2884 C   0  0  0  0  0  0  0  0  0  0  0  0
    2.1028    1.5040   -0.3913 O   0  0  0  0  0  0  0  0  0  0  0  0
    4.0254    0.4140   -0.7916 N   0  0  0  0  0  0  0  0  0  0  0  0
    4.6024    1.5614   -1.5183 C   0  0  0  0  0  0  0  0  0  0  0  0
    4.7724   -0.7339   -0.6433 C   0  0  0  0  0  0  0  0  0  0  0  0
    5.9150   -0.7653   -1.0751 O   0  0  0  0  0  0  0  0  0  0  0  0
    4.2331   -1.8496   -0.0218 N   0  0  0  0  0  0  0  0  0  0  0  0
    5.0612   -3.0605    0.1460 C   0  0  0  0  0  0  0  0  0  0  0  0
   -3.5485    2.9383   -2.6476 H   0  0  0  0  0  0  0  0  0  0  0  0
   -3.6564    3.0681   -4.4274 H   0  0  0  0  0  0  0  0  0  0  0  0
   -3.9561    1.4744   -3.6266 H   0  0  0  0  0  0  0  0  0  0  0  0
   -1.2869    3.0253   -3.7155 H   0  0  0  0  0  0  0  0  0  0  0  0
   -1.8960    2.1423   -5.9142 H   0  0  0  0  0  0  0  0  0  0  0  0
   -2.1406    0.4897   -5.2337 H   0  0  0  0  0  0  0  0  0  0  0  0
   -0.4946    1.2570   -5.2382 H   0  0  0  0  0  0  0  0  0  0  0  0
   -0.7068   -0.5230   -3.6727 H   0  0  0  0  0  0  0  0  0  0  0  0
    0.3367   -1.6366   -1.7706 H   0  0  0  0  0  0  0  0  0  0  0  0
   -0.7622    1.6650    0.7750 H   0  0  0  0  0  0  0  0  0  0  0  0
   -1.8006    2.7946   -1.1171 H   0  0  0  0  0  0  0  0  0  0  0  0
    0.6431    0.0633    1.6441 H   0  0  0  0  0  0  0  0  0  0  0  0
   -2.9919   -2.0347    0.3404 H   0  0  0  0  0  0  0  0  0  0  0  0
   -1.7240   -3.2122   -0.1356 H   0  0  0  0  0  0  0  0  0  0  0  0
   -2.7760   -3.5527    1.3006 H   0  0  0  0  0  0  0  0  0  0  0  0
    0.6104   -5.1835    1.1215 H   0  0  0  0  0  0  0  0  0  0  0  0
   -0.6095   -4.4013    2.1834 H   0  0  0  0  0  0  0  0  0  0  0  0
    1.0464   -4.6618    2.7897 H   0  0  0  0  0  0  0  0  0  0  0  0
    2.8980   -3.8523    1.1234 H   0  0  0  0  0  0  0  0  0  0  0  0
    5.5199    1.9172   -1.0084 H   0  0  0  0  0  0  0  0  0  0  0  0
    3.9005    2.4174   -1.6069 H   0  0  0  0  0  0  0  0  0  0  0  0
    4.8562    1.2485   -2.5554 H   0  0  0  0  0  0  0  0  0  0  0  0
    4.6019   -3.9179   -0.3881 H   0  0  0  0  0  0  0  0  0  0  0  0
    6.0914   -2.9450   -0.2495 H   0  0  0  0  0  0  0  0  0  0  0  0
    5.1620   -3.2948    1.2280 H   0  0  0  0  0  0  0  0  0  0  0  0
  1 28  1  0  0  0  0
  1 29  1  0  0  0  0
  1 30  1  0  0  0  0
  2  1  1  0  0  0  0
  2 31  1  0  0  0  0
  3  2  1  0  0  0  0
  3 32  1  0  0  0  0
  3 33  1  0  0  0  0
  3 34  1  0  0  0  0
  4  2  1  0  0  0  0
  5  4  2  0  0  0  0
  5 35  1  0  0  0  0
  6  5  1  0  0  0  0
  6 36  1  0  0  0  0
  7  6  2  0  0  0  0
  8  7  1  0  0  0  0
  8 37  1  0  0  0  0
  9  8  2  0  0  0  0
  9  4  1  0  0  0  0
  9 38  1  0  0  0  0
 10  7  1  0  0  0  0
 10 39  1  1  0  0  0
 11 10  1  0  0  0  0
 12 11  1  0  0  0  0
 13 12  1  0  0  0  0
 13 40  1  0  0  0  0
 13 41  1  0  0  0  0
 13 42  1  0  0  0  0
 14 12  2  0  0  0  0
 15 11  2  0  0  0  0
 16 15  1  0  0  0  0
 16 43  1  0  0  0  0
 16 44  1  0  0  0  0
 16 45  1  0  0  0  0
 17 15  1  0  0  0  0
 17 46  1  0  0  0  0
 18 17  1  0  0  0  0
 19 18  2  0  0  0  0
 19 10  1  0  0  0  0
 20 19  1  0  0  0  0
 21 20  2  0  0  0  0
 22 20  1  0  0  0  0
 23 22  1  0  0  0  0
 23 47  1  0  0  0  0
 23 48  1  0  0  0  0
 23 49  1  0  0  0  0
 24 22  1  0  0  0  0
 25 24  2  0  0  0  0
 26 24  1  0  0  0  0
 26 18  1  0  0  0  0
 27 26  1  0  0  0  0
 27 50  1  0  0  0  0
 27 51  1  0  0  0  0
 27 52  1  0  0  0  0
M  END
>  <MOL Chiral Flag>
0

>  <energy>
-63.46470157650603

$$$$
> 638_AKC_GE-3489.1
>618.sdf
 OpenBabel10062215563D

 40 42  0  0  0  0  0  0  0  0999 V2000
   -3.5423   -1.6857   -0.6727 C   0  0  0  0  0  0  0  0  0  0  0  0
   -2.4337   -0.9132   -1.3884 C   0  0  0  0  0  0  0  0  0  0  0  0
   -2.2610    0.4394   -0.8156 N   0  0  0  0  0  0  0  0  0  0  0  0
   -3.2919    1.3331   -0.9303 C   0  0  0  0  0  0  0  0  0  0  0  0
   -3.1933    2.6381   -0.4175 C   0  0  0  0  0  0  0  0  0  0  0  0
   -4.3451    3.5777   -0.5650 C   0  0  0  0  0  0  0  0  0  0  0  0
   -4.2773    4.8346   -0.0836 O   0  5  0  0  0  0  0  0  0  0  0  0
   -5.3671    3.2148   -1.1269 O   0  0  0  0  0  0  0  0  0  0  0  0
   -1.9997    3.0236    0.2224 C   0  0  0  0  0  0  0  0  0  0  0  0
   -1.8801    4.1497    0.6789 O   0  0  0  0  0  0  0  0  0  0  0  0
   -0.9415    2.1058    0.3309 C   0  0  0  0  0  0  0  0  0  0  0  0
    0.2662    2.4480    0.9587 C   0  0  0  0  0  0  0  0  0  0  0  0
    1.3050    1.5216    1.0495 C   0  0  0  0  0  0  0  0  0  0  0  0
    2.4300    1.8929    1.7047 F   0  0  0  0  0  0  0  0  0  0  0  0
    1.1353    0.2271    0.5030 C   0  0  0  0  0  0  0  0  0  0  0  0
   -0.0594   -0.0765   -0.0825 N   0  0  0  0  0  0  0  0  0  0  0  0
   -1.0896    0.8075   -0.1958 C   0  0  0  0  0  0  0  0  0  0  0  0
    2.1602   -0.7869    0.5629 N   0  0  0  0  0  0  0  0  0  0  0  0
    1.7834   -2.1375    0.1539 C   0  0  0  0  0  0  0  0  0  0  0  0
    2.7722   -3.1610    0.7244 C   0  0  0  0  0  0  0  0  0  0  0  0
    4.1468   -2.8202    0.3350 N   0  3  0  0  0  0  0  0  0  0  0  0
    4.5017   -1.4926    0.8554 C   0  0  0  0  0  0  0  0  0  0  0  0
    3.5539   -0.4199    0.3027 C   0  0  0  0  0  0  0  0  0  0  0  0
   -3.6396   -2.6963   -1.1227 H   0  0  0  0  0  0  0  0  0  0  0  0
   -4.5199   -1.1702   -0.7663 H   0  0  0  0  0  0  0  0  0  0  0  0
   -3.2911   -1.7957    0.4034 H   0  0  0  0  0  0  0  0  0  0  0  0
   -2.6719   -0.8278   -2.4711 H   0  0  0  0  0  0  0  0  0  0  0  0
   -1.5104   -1.5238   -1.3081 H   0  0  0  0  0  0  0  0  0  0  0  0
   -4.2040    1.0322   -1.4322 H   0  0  0  0  0  0  0  0  0  0  0  0
    0.4062    3.4337    1.3860 H   0  0  0  0  0  0  0  0  0  0  0  0
    1.7819   -2.1962   -0.9568 H   0  0  0  0  0  0  0  0  0  0  0  0
    0.7692   -2.4015    0.5273 H   0  0  0  0  0  0  0  0  0  0  0  0
    2.5106   -4.1758    0.3525 H   0  0  0  0  0  0  0  0  0  0  0  0
    2.6892   -3.1739    1.8353 H   0  0  0  0  0  0  0  0  0  0  0  0
    4.2393   -2.8352   -0.7083 H   0  0  0  0  0  0  0  0  0  0  0  0
    4.8014   -3.5298    0.7390 H   0  0  0  0  0  0  0  0  0  0  0  0
    5.5477   -1.2420    0.5718 H   0  0  0  0  0  0  0  0  0  0  0  0
    4.4423   -1.4963    1.9675 H   0  0  0  0  0  0  0  0  0  0  0  0
    3.6971   -0.3393   -0.7975 H   0  0  0  0  0  0  0  0  0  0  0  0
    3.8601    0.5386    0.7445 H   0  0  0  0  0  0  0  0  0  0  0  0
  1 24  1  0  0  0  0
  1 25  1  0  0  0  0
  1 26  1  0  0  0  0
  2  1  1  0  0  0  0
  2 27  1  0  0  0  0
  2 28  1  0  0  0  0
  3  2  1  0  0  0  0
  4  3  1  0  0  0  0
  4 29  1  0  0  0  0
  5  4  2  0  0  0  0
  6  5  1  0  0  0  0
  7  6  1  0  0  0  0
  8  6  2  0  0  0  0
  9  5  1  0  0  0  0
 10  9  2  0  0  0  0
 11  9  1  0  0  0  0
 12 11  2  0  0  0  0
 12 30  1  0  0  0  0
 13 12  1  0  0  0  0
 14 13  1  0  0  0  0
 15 13  2  0  0  0  0
 16 15  1  0  0  0  0
 17 16  2  0  0  0  0
 17  3  1  0  0  0  0
 17 11  1  0  0  0  0
 18 15  1  0  0  0  0
 19 18  1  0  0  0  0
 19 31  1  0  0  0  0
 19 32  1  0  0  0  0
 20 19  1  0  0  0  0
 20 33  1  0  0  0  0
 20 34  1  0  0  0  0
 21 20  1  0  0  0  0
 21 35  1  0  0  0  0
 21 36  1  0  0  0  0
 22 21  1  0  0  0  0
 22 37  1  0  0  0  0
 22 38  1  0  0  0  0
 23 22  1  0  0  0  0
 23 18  1  0  0  0  0
 23 39  1  0  0  0  0
 23 40  1  0  0  0  0
M  CHG  2   7  -1  21   1
M  END
>  <MOL Chiral Flag>
0

>  <energy>
79.092895562070751

$$$$
> 639_AKC_j.bmc.2005.07.005
>619.sdf
 OpenBabel10062215573D

 55 57  0  0  0  0  0  0  0  0999 V2000
   -1.2936   -6.0973    4.3661 C   0  0  0  0  0  0  0  0  0  0  0  0
   -2.6861   -5.5239    4.2765 C   0  0  0  0  0  0  0  0  0  0  0  0
   -3.6598   -5.8229    5.3866 C   0  0  0  0  0  0  0  0  0  0  0  0
   -3.0684   -4.7577    3.2302 C   0  0  0  0  0  0  0  0  0  0  0  0
   -2.1409   -4.4228    2.0854 C   0  0  0  0  0  0  0  0  0  0  0  0
   -2.8517   -3.5398    1.0411 C   0  0  0  0  0  0  0  0  0  0  0  0
   -2.0019   -3.1278   -0.1912 C   0  0  1  0  0  0  0  0  0  0  0  0
   -1.5296   -4.3562   -0.9845 C   0  0  0  0  0  0  0  0  0  0  0  0
   -2.8366   -2.3914   -1.0281 O   0  0  0  0  0  0  0  0  0  0  0  0
   -2.6486   -1.1103   -1.4312 C   0  0  0  0  0  0  0  0  0  0  0  0
   -1.5219   -0.3851   -1.0218 C   0  0  0  0  0  0  0  0  0  0  0  0
   -0.5583   -1.0776   -0.1343 C   0  0  0  0  0  0  0  0  0  0  0  0
   -0.7744   -2.3404    0.2505 C   0  0  0  0  0  0  0  0  0  0  0  0
   -1.3451    0.9609   -1.4618 C   0  0  0  0  0  0  0  0  0  0  0  0
   -0.2785    1.6813   -1.0575 O   0  0  0  0  0  0  0  0  0  0  0  0
   -2.3175    1.5571   -2.3222 C   0  0  0  0  0  0  0  0  0  0  0  0
   -3.4392    0.7865   -2.6956 C   0  0  0  0  0  0  0  0  0  0  0  0
   -3.5965   -0.5227   -2.2583 C   0  0  0  0  0  0  0  0  0  0  0  0
   -2.2401    2.9710   -2.8625 C   0  0  0  0  0  0  0  0  0  0  0  0
   -3.2181    3.4097   -3.4544 O   0  0  0  0  0  0  0  0  0  0  0  0
   -1.0386    3.8605   -2.7586 C   0  0  0  0  0  0  0  0  0  0  0  0
   -1.0659    5.1291   -3.2238 C   0  0  0  0  0  0  0  0  0  0  0  0
    0.0887    6.0769   -3.1760 C   0  0  0  0  0  0  0  0  0  0  0  0
    1.3475    5.7386   -2.6293 C   0  0  0  0  0  0  0  0  0  0  0  0
    2.3872    6.6740   -2.6179 C   0  0  0  0  0  0  0  0  0  0  0  0
    2.1918    7.9558   -3.1479 C   0  0  0  0  0  0  0  0  0  0  0  0
    3.1895    8.8631   -3.1409 O   0  0  0  0  0  0  0  0  0  0  0  0
    0.9511    8.2981   -3.6895 C   0  0  0  0  0  0  0  0  0  0  0  0
   -0.0920    7.3681   -3.7042 C   0  0  0  0  0  0  0  0  0  0  0  0
   -0.5437   -5.2789    4.3829 H   0  0  0  0  0  0  0  0  0  0  0  0
   -1.0972   -6.7619    3.4988 H   0  0  0  0  0  0  0  0  0  0  0  0
   -1.1719   -6.6959    5.2938 H   0  0  0  0  0  0  0  0  0  0  0  0
   -3.2536   -5.4422    6.3471 H   0  0  0  0  0  0  0  0  0  0  0  0
   -4.6517   -5.3518    5.2168 H   0  0  0  0  0  0  0  0  0  0  0  0
   -3.8051   -6.9207    5.4649 H   0  0  0  0  0  0  0  0  0  0  0  0
   -4.0824   -4.3651    3.2061 H   0  0  0  0  0  0  0  0  0  0  0  0
   -1.2594   -3.8879    2.4938 H   0  0  0  0  0  0  0  0  0  0  0  0
   -1.8140   -5.3718    1.6138 H   0  0  0  0  0  0  0  0  0  0  0  0
   -3.7507   -4.0871    0.6781 H   0  0  0  0  0  0  0  0  0  0  0  0
   -3.2024   -2.6114    1.5459 H   0  0  0  0  0  0  0  0  0  0  0  0
   -0.8451   -4.9947   -0.3884 H   0  0  0  0  0  0  0  0  0  0  0  0
   -0.9784   -4.0306   -1.8933 H   0  0  0  0  0  0  0  0  0  0  0  0
   -2.3998   -4.9670   -1.3075 H   0  0  0  0  0  0  0  0  0  0  0  0
    0.3403   -0.5946    0.2223 H   0  0  0  0  0  0  0  0  0  0  0  0
   -0.0405   -2.8172    0.8930 H   0  0  0  0  0  0  0  0  0  0  0  0
    0.4180    1.3670   -0.4718 H   0  0  0  0  0  0  0  0  0  0  0  0
   -4.2031    1.1991   -3.3426 H   0  0  0  0  0  0  0  0  0  0  0  0
   -4.4663   -1.0887   -2.5682 H   0  0  0  0  0  0  0  0  0  0  0  0
   -0.1327    3.4921   -2.3312 H   0  0  0  0  0  0  0  0  0  0  0  0
   -1.9860    5.5000   -3.6675 H   0  0  0  0  0  0  0  0  0  0  0  0
    1.5445    4.7651   -2.2105 H   0  0  0  0  0  0  0  0  0  0  0  0
    3.3464    6.4007   -2.1960 H   0  0  0  0  0  0  0  0  0  0  0  0
    4.0614    8.6582   -2.7737 H   0  0  0  0  0  0  0  0  0  0  0  0
    0.7939    9.2874   -4.1008 H   0  0  0  0  0  0  0  0  0  0  0  0
   -1.0456    7.6561   -4.1300 H   0  0  0  0  0  0  0  0  0  0  0  0
  1 30  1  0  0  0  0
  1 31  1  0  0  0  0
  1 32  1  0  0  0  0
  2  1  1  0  0  0  0
  3  2  1  0  0  0  0
  3 33  1  0  0  0  0
  3 34  1  0  0  0  0
  3 35  1  0  0  0  0
  4  2  2  0  0  0  0
  4 36  1  0  0  0  0
  5  4  1  0  0  0  0
  5 37  1  0  0  0  0
  5 38  1  0  0  0  0
  6  5  1  0  0  0  0
  6 39  1  0  0  0  0
  6 40  1  0  0  0  0
  7  6  1  1  0  0  0
  8  7  1  0  0  0  0
  8 41  1  0  0  0  0
  8 42  1  0  0  0  0
  8 43  1  0  0  0  0
  9  7  1  0  0  0  0
 10  9  1  0  0  0  0
 11 10  2  0  0  0  0
 12 11  1  0  0  0  0
 12 44  1  0  0  0  0
 13 12  2  0  0  0  0
 13  7  1  0  0  0  0
 13 45  1  0  0  0  0
 14 11  1  0  0  0  0
 15 14  1  0  0  0  0
 15 46  1  0  0  0  0
 16 14  2  0  0  0  0
 17 16  1  0  0  0  0
 17 47  1  0  0  0  0
 18 17  2  0  0  0  0
 18 10  1  0  0  0  0
 18 48  1  0  0  0  0
 19 16  1  0  0  0  0
 20 19  2  0  0  0  0
 21 19  1  0  0  0  0
 21 49  1  0  0  0  0
 22 21  2  0  0  0  0
 22 50  1  0  0  0  0
 23 22  1  0  0  0  0
 24 23  2  0  0  0  0
 24 51  1  0  0  0  0
 25 24  1  0  0  0  0
 25 52  1  0  0  0  0
 26 25  2  0  0  0  0
 27 26  1  0  0  0  0
 27 53  1  0  0  0  0
 28 26  1  0  0  0  0
 28 54  1  0  0  0  0
 29 28  2  0  0  0  0
 29 23  1  0  0  0  0
 29 55  1  0  0  0  0
M  END
>  <MOL Chiral Flag>
0

>  <energy>
108.26467626386308

$$$$
> 640_AKC_j.bmc.2005.06.045
>620.sdf
 OpenBabel10062215583D

 31 33  0  0  0  0  0  0  0  0999 V2000
   -2.1280    1.7923    2.0433 O   0  0  0  0  0  0  0  0  0  0  0  0
   -2.7731    1.4681    0.8400 C   0  0  0  0  0  0  0  0  0  0  0  0
   -2.5108    0.0272    0.4689 C   0  0  0  0  0  0  0  0  0  0  0  0
   -3.5697   -0.8961    0.4684 C   0  0  0  0  0  0  0  0  0  0  0  0
   -3.3426   -2.2356    0.1413 C   0  0  0  0  0  0  0  0  0  0  0  0
   -2.0592   -2.6720   -0.1952 C   0  0  0  0  0  0  0  0  0  0  0  0
   -0.9908   -1.7653   -0.2083 C   0  0  0  0  0  0  0  0  0  0  0  0
    0.3041   -2.1836   -0.5432 C   0  0  0  0  0  0  0  0  0  0  0  0
    1.3573   -1.2596   -0.5417 C   0  0  0  0  0  0  0  0  0  0  0  0
    2.6634   -1.6590   -0.8577 C   0  0  0  0  0  0  0  0  0  0  0  0
    3.7038   -0.7284   -0.8351 C   0  0  0  0  0  0  0  0  0  0  0  0
    3.4513    0.6051   -0.5029 C   0  0  0  0  0  0  0  0  0  0  0  0
    2.1480    1.0307   -0.1944 C   0  0  0  0  0  0  0  0  0  0  0  0
    1.9136    2.4813    0.1565 C   0  0  0  0  0  0  0  0  0  0  0  0
    2.3571    3.2947   -0.8940 O   0  0  0  0  0  0  0  0  0  0  0  0
    1.0948    0.0895   -0.2106 C   0  0  0  0  0  0  0  0  0  0  0  0
   -0.1743    0.4667    0.1054 N   0  0  0  0  0  0  0  0  0  0  0  0
   -1.2136   -0.4099    0.1236 C   0  0  0  0  0  0  0  0  0  0  0  0
   -1.1822    1.9974    1.8303 H   0  0  0  0  0  0  0  0  0  0  0  0
   -3.8591    1.6458    0.9899 H   0  0  0  0  0  0  0  0  0  0  0  0
   -2.4579    2.1497    0.0173 H   0  0  0  0  0  0  0  0  0  0  0  0
   -4.5718   -0.5800    0.7307 H   0  0  0  0  0  0  0  0  0  0  0  0
   -4.1654   -2.9386    0.1517 H   0  0  0  0  0  0  0  0  0  0  0  0
   -1.9006   -3.7144   -0.4442 H   0  0  0  0  0  0  0  0  0  0  0  0
    0.4912   -3.2217   -0.7960 H   0  0  0  0  0  0  0  0  0  0  0  0
    2.8772   -2.6896   -1.1145 H   0  0  0  0  0  0  0  0  0  0  0  0
    4.7119   -1.0415   -1.0743 H   0  0  0  0  0  0  0  0  0  0  0  0
    4.2718    1.3121   -0.4888 H   0  0  0  0  0  0  0  0  0  0  0  0
    0.8384    2.6904    0.3446 H   0  0  0  0  0  0  0  0  0  0  0  0
    2.4879    2.7130    1.0807 H   0  0  0  0  0  0  0  0  0  0  0  0
    2.2271    4.2313   -0.5918 H   0  0  0  0  0  0  0  0  0  0  0  0
  1 19  1  0  0  0  0
  2  1  1  0  0  0  0
  2 20  1  0  0  0  0
  2 21  1  0  0  0  0
  3  2  1  0  0  0  0
  4  3  2  0  0  0  0
  4 22  1  0  0  0  0
  5  4  1  0  0  0  0
  5 23  1  0  0  0  0
  6  5  2  0  0  0  0
  6 24  1  0  0  0  0
  7  6  1  0  0  0  0
  8  7  2  0  0  0  0
  8 25  1  0  0  0  0
  9  8  1  0  0  0  0
 10  9  2  0  0  0  0
 10 26  1  0  0  0  0
 11 10  1  0  0  0  0
 11 27  1  0  0  0  0
 12 11  2  0  0  0  0
 12 28  1  0  0  0  0
 13 12  1  0  0  0  0
 14 13  1  0  0  0  0
 14 29  1  0  0  0  0
 14 30  1  0  0  0  0
 15 14  1  0  0  0  0
 15 31  1  0  0  0  0
 16 13  2  0  0  0  0
 16  9  1  0  0  0  0
 17 16  1  0  0  0  0
 18 17  2  0  0  0  0
 18  3  1  0  0  0  0
 18  7  1  0  0  0  0
M  END
>  <MOL Chiral Flag>
0

>  <energy>
45.782405306929483

$$$$
> 641_AKC_j.bmc.2005.04.041
>621.sdf
 OpenBabel10062215583D

 28 30  0  0  0  0  0  0  0  0999 V2000
   -3.9931   -0.5938   -0.4021 C   0  0  0  0  0  0  0  0  0  0  0  0
   -3.2232    0.5547    0.1939 C   0  0  0  0  0  0  0  0  0  0  0  0
   -3.8737    1.5022    0.6020 O   0  0  0  0  0  0  0  0  0  0  0  0
   -1.7071    0.5844    0.2608 C   0  0  0  0  0  0  0  0  0  0  0  0
   -0.9327   -0.5727   -0.0763 C   0  0  0  0  0  0  0  0  0  0  0  0
   -1.5232   -1.7330   -0.4330 O   0  0  0  0  0  0  0  0  0  0  0  0
    0.4634   -0.4901   -0.0304 C   0  0  0  0  0  0  0  0  0  0  0  0
    1.1038    0.6613    0.3309 C   0  0  0  0  0  0  0  0  0  0  0  0
    2.5854    0.4040    0.3033 C   0  0  1  0  0  0  0  0  0  0  0  0
    2.5348   -1.0661    0.7988 C   0  0  0  0  0  0  0  0  0  0  0  0
    1.5213   -1.5368   -0.2844 C   0  0  2  0  0  0  0  0  0  0  0  0
    2.2940   -1.0626   -1.4837 C   0  0  0  0  0  0  0  0  0  0  0  0
    2.9334    0.1080   -1.1316 C   0  0  0  0  0  0  0  0  0  0  0  0
    0.4122    1.8055    0.6927 C   0  0  0  0  0  0  0  0  0  0  0  0
    1.1099    2.9050    1.0579 O   0  0  0  0  0  0  0  0  0  0  0  0
   -1.0065    1.7844    0.6601 C   0  0  0  0  0  0  0  0  0  0  0  0
   -1.8632    3.2699    1.1039 Cl  0  0  0  0  0  0  0  0  0  0  0  0
   -3.8347   -1.5259    0.1764 H   0  0  0  0  0  0  0  0  0  0  0  0
   -5.0836   -0.3794   -0.3880 H   0  0  0  0  0  0  0  0  0  0  0  0
   -3.6897   -0.7326   -1.4617 H   0  0  0  0  0  0  0  0  0  0  0  0
   -1.0259   -2.5279   -0.6648 H   0  0  0  0  0  0  0  0  0  0  0  0
    3.2217    1.1697    0.7947 H   0  0  0  0  0  0  0  0  0  0  0  0
    3.5212   -1.5860    0.7412 H   0  0  0  0  0  0  0  0  0  0  0  0
    2.1495   -1.1677    1.8414 H   0  0  0  0  0  0  0  0  0  0  0  0
    1.1888   -2.5936   -0.3263 H   0  0  0  0  0  0  0  0  0  0  0  0
    2.4025   -1.5741   -2.4305 H   0  0  0  0  0  0  0  0  0  0  0  0
    3.6203    0.6557   -1.7624 H   0  0  0  0  0  0  0  0  0  0  0  0
    0.6947    3.7374    1.3171 H   0  0  0  0  0  0  0  0  0  0  0  0
  1 18  1  0  0  0  0
  1 19  1  0  0  0  0
  1 20  1  0  0  0  0
  2  1  1  0  0  0  0
  3  2  2  0  0  0  0
  4  2  1  0  0  0  0
  5  4  2  0  0  0  0
  6  5  1  0  0  0  0
  6 21  1  0  0  0  0
  7  5  1  0  0  0  0
  8  7  2  0  0  0  0
  9  8  1  0  0  0  0
  9 22  1  1  0  0  0
 10  9  1  0  0  0  0
 10 23  1  0  0  0  0
 10 24  1  0  0  0  0
 11 10  1  0  0  0  0
 11  7  1  0  0  0  0
 11 25  1  1  0  0  0
 12 11  1  0  0  0  0
 12 26  1  0  0  0  0
 13 12  2  0  0  0  0
 13  9  1  0  0  0  0
 13 27  1  0  0  0  0
 14  8  1  0  0  0  0
 15 14  1  0  0  0  0
 15 28  1  0  0  0  0
 16 14  2  0  0  0  0
 16  4  1  0  0  0  0
 17 16  1  0  0  0  0
M  END
>  <MOL Chiral Flag>
0

>  <energy>
85.149050252411286

$$$$
> 642_AKC_AAC.49.5.1679-1687.2005
>622.sdf
 OpenBabel10062215583D

 42 41  0  0  0  0  0  0  0  0999 V2000
   -4.4409   -1.8580   -3.1014 C   0  0  0  0  0  0  0  0  0  0  0  0
   -4.4286   -2.7834   -1.9079 C   0  0  0  0  0  0  0  0  0  0  0  0
   -5.6847   -3.5276   -1.5307 C   0  0  0  0  0  0  0  0  0  0  0  0
   -3.3110   -2.9766   -1.1711 C   0  0  0  0  0  0  0  0  0  0  0  0
   -1.9695   -2.3705   -1.5258 C   0  0  0  0  0  0  0  0  0  0  0  0
   -0.8876   -2.7808   -0.5024 C   0  0  0  0  0  0  0  0  0  0  0  0
    0.5247   -2.6225   -1.0454 C   0  0  0  0  0  0  0  0  0  0  0  0
    0.9267   -3.4975   -2.2076 C   0  0  0  0  0  0  0  0  0  0  0  0
    1.3836   -1.7478   -0.4605 C   0  0  0  0  0  0  0  0  0  0  0  0
    2.8143   -1.4460   -0.8895 C   0  0  0  0  0  0  0  0  0  0  0  0
    3.8181   -2.6237   -0.8403 C   0  0  0  0  0  0  0  0  0  0  0  0
    5.3241   -2.2068   -0.9224 C   0  0  2  0  0  0  0  0  0  0  0  0
    5.5626   -1.2129   -2.0778 C   0  0  0  0  0  0  0  0  0  0  0  0
    6.1002   -3.3558   -1.1832 O   0  0  0  0  0  0  0  0  0  0  0  0
    5.7836   -1.5896    0.3938 C   0  0  0  0  0  0  0  0  0  0  0  0
    7.0490   -1.2011    0.5982 C   0  0  0  0  0  0  0  0  0  0  0  0
   -3.6979   -2.1839   -3.8575 H   0  0  0  0  0  0  0  0  0  0  0  0
   -4.2049   -0.8241   -2.7713 H   0  0  0  0  0  0  0  0  0  0  0  0
   -5.4389   -1.8354   -3.5881 H   0  0  0  0  0  0  0  0  0  0  0  0
   -6.5260   -3.2949   -2.2167 H   0  0  0  0  0  0  0  0  0  0  0  0
   -5.9911   -3.2724   -0.4956 H   0  0  0  0  0  0  0  0  0  0  0  0
   -5.4926   -4.6212   -1.5927 H   0  0  0  0  0  0  0  0  0  0  0  0
   -3.3671   -3.6405   -0.3116 H   0  0  0  0  0  0  0  0  0  0  0  0
   -1.7174   -2.7647   -2.5307 H   0  0  0  0  0  0  0  0  0  0  0  0
   -2.0167   -1.2608   -1.5872 H   0  0  0  0  0  0  0  0  0  0  0  0
   -0.9910   -3.8562   -0.2439 H   0  0  0  0  0  0  0  0  0  0  0  0
   -1.0599   -2.1958    0.4295 H   0  0  0  0  0  0  0  0  0  0  0  0
    1.7106   -4.2087   -1.8890 H   0  0  0  0  0  0  0  0  0  0  0  0
    0.0814   -4.1403   -2.5330 H   0  0  0  0  0  0  0  0  0  0  0  0
    1.2613   -2.8883   -3.0705 H   0  0  0  0  0  0  0  0  0  0  0  0
    1.0175   -1.1691    0.3831 H   0  0  0  0  0  0  0  0  0  0  0  0
    2.8063   -1.0194   -1.9162 H   0  0  0  0  0  0  0  0  0  0  0  0
    3.1758   -0.6586   -0.1959 H   0  0  0  0  0  0  0  0  0  0  0  0
    3.6124   -3.2876   -1.6991 H   0  0  0  0  0  0  0  0  0  0  0  0
    3.6739   -3.2103    0.0944 H   0  0  0  0  0  0  0  0  0  0  0  0
    5.0383   -0.2511   -1.8896 H   0  0  0  0  0  0  0  0  0  0  0  0
    6.6425   -0.9797   -2.1878 H   0  0  0  0  0  0  0  0  0  0  0  0
    5.2059   -1.6373   -3.0391 H   0  0  0  0  0  0  0  0  0  0  0  0
    5.9612   -4.0004   -0.4412 H   0  0  0  0  0  0  0  0  0  0  0  0
    5.0738   -1.4794    1.2097 H   0  0  0  0  0  0  0  0  0  0  0  0
    7.8017   -1.3027   -0.1779 H   0  0  0  0  0  0  0  0  0  0  0  0
    7.3403   -0.7821    1.5559 H   0  0  0  0  0  0  0  0  0  0  0  0
  1 17  1  0  0  0  0
  1 18  1  0  0  0  0
  1 19  1  0  0  0  0
  2  1  1  0  0  0  0
  3  2  1  0  0  0  0
  3 20  1  0  0  0  0
  3 21  1  0  0  0  0
  3 22  1  0  0  0  0
  4  2  2  0  0  0  0
  4 23  1  0  0  0  0
  5  4  1  0  0  0  0
  5 24  1  0  0  0  0
  5 25  1  0  0  0  0
  6  5  1  0  0  0  0
  6 26  1  0  0  0  0
  6 27  1  0  0  0  0
  7  6  1  0  0  0  0
  8  7  1  0  0  0  0
  8 28  1  0  0  0  0
  8 29  1  0  0  0  0
  8 30  1  0  0  0  0
  9  7  2  0  0  0  0
  9 31  1  0  0  0  0
 10  9  1  0  0  0  0
 10 32  1  0  0  0  0
 10 33  1  0  0  0  0
 11 10  1  0  0  0  0
 11 34  1  0  0  0  0
 11 35  1  0  0  0  0
 12 11  1  1  0  0  0
 13 12  1  0  0  0  0
 13 36  1  0  0  0  0
 13 37  1  0  0  0  0
 13 38  1  0  0  0  0
 14 12  1  0  0  0  0
 14 39  1  0  0  0  0
 15 12  1  0  0  0  0
 15 40  1  0  0  0  0
 16 15  2  0  0  0  0
 16 41  1  0  0  0  0
 16 42  1  0  0  0  0
M  END
>  <MOL Chiral Flag>
0

>  <energy>
42.837896976136115

$$$$
> 643_AKC_AAC.49.3.1076-1080.2005
>623.sdf
 OpenBabel10062215583D

 35 37  0  0  0  0  0  0  0  0999 V2000
   -1.2927   -1.3234   -2.5721 C   0  0  0  0  0  0  0  0  0  0  0  0
   -1.6973   -0.5410   -1.3455 C   0  0  0  0  0  0  0  0  0  0  0  0
   -2.9312    0.0267   -1.3852 N   0  0  0  0  0  0  0  0  0  0  0  0
   -3.4234    0.7946   -0.3907 C   0  0  0  0  0  0  0  0  0  0  0  0
   -4.6869    1.3822   -0.5302 C   0  0  0  0  0  0  0  0  0  0  0  0
   -5.2078    2.1771    0.4917 C   0  0  0  0  0  0  0  0  0  0  0  0
   -4.4751    2.3785    1.6634 C   0  0  0  0  0  0  0  0  0  0  0  0
   -3.2147    1.7909    1.8138 C   0  0  0  0  0  0  0  0  0  0  0  0
   -2.6721    1.0016    0.7800 C   0  0  0  0  0  0  0  0  0  0  0  0
   -1.3939    0.4196    0.8913 C   0  0  0  0  0  0  0  0  0  0  0  0
   -0.7345    0.5664    2.0653 O   0  0  0  0  0  0  0  0  0  0  0  0
   -0.8570   -0.3300   -0.2048 C   0  0  0  0  0  0  0  0  0  0  0  0
    0.5618   -0.8382   -0.2334 C   0  0  0  0  0  0  0  0  0  0  0  0
    1.5924   -0.2190    0.3859 C   0  0  0  0  0  0  0  0  0  0  0  0
    3.0233   -0.6140    0.2323 C   0  0  0  0  0  0  0  0  0  0  0  0
    3.9747   -0.0168    1.0791 C   0  0  0  0  0  0  0  0  0  0  0  0
    5.3336   -0.3151    0.9446 C   0  0  0  0  0  0  0  0  0  0  0  0
    5.7617   -1.2009   -0.0449 C   0  0  0  0  0  0  0  0  0  0  0  0
    4.8315   -1.7981   -0.8964 C   0  0  0  0  0  0  0  0  0  0  0  0
    3.4691   -1.5157   -0.7610 C   0  0  0  0  0  0  0  0  0  0  0  0
   -1.3483   -0.6558   -3.4564 H   0  0  0  0  0  0  0  0  0  0  0  0
   -0.2868   -1.7672   -2.5804 H   0  0  0  0  0  0  0  0  0  0  0  0
   -2.0134   -2.1561   -2.7154 H   0  0  0  0  0  0  0  0  0  0  0  0
   -5.2613    1.2270   -1.4356 H   0  0  0  0  0  0  0  0  0  0  0  0
   -6.1808    2.6367    0.3760 H   0  0  0  0  0  0  0  0  0  0  0  0
   -4.8821    2.9944    2.4546 H   0  0  0  0  0  0  0  0  0  0  0  0
   -2.6633    1.9674    2.7291 H   0  0  0  0  0  0  0  0  0  0  0  0
   -0.0140   -0.0082    2.3510 H   0  0  0  0  0  0  0  0  0  0  0  0
    0.7881   -1.6816   -0.8531 H   0  0  0  0  0  0  0  0  0  0  0  0
    1.4117    0.6658    0.9795 H   0  0  0  0  0  0  0  0  0  0  0  0
    3.6624    0.6818    1.8462 H   0  0  0  0  0  0  0  0  0  0  0  0
    6.0562    0.1487    1.6034 H   0  0  0  0  0  0  0  0  0  0  0  0
    6.8155   -1.4203   -0.1562 H   0  0  0  0  0  0  0  0  0  0  0  0
    5.1668   -2.4754   -1.6714 H   0  0  0  0  0  0  0  0  0  0  0  0
    2.7879   -1.9827   -1.4544 H   0  0  0  0  0  0  0  0  0  0  0  0
  1 21  1  0  0  0  0
  1 22  1  0  0  0  0
  1 23  1  0  0  0  0
  2  1  1  0  0  0  0
  3  2  2  0  0  0  0
  4  3  1  0  0  0  0
  5  4  2  0  0  0  0
  5 24  1  0  0  0  0
  6  5  1  0  0  0  0
  6 25  1  0  0  0  0
  7  6  2  0  0  0  0
  7 26  1  0  0  0  0
  8  7  1  0  0  0  0
  8 27  1  0  0  0  0
  9  8  2  0  0  0  0
  9  4  1  0  0  0  0
 10  9  1  0  0  0  0
 11 10  1  0  0  0  0
 11 28  1  0  0  0  0
 12 10  2  0  0  0  0
 12  2  1  0  0  0  0
 13 12  1  0  0  0  0
 13 29  1  0  0  0  0
 14 13  2  0  0  0  0
 14 30  1  0  0  0  0
 15 14  1  0  0  0  0
 16 15  2  0  0  0  0
 16 31  1  0  0  0  0
 17 16  1  0  0  0  0
 17 32  1  0  0  0  0
 18 17  2  0  0  0  0
 18 33  1  0  0  0  0
 19 18  1  0  0  0  0
 19 34  1  0  0  0  0
 20 19  2  0  0  0  0
 20 15  1  0  0  0  0
 20 35  1  0  0  0  0
M  END
>  <MOL Chiral Flag>
0

>  <energy>
75.765631306349491

$$$$
> 644_AKC_AAC.49.2.808-812.2005
>624.sdf
 OpenBabel10062215593D

 15 15  0  0  0  0  0  0  0  0999 V2000
   -2.6441   -0.7000    0.1698 N   0  0  0  0  0  0  0  0  0  0  0  0
   -1.6481    0.0338    0.7307 C   0  0  0  0  0  0  0  0  0  0  0  0
   -1.9091    0.7558    1.6799 O   0  0  0  0  0  0  0  0  0  0  0  0
   -0.2520    0.0065    0.1925 C   0  0  0  0  0  0  0  0  0  0  0  0
    0.6618    1.0033    0.5819 C   0  0  0  0  0  0  0  0  0  0  0  0
    1.9592    1.0048    0.0695 C   0  0  0  0  0  0  0  0  0  0  0  0
    2.3473    0.0031   -0.8177 C   0  0  0  0  0  0  0  0  0  0  0  0
    1.4666   -0.9665   -1.1771 N   0  0  0  0  0  0  0  0  0  0  0  0
    0.1916   -0.9879   -0.7032 C   0  0  0  0  0  0  0  0  0  0  0  0
   -3.5993   -0.6462    0.5545 H   0  0  0  0  0  0  0  0  0  0  0  0
   -2.4923   -1.2795   -0.6635 H   0  0  0  0  0  0  0  0  0  0  0  0
    0.3658    1.7889    1.2657 H   0  0  0  0  0  0  0  0  0  0  0  0
    2.6575    1.7808    0.3553 H   0  0  0  0  0  0  0  0  0  0  0  0
    3.3506   -0.0048   -1.2220 H   0  0  0  0  0  0  0  0  0  0  0  0
   -0.4551   -1.7922   -1.0165 H   0  0  0  0  0  0  0  0  0  0  0  0
  1 10  1  0  0  0  0
  1 11  1  0  0  0  0
  2  1  1  0  0  0  0
  3  2  2  0  0  0  0
  4  2  1  0  0  0  0
  5  4  2  0  0  0  0
  5 12  1  0  0  0  0
  6  5  1  0  0  0  0
  6 13  1  0  0  0  0
  7  6  2  0  0  0  0
  7 14  1  0  0  0  0
  8  7  1  0  0  0  0
  9  8  2  0  0  0  0
  9  4  1  0  0  0  0
  9 15  1  0  0  0  0
M  END
>  <MOL Chiral Flag>
0

>  <energy>
6.0285413062603084

$$$$
> 645_AKC_j.ijantimicag.2004.08.010
>625.sdf
 OpenBabel10062215593D

 51 55  0  0  0  0  0  0  0  0999 V2000
   -2.9892    1.5614   -1.1807 C   0  0  0  0  0  0  0  0  0  0  0  0
   -2.6082    0.1238   -0.7691 C   0  0  2  0  0  0  0  0  0  0  0  0
   -3.2919   -0.8586   -1.7616 C   0  0  0  0  0  0  0  0  0  0  0  0
   -3.0053   -2.3204   -1.3920 C   0  0  0  0  0  0  0  0  0  0  0  0
   -1.4962   -2.5507   -1.2906 C   0  0  0  0  0  0  0  0  0  0  0  0
   -0.7687   -1.5502   -0.3254 C   0  0  2  0  0  0  0  0  0  0  0  0
   -1.3219   -1.7090    1.1367 C   0  0  0  0  0  0  0  0  0  0  0  0
   -2.5733   -1.0128    1.4079 N   0  0  0  0  0  0  0  0  0  0  0  0
   -3.1464   -0.1676    0.6156 C   0  0  0  0  0  0  0  0  0  0  0  0
   -1.0593   -0.1044   -0.8216 C   0  0  2  0  0  0  0  0  0  0  0  0
   -0.2023    0.9361   -0.0421 C   0  0  0  0  0  0  0  0  0  0  0  0
    1.2916    0.6959   -0.3258 C   0  0  0  0  0  0  0  0  0  0  0  0
    1.7588   -0.7063    0.1222 C   0  0  1  0  0  0  0  0  0  0  0  0
    1.9355   -0.7854    1.6749 C   0  0  0  0  0  0  0  0  0  0  0  0
    2.3023   -2.2341    2.1047 C   0  0  0  0  0  0  0  0  0  0  0  0
    2.5783   -3.1241    0.8649 C   0  0  1  0  0  0  0  0  0  0  0  0
    1.2522   -3.2304    0.0670 C   0  0  0  0  0  0  0  0  0  0  0  0
    0.7851   -1.8219   -0.4345 C   0  0  1  0  0  0  0  0  0  0  0  0
    3.5916   -2.4048    0.0069 C   0  0  0  0  0  0  0  0  0  0  0  0
    4.7700   -2.9547   -0.3145 C   0  0  0  0  0  0  0  0  0  0  0  0
    3.1979   -1.0135   -0.4571 C   0  0  1  0  0  0  0  0  0  0  0  0
    3.1974   -0.9589   -1.8637 O   0  0  0  0  0  0  0  0  0  0  0  0
   -2.6009    2.3099   -0.4603 H   0  0  0  0  0  0  0  0  0  0  0  0
   -2.5956    1.7954   -2.1933 H   0  0  0  0  0  0  0  0  0  0  0  0
   -4.0942    1.6812   -1.2017 H   0  0  0  0  0  0  0  0  0  0  0  0
   -4.3942   -0.7079   -1.7738 H   0  0  0  0  0  0  0  0  0  0  0  0
   -2.9136   -0.6652   -2.7906 H   0  0  0  0  0  0  0  0  0  0  0  0
   -3.4866   -2.5729   -0.4247 H   0  0  0  0  0  0  0  0  0  0  0  0
   -3.4443   -2.9992   -2.1545 H   0  0  0  0  0  0  0  0  0  0  0  0
   -1.3170   -3.6024   -0.9798 H   0  0  0  0  0  0  0  0  0  0  0  0
   -1.0783   -2.4324   -2.3155 H   0  0  0  0  0  0  0  0  0  0  0  0
   -1.4382   -2.7837    1.3856 H   0  0  0  0  0  0  0  0  0  0  0  0
   -0.6302   -1.3170    1.8780 H   0  0  0  0  0  0  0  0  0  0  0  0
   -4.1212    0.2207    0.8944 H   0  0  0  0  0  0  0  0  0  0  0  0
   -0.7508   -0.0058   -1.8890 H   0  0  0  0  0  0  0  0  0  0  0  0
   -0.4210    1.9594   -0.4077 H   0  0  0  0  0  0  0  0  0  0  0  0
   -0.4170    0.9135    1.0458 H   0  0  0  0  0  0  0  0  0  0  0  0
    1.9159    1.4805    0.1546 H   0  0  0  0  0  0  0  0  0  0  0  0
    1.4266    0.7971   -1.4253 H   0  0  0  0  0  0  0  0  0  0  0  0
    1.1279   -0.3773    2.3048 H   0  0  0  0  0  0  0  0  0  0  0  0
    2.7852   -0.1158    1.9370 H   0  0  0  0  0  0  0  0  0  0  0  0
    1.4556   -2.6847    2.6675 H   0  0  0  0  0  0  0  0  0  0  0  0
    3.1719   -2.2055    2.7971 H   0  0  0  0  0  0  0  0  0  0  0  0
    2.9093   -4.1368    1.1848 H   0  0  0  0  0  0  0  0  0  0  0  0
    0.5088   -3.6859    0.7506 H   0  0  0  0  0  0  0  0  0  0  0  0
    1.3463   -3.9229   -0.7978 H   0  0  0  0  0  0  0  0  0  0  0  0
    0.9821   -1.7944   -1.5295 H   0  0  0  0  0  0  0  0  0  0  0  0
    5.0298   -3.9495    0.0336 H   0  0  0  0  0  0  0  0  0  0  0  0
    5.4828   -2.4126   -0.9276 H   0  0  0  0  0  0  0  0  0  0  0  0
    3.9223   -0.2638   -0.0559 H   0  0  0  0  0  0  0  0  0  0  0  0
    4.1116   -0.6982   -2.1495 H   0  0  0  0  0  0  0  0  0  0  0  0
  1 23  1  0  0  0  0
  1 24  1  0  0  0  0
  1 25  1  0  0  0  0
  2  1  1  6  0  0  0
  3  2  1  0  0  0  0
  3 26  1  0  0  0  0
  3 27  1  0  0  0  0
  4  3  1  0  0  0  0
  4 28  1  0  0  0  0
  4 29  1  0  0  0  0
  5  4  1  0  0  0  0
  5 30  1  0  0  0  0
  5 31  1  0  0  0  0
  6  5  1  6  0  0  0
  7  6  1  0  0  0  0
  7 32  1  0  0  0  0
  7 33  1  0  0  0  0
  8  7  1  0  0  0  0
  9  8  2  0  0  0  0
  9  2  1  0  0  0  0
  9 34  1  0  0  0  0
 10  6  1  0  0  0  0
 10  2  1  0  0  0  0
 10 35  1  6  0  0  0
 11 10  1  0  0  0  0
 11 36  1  0  0  0  0
 11 37  1  0  0  0  0
 12 11  1  0  0  0  0
 12 38  1  0  0  0  0
 12 39  1  0  0  0  0
 13 12  1  6  0  0  0
 14 13  1  0  0  0  0
 14 40  1  0  0  0  0
 14 41  1  0  0  0  0
 15 14  1  0  0  0  0
 15 42  1  0  0  0  0
 15 43  1  0  0  0  0
 16 15  1  0  0  0  0
 16 44  1  1  0  0  0
 17 16  1  0  0  0  0
 17 45  1  0  0  0  0
 17 46  1  0  0  0  0
 18 17  1  0  0  0  0
 18  6  1  0  0  0  0
 18 13  1  0  0  0  0
 18 47  1  6  0  0  0
 19 16  1  0  0  0  0
 20 19  2  0  0  0  0
 20 48  1  0  0  0  0
 20 49  1  0  0  0  0
 21 19  1  0  0  0  0
 21 13  1  0  0  0  0
 21 50  1  1  0  0  0
 22 21  1  0  0  0  0
 22 51  1  0  0  0  0
M  END
>  <MOL Chiral Flag>
0

>  <energy>
102.14390449824363

$$$$
> 646_AKC_j.bioorg.2005.07.001
>626.sdf
 OpenBabel10062216003D

 42 44  0  0  0  0  0  0  0  0999 V2000
    5.9002   -1.6810   -2.8050 C   0  0  0  0  0  0  0  0  0  0  0  0
    4.7273   -1.1229   -2.0747 C   0  0  0  0  0  0  0  0  0  0  0  0
    3.5059   -0.7268   -2.6300 C   0  0  0  0  0  0  0  0  0  0  0  0
    2.5885   -0.2529   -1.7199 N   0  0  0  0  0  0  0  0  0  0  0  0
    3.0589   -0.2594   -0.4413 C   0  0  0  0  0  0  0  0  0  0  0  0
    4.6080   -0.8557   -0.4457 S   0  0  0  0  0  0  0  0  0  0  0  0
    2.2399    0.1750    0.7228 C   0  0  0  0  0  0  0  0  0  0  0  0
    0.9277    0.5904    0.4882 C   0  0  0  0  0  0  0  0  0  0  0  0
    0.1023    0.9585    1.5096 N   0  0  0  0  0  0  0  0  0  0  0  0
   -1.2950    1.3043    1.1824 C   0  0  0  0  0  0  0  0  0  0  0  0
   -2.2649    0.2383    1.7227 C   0  0  1  0  0  0  0  0  0  0  0  0
   -3.6710    0.2685    1.0713 C   0  0  0  0  0  0  0  0  0  0  0  0
   -3.9760   -1.2116    0.7640 C   0  0  2  0  0  0  0  0  0  0  0  0
   -5.3377   -1.5407    0.8353 O   0  0  0  0  0  0  0  0  0  0  0  0
   -3.0730   -1.9879    1.7211 C   0  0  1  0  0  0  0  0  0  0  0  0
   -2.9179   -3.4774    1.4013 C   0  0  0  0  0  0  0  0  0  0  0  0
   -2.0253   -4.0530    2.3169 O   0  0  0  0  0  0  0  0  0  0  0  0
   -1.7805   -1.2026    1.5357 C   0  0  0  0  0  0  0  0  0  0  0  0
    0.5731    0.9489    2.8081 C   0  0  0  0  0  0  0  0  0  0  0  0
   -0.1525    1.2784    3.7315 O   0  0  0  0  0  0  0  0  0  0  0  0
    1.8641    0.5580    3.0660 N   0  0  0  0  0  0  0  0  0  0  0  0
    2.7015    0.1655    2.0515 C   0  0  0  0  0  0  0  0  0  0  0  0
    3.8364   -0.1928    2.3153 O   0  0  0  0  0  0  0  0  0  0  0  0
    6.7801   -1.0236   -2.6517 H   0  0  0  0  0  0  0  0  0  0  0  0
    5.6815   -1.7453   -3.8923 H   0  0  0  0  0  0  0  0  0  0  0  0
    6.1246   -2.6981   -2.4229 H   0  0  0  0  0  0  0  0  0  0  0  0
    3.2840   -0.7871   -3.6872 H   0  0  0  0  0  0  0  0  0  0  0  0
    0.5518    0.5886   -0.5280 H   0  0  0  0  0  0  0  0  0  0  0  0
   -1.5620    2.3213    1.5428 H   0  0  0  0  0  0  0  0  0  0  0  0
   -1.4218    1.3164    0.0771 H   0  0  0  0  0  0  0  0  0  0  0  0
   -2.3912    0.3474    2.8246 H   0  0  0  0  0  0  0  0  0  0  0  0
   -4.3732    0.7071    1.8127 H   0  0  0  0  0  0  0  0  0  0  0  0
   -3.7415    0.8422    0.1205 H   0  0  0  0  0  0  0  0  0  0  0  0
   -3.6114   -1.4252   -0.2696 H   0  0  0  0  0  0  0  0  0  0  0  0
   -5.6357   -1.3550    1.7627 H   0  0  0  0  0  0  0  0  0  0  0  0
   -3.4418   -1.8704    2.7675 H   0  0  0  0  0  0  0  0  0  0  0  0
   -3.9060   -3.9779    1.4879 H   0  0  0  0  0  0  0  0  0  0  0  0
   -2.5299   -3.5922    0.3628 H   0  0  0  0  0  0  0  0  0  0  0  0
   -1.7548   -4.9285    1.9371 H   0  0  0  0  0  0  0  0  0  0  0  0
   -1.4058   -1.3460    0.4949 H   0  0  0  0  0  0  0  0  0  0  0  0
   -0.9707   -1.4855    2.2431 H   0  0  0  0  0  0  0  0  0  0  0  0
    2.2106    0.5468    4.0534 H   0  0  0  0  0  0  0  0  0  0  0  0
  1 24  1  0  0  0  0
  1 25  1  0  0  0  0
  1 26  1  0  0  0  0
  2  1  1  0  0  0  0
  3  2  2  0  0  0  0
  3 27  1  0  0  0  0
  4  3  1  0  0  0  0
  5  4  2  0  0  0  0
  6  5  1  0  0  0  0
  6  2  1  0  0  0  0
  7  5  1  0  0  0  0
  8  7  2  0  0  0  0
  8 28  1  0  0  0  0
  9  8  1  0  0  0  0
 10  9  1  0  0  0  0
 10 29  1  0  0  0  0
 10 30  1  0  0  0  0
 11 10  1  0  0  0  0
 11 31  1  1  0  0  0
 12 11  1  0  0  0  0
 12 32  1  0  0  0  0
 12 33  1  0  0  0  0
 13 12  1  0  0  0  0
 13 34  1  6  0  0  0
 14 13  1  0  0  0  0
 14 35  1  0  0  0  0
 15 13  1  0  0  0  0
 15 36  1  1  0  0  0
 16 15  1  0  0  0  0
 16 37  1  0  0  0  0
 16 38  1  0  0  0  0
 17 16  1  0  0  0  0
 17 39  1  0  0  0  0
 18 15  1  0  0  0  0
 18 11  1  0  0  0  0
 18 40  1  0  0  0  0
 18 41  1  0  0  0  0
 19  9  1  0  0  0  0
 20 19  2  0  0  0  0
 21 19  1  0  0  0  0
 21 42  1  0  0  0  0
 22 21  1  0  0  0  0
 22  7  1  0  0  0  0
 23 22  2  0  0  0  0
M  END
>  <MOL Chiral Flag>
0

>  <energy>
-34.163960692911957

$$$$
> 647_AKC_AAC.49.11.176-182.2005
>627.sdf
 OpenBabel10102220013D

 38 40  0  0  0  0  0  0  0  0999 V2000
    3.0323    0.6007   -5.8794 C   0  0  0  0  0  0  0  0  0  0  0  0
    2.9412   -0.1644   -4.5776 C   0  0  0  0  0  0  0  0  0  0  0  0
    3.8930    0.0949   -3.6406 C   0  0  0  0  0  0  0  0  0  0  0  0
    3.9957   -0.5067   -2.2577 C   0  0  0  0  0  0  0  0  0  0  0  0
    4.2017    0.5484   -1.1452 C   0  0  0  0  0  0  0  0  0  0  0  0
    3.2459    1.7577   -0.8845 C   0  0  2  0  0  0  0  0  0  0  0  0
    1.7544    1.9602   -1.0258 C   0  0  1  0  0  0  0  0  0  0  0  0
    2.6914    2.2295   -2.0694 O   0  0  0  0  0  0  0  0  0  0  0  0
    0.7713    0.8202   -1.3633 C   0  0  2  0  0  0  0  0  0  0  0  0
    0.5637    0.5248   -2.9062 C   0  0  1  0  0  0  0  0  0  0  0  0
    0.8499   -0.9621   -3.2329 C   0  0  0  0  0  0  0  0  0  0  0  0
    1.7894   -1.1662   -4.4271 C   0  0  0  0  0  0  0  0  0  0  0  0
   -0.8751    0.8499   -3.1054 C   0  0  0  0  0  0  0  0  0  0  0  0
   -1.5337    0.7923   -4.2701 C   0  0  0  0  0  0  0  0  0  0  0  0
   -1.4127    1.2331   -1.8396 C   0  0  0  0  0  0  0  0  0  0  0  0
   -2.5695    1.5706   -1.6370 O   0  0  0  0  0  0  0  0  0  0  0  0
   -0.4831    1.1899   -0.8811 O   0  0  0  0  0  0  0  0  0  0  0  0
    3.8902    2.8557   -0.0251 C   0  0  0  0  0  0  0  0  0  0  0  0
    2.2214    0.3343   -6.5893 H   0  0  0  0  0  0  0  0  0  0  0  0
    2.9593    1.6907   -5.6799 H   0  0  0  0  0  0  0  0  0  0  0  0
    4.0005    0.3840   -6.3777 H   0  0  0  0  0  0  0  0  0  0  0  0
    4.6723    0.8083   -3.9007 H   0  0  0  0  0  0  0  0  0  0  0  0
    3.2020   -1.1939   -1.9888 H   0  0  0  0  0  0  0  0  0  0  0  0
    4.9147   -1.1326   -2.2586 H   0  0  0  0  0  0  0  0  0  0  0  0
    5.1852    1.0105   -1.3883 H   0  0  0  0  0  0  0  0  0  0  0  0
    4.3426    0.0119   -0.1829 H   0  0  0  0  0  0  0  0  0  0  0  0
    1.2867    2.9502   -0.8311 H   0  0  0  0  0  0  0  0  0  0  0  0
    1.0892   -0.0746   -0.7900 H   0  0  0  0  0  0  0  0  0  0  0  0
    1.1298    1.2349   -3.5391 H   0  0  0  0  0  0  0  0  0  0  0  0
    1.2689   -1.4745   -2.3604 H   0  0  0  0  0  0  0  0  0  0  0  0
   -0.0782   -1.5631   -3.3558 H   0  0  0  0  0  0  0  0  0  0  0  0
    2.1814   -2.2053   -4.3921 H   0  0  0  0  0  0  0  0  0  0  0  0
    1.1521   -1.1008   -5.3334 H   0  0  0  0  0  0  0  0  0  0  0  0
   -1.0162    0.4853   -5.1745 H   0  0  0  0  0  0  0  0  0  0  0  0
   -2.5862    1.0495   -4.3267 H   0  0  0  0  0  0  0  0  0  0  0  0
    4.1385    2.4330    0.9720 H   0  0  0  0  0  0  0  0  0  0  0  0
    4.8264    3.2147   -0.5010 H   0  0  0  0  0  0  0  0  0  0  0  0
    3.2282    3.7338    0.1325 H   0  0  0  0  0  0  0  0  0  0  0  0
  1 19  1  0  0  0  0
  1 20  1  0  0  0  0
  1 21  1  0  0  0  0
  2  1  1  0  0  0  0
  3  2  2  0  0  0  0
  3 22  1  0  0  0  0
  4  3  1  0  0  0  0
  4 23  1  0  0  0  0
  4 24  1  0  0  0  0
  5  4  1  0  0  0  0
  5 25  1  0  0  0  0
  5 26  1  0  0  0  0
  6  5  1  0  0  0  0
  6 18  1  1  0  0  0
  7  6  1  0  0  0  0
  7 27  1  1  0  0  0
  8  7  1  0  0  0  0
  8  6  1  0  0  0  0
  9  7  1  0  0  0  0
  9 28  1  1  0  0  0
 10  9  1  0  0  0  0
 10 29  1  6  0  0  0
 11 10  1  0  0  0  0
 11 30  1  0  0  0  0
 11 31  1  0  0  0  0
 12 11  1  0  0  0  0
 12  2  1  0  0  0  0
 12 32  1  0  0  0  0
 12 33  1  0  0  0  0
 13 10  1  0  0  0  0
 14 13  2  0  0  0  0
 14 34  1  0  0  0  0
 14 35  1  0  0  0  0
 15 13  1  0  0  0  0
 16 15  2  0  0  0  0
 17 15  1  0  0  0  0
 17  9  1  0  0  0  0
 18 36  1  0  0  0  0
 18 37  1  0  0  0  0
 18 38  1  0  0  0  0
M  END
>  <MOL Chiral Flag>
0

>  <energy>
51.818025385448209

$$$$
> 648_AKC_j.bmc.2004.03.054
>628.sdf
 OpenBabel10062216003D

 22 23  0  0  0  0  0  0  0  0999 V2000
   -5.4287   -0.6593    1.4104 Cl  0  0  0  0  0  0  0  0  0  0  0  0
   -3.7943   -0.4559    0.8068 C   0  0  0  0  0  0  0  0  0  0  0  0
   -3.2309   -1.4282   -0.0237 C   0  0  0  0  0  0  0  0  0  0  0  0
   -1.9314   -1.2623   -0.5114 C   0  0  0  0  0  0  0  0  0  0  0  0
   -1.1743   -0.1233   -0.1623 C   0  0  0  0  0  0  0  0  0  0  0  0
   -1.7458    0.8423    0.6799 C   0  0  0  0  0  0  0  0  0  0  0  0
   -3.0531    0.6795    1.1550 C   0  0  0  0  0  0  0  0  0  0  0  0
    0.2044    0.0409   -0.6944 C   0  0  0  0  0  0  0  0  0  0  0  0
    0.7129   -0.7541   -1.6512 N   0  0  0  0  0  0  0  0  0  0  0  0
    1.9274   -0.3416   -1.8567 O   0  0  0  0  0  0  0  0  0  0  0  0
    2.1980    0.6742   -1.0711 C   0  0  0  0  0  0  0  0  0  0  0  0
    3.5732    1.3572   -1.0054 C   0  0  0  0  0  0  0  0  0  0  0  0
    4.9328    0.1647   -1.5347 S   0  0  0  0  0  0  0  0  0  0  0  0
    6.5442    0.9712   -1.7925 C   0  0  0  0  0  0  0  0  0  0  0  0
    7.5629    1.4964   -2.0076 N   0  0  0  0  0  0  0  0  0  0  0  0
    1.1156    0.9695   -0.2995 N   0  0  0  0  0  0  0  0  0  0  0  0
   -3.7984   -2.3115   -0.2949 H   0  0  0  0  0  0  0  0  0  0  0  0
   -1.5137   -2.0280   -1.1540 H   0  0  0  0  0  0  0  0  0  0  0  0
   -1.1870    1.7261    0.9544 H   0  0  0  0  0  0  0  0  0  0  0  0
   -3.4890    1.4379    1.7920 H   0  0  0  0  0  0  0  0  0  0  0  0
    3.5146    2.2421   -1.6694 H   0  0  0  0  0  0  0  0  0  0  0  0
    3.7255    1.6812    0.0474 H   0  0  0  0  0  0  0  0  0  0  0  0
  2  1  1  0  0  0  0
  3  2  2  0  0  0  0
  3 17  1  0  0  0  0
  4  3  1  0  0  0  0
  4 18  1  0  0  0  0
  5  4  2  0  0  0  0
  6  5  1  0  0  0  0
  6 19  1  0  0  0  0
  7  6  2  0  0  0  0
  7  2  1  0  0  0  0
  7 20  1  0  0  0  0
  8  5  1  0  0  0  0
  9  8  2  0  0  0  0
 10  9  1  0  0  0  0
 11 10  1  0  0  0  0
 12 11  1  0  0  0  0
 12 21  1  0  0  0  0
 12 22  1  0  0  0  0
 13 12  1  0  0  0  0
 14 13  1  0  0  0  0
 15 14  3  0  0  0  0
 16 11  2  0  0  0  0
 16  8  1  0  0  0  0
M  END
>  <MOL Chiral Flag>
0

>  <energy>
23.336265036869506

$$$$
> 649_AKC
>629.sdf
 OpenBabel10062216003D

 30 32  0  0  0  0  0  0  0  0999 V2000
   -1.6989   -3.6044   -0.7619 C   0  0  0  0  0  0  0  0  0  0  0  0
   -1.9522   -2.2591   -0.1456 C   0  0  0  0  0  0  0  0  0  0  0  0
   -3.0367   -2.0740    0.5412 N   0  0  0  0  0  0  0  0  0  0  0  0
   -3.4723   -0.7499    0.9884 C   0  0  0  0  0  0  0  0  0  0  0  0
   -2.3274    0.2205    1.3603 C   0  0  0  0  0  0  0  0  0  0  0  0
   -1.1963    0.0365    0.4038 C   0  0  0  0  0  0  0  0  0  0  0  0
   -1.0036   -1.1342   -0.2911 C   0  0  0  0  0  0  0  0  0  0  0  0
    0.1514   -1.0829   -0.9968 N   0  0  0  0  0  0  0  0  0  0  0  0
    0.6832    0.1323   -0.7418 C   0  0  0  0  0  0  0  0  0  0  0  0
   -0.1239    0.8431    0.1113 C   0  0  0  0  0  0  0  0  0  0  0  0
    0.2013    2.1270    0.5314 C   0  0  0  0  0  0  0  0  0  0  0  0
    1.3951    2.6943    0.0538 C   0  0  0  0  0  0  0  0  0  0  0  0
    2.2526    1.9653   -0.8067 C   0  0  0  0  0  0  0  0  0  0  0  0
    1.8853    0.6530   -1.2155 C   0  0  0  0  0  0  0  0  0  0  0  0
    3.4107    2.5525   -1.2054 O   0  0  0  0  0  0  0  0  0  0  0  0
    4.4956    1.8856   -1.7354 C   0  0  0  0  0  0  0  0  0  0  0  0
   -1.6472   -4.3847    0.0245 H   0  0  0  0  0  0  0  0  0  0  0  0
   -0.7626   -3.6285   -1.3520 H   0  0  0  0  0  0  0  0  0  0  0  0
   -2.5396   -3.8421   -1.4493 H   0  0  0  0  0  0  0  0  0  0  0  0
   -4.2265   -0.8255    1.7998 H   0  0  0  0  0  0  0  0  0  0  0  0
   -3.9855   -0.2979    0.1132 H   0  0  0  0  0  0  0  0  0  0  0  0
   -1.9333    0.0156    2.3782 H   0  0  0  0  0  0  0  0  0  0  0  0
   -2.7228    1.2587    1.3314 H   0  0  0  0  0  0  0  0  0  0  0  0
    0.5693   -1.8271   -1.5981 H   0  0  0  0  0  0  0  0  0  0  0  0
   -0.4468    2.6773    1.2010 H   0  0  0  0  0  0  0  0  0  0  0  0
    1.6687    3.6950    0.3630 H   0  0  0  0  0  0  0  0  0  0  0  0
    2.5062    0.0607   -1.8732 H   0  0  0  0  0  0  0  0  0  0  0  0
    4.9060    1.1871   -0.9744 H   0  0  0  0  0  0  0  0  0  0  0  0
    4.2226    1.3341   -2.6581 H   0  0  0  0  0  0  0  0  0  0  0  0
    5.2821    2.6249   -1.9908 H   0  0  0  0  0  0  0  0  0  0  0  0
  1 17  1  0  0  0  0
  1 18  1  0  0  0  0
  1 19  1  0  0  0  0
  2  1  1  0  0  0  0
  3  2  2  0  0  0  0
  4  3  1  0  0  0  0
  4 20  1  0  0  0  0
  4 21  1  0  0  0  0
  5  4  1  0  0  0  0
  5 22  1  0  0  0  0
  5 23  1  0  0  0  0
  6  5  1  0  0  0  0
  7  6  2  0  0  0  0
  7  2  1  0  0  0  0
  8  7  1  0  0  0  0
  8 24  1  0  0  0  0
  9  8  1  0  0  0  0
 10  9  2  0  0  0  0
 10  6  1  0  0  0  0
 11 10  1  0  0  0  0
 11 25  1  0  0  0  0
 12 11  2  0  0  0  0
 12 26  1  0  0  0  0
 13 12  1  0  0  0  0
 14 13  2  0  0  0  0
 14  9  1  0  0  0  0
 14 27  1  0  0  0  0
 15 13  1  0  0  0  0
 16 15  1  0  0  0  0
 16 28  1  0  0  0  0
 16 29  1  0  0  0  0
 16 30  1  0  0  0  0
M  END
>  <MOL Chiral Flag>
0

>  <energy>
50.185444354823822

$$$$
> 650_AKC_0944-7113-00381
>630.sdf
 OpenBabel10062216013D

 81 85  0  0  0  0  0  0  0  0999 V2000
    5.7397    2.5980    2.5175 C   0  0  0  0  0  0  0  0  0  0  0  0
    5.2306    1.3379    1.7869 C   0  0  0  0  0  0  0  0  0  0  0  0
    5.4300    0.1416    2.7571 C   0  0  0  0  0  0  0  0  0  0  0  0
    6.0786    1.0971    0.4970 C   0  0  0  0  0  0  0  0  0  0  0  0
    5.2236    0.8601   -0.7568 C   0  0  0  0  0  0  0  0  0  0  0  0
    4.0290   -0.1336   -0.5694 C   0  0  2  0  0  0  0  0  0  0  0  0
    3.2627   -0.0840   -1.9199 C   0  0  0  0  0  0  0  0  0  0  0  0
    1.8468   -0.6348   -1.8263 C   0  0  0  0  0  0  0  0  0  0  0  0
    0.9263    0.1867   -0.8610 C   0  0  2  0  0  0  0  0  0  0  0  0
    0.8286    1.6517   -1.4232 C   0  0  0  0  0  0  0  0  0  0  0  0
    1.5976    0.3423    0.5081 C   0  0  0  0  0  0  0  0  0  0  0  0
    0.8307    0.4991    1.6214 C   0  0  0  0  0  0  0  0  0  0  0  0
   -0.6833    0.4690    1.6565 C   0  0  0  0  0  0  0  0  0  0  0  0
   -1.3994    0.3330    0.2851 C   0  0  2  0  0  0  0  0  0  0  0  0
   -2.9719    0.0184    0.3725 C   0  0  1  0  0  0  0  0  0  0  0  0
   -3.2736   -1.2898    1.1794 C   0  0  0  0  0  0  0  0  0  0  0  0
   -3.6874    1.1922    1.1170 C   0  0  0  0  0  0  0  0  0  0  0  0
   -5.2301    1.1179    1.0351 C   0  0  0  0  0  0  0  0  0  0  0  0
   -5.7042    1.1306   -0.4264 C   0  0  2  0  0  0  0  0  0  0  0  0
   -7.1116    1.1066   -0.4490 O   0  0  0  0  0  0  0  0  0  0  0  0
   -5.1042   -0.0322   -1.2874 C   0  0  0  0  0  0  0  0  0  0  0  0
   -5.7564   -1.4014   -0.9561 C   0  0  0  0  0  0  0  0  0  0  0  0
   -5.4789    0.2601   -2.7695 C   0  0  0  0  0  0  0  0  0  0  0  0
   -3.5256    0.0062   -1.1142 C   0  0  2  0  0  0  0  0  0  0  0  0
   -2.7436   -1.0248   -1.9740 C   0  0  0  0  0  0  0  0  0  0  0  0
   -1.2618   -0.6178   -2.0702 C   0  0  0  0  0  0  0  0  0  0  0  0
   -0.5228   -0.5358   -0.7006 C   0  0  1  0  0  0  0  0  0  0  0  0
   -0.3217   -1.9932   -0.1663 C   0  0  0  0  0  0  0  0  0  0  0  0
    3.1363    0.2832    0.6915 C   0  0  2  0  0  0  0  0  0  0  0  0
    3.7174    1.5271    1.4352 C   0  0  0  0  0  0  0  0  0  0  0  0
    4.5448   -1.5656   -0.3554 C   0  0  0  0  0  0  0  0  0  0  0  0
    3.6746   -2.5775   -0.1471 O   0  0  0  0  0  0  0  0  0  0  0  0
    5.7441   -1.8034   -0.3569 O   0  0  0  0  0  0  0  0  0  0  0  0
    5.1696    2.7659    3.4571 H   0  0  0  0  0  0  0  0  0  0  0  0
    6.8156    2.4925    2.7792 H   0  0  0  0  0  0  0  0  0  0  0  0
    5.6245    3.4970    1.8754 H   0  0  0  0  0  0  0  0  0  0  0  0
    4.8216    0.2708    3.6773 H   0  0  0  0  0  0  0  0  0  0  0  0
    6.4974    0.0613    3.0582 H   0  0  0  0  0  0  0  0  0  0  0  0
    5.1719   -0.8314    2.2963 H   0  0  0  0  0  0  0  0  0  0  0  0
    6.7973    0.2648    0.6537 H   0  0  0  0  0  0  0  0  0  0  0  0
    6.7134    1.9803    0.2586 H   0  0  0  0  0  0  0  0  0  0  0  0
    4.7946    1.8532   -1.0211 H   0  0  0  0  0  0  0  0  0  0  0  0
    5.8775    0.5719   -1.6098 H   0  0  0  0  0  0  0  0  0  0  0  0
    3.8416   -0.6411   -2.6909 H   0  0  0  0  0  0  0  0  0  0  0  0
    3.2052    0.9409   -2.3256 H   0  0  0  0  0  0  0  0  0  0  0  0
    1.4129   -0.6351   -2.8478 H   0  0  0  0  0  0  0  0  0  0  0  0
    1.9498   -1.6822   -1.5181 H   0  0  0  0  0  0  0  0  0  0  0  0
    0.2406    2.3451   -0.7981 H   0  0  0  0  0  0  0  0  0  0  0  0
    0.4428    1.6817   -2.4607 H   0  0  0  0  0  0  0  0  0  0  0  0
    1.8065    2.1674   -1.4300 H   0  0  0  0  0  0  0  0  0  0  0  0
    1.3146    0.5795    2.5884 H   0  0  0  0  0  0  0  0  0  0  0  0
   -0.8853   -0.4109    2.2885 H   0  0  0  0  0  0  0  0  0  0  0  0
   -1.0629    1.3679    2.1857 H   0  0  0  0  0  0  0  0  0  0  0  0
   -1.3989    1.3383   -0.1582 H   0  0  0  0  0  0  0  0  0  0  0  0
   -2.7576   -1.3146    2.1530 H   0  0  0  0  0  0  0  0  0  0  0  0
   -3.0885   -2.2218    0.6382 H   0  0  0  0  0  0  0  0  0  0  0  0
   -4.3088   -1.3885    1.5054 H   0  0  0  0  0  0  0  0  0  0  0  0
   -3.3881    2.1597    0.6552 H   0  0  0  0  0  0  0  0  0  0  0  0
   -3.3828    1.2265    2.1846 H   0  0  0  0  0  0  0  0  0  0  0  0
   -5.6378    0.2344    1.5593 H   0  0  0  0  0  0  0  0  0  0  0  0
   -5.6525    2.0052    1.5555 H   0  0  0  0  0  0  0  0  0  0  0  0
   -5.3355    2.1023   -0.8401 H   0  0  0  0  0  0  0  0  0  0  0  0
   -7.4126    1.7554   -1.1373 H   0  0  0  0  0  0  0  0  0  0  0  0
   -5.3052   -2.2091   -1.5700 H   0  0  0  0  0  0  0  0  0  0  0  0
   -5.7160   -1.7014    0.0924 H   0  0  0  0  0  0  0  0  0  0  0  0
   -6.8420   -1.3773   -1.1918 H   0  0  0  0  0  0  0  0  0  0  0  0
   -5.1411   -0.5376   -3.4597 H   0  0  0  0  0  0  0  0  0  0  0  0
   -6.5810    0.3199   -2.8985 H   0  0  0  0  0  0  0  0  0  0  0  0
   -5.0477    1.2260   -3.1090 H   0  0  0  0  0  0  0  0  0  0  0  0
   -3.2581    1.0041   -1.5364 H   0  0  0  0  0  0  0  0  0  0  0  0
   -2.8686   -2.0567   -1.5941 H   0  0  0  0  0  0  0  0  0  0  0  0
   -3.1070   -1.0228   -3.0180 H   0  0  0  0  0  0  0  0  0  0  0  0
   -1.2659    0.3757   -2.5586 H   0  0  0  0  0  0  0  0  0  0  0  0
   -0.7389   -1.3176   -2.7555 H   0  0  0  0  0  0  0  0  0  0  0  0
    0.2126   -2.0169    0.8042 H   0  0  0  0  0  0  0  0  0  0  0  0
   -1.2397   -2.5623   -0.0508 H   0  0  0  0  0  0  0  0  0  0  0  0
    0.2324   -2.6299   -0.8768 H   0  0  0  0  0  0  0  0  0  0  0  0
    3.2289   -0.5423    1.4260 H   0  0  0  0  0  0  0  0  0  0  0  0
    3.1675    1.7164    2.3796 H   0  0  0  0  0  0  0  0  0  0  0  0
    3.5782    2.4300    0.8021 H   0  0  0  0  0  0  0  0  0  0  0  0
    3.9850   -3.4823   -0.0010 H   0  0  0  0  0  0  0  0  0  0  0  0
  1 34  1  0  0  0  0
  1 35  1  0  0  0  0
  1 36  1  0  0  0  0
  2  1  1  0  0  0  0
  3  2  1  0  0  0  0
  3 37  1  0  0  0  0
  3 38  1  0  0  0  0
  3 39  1  0  0  0  0
  4  2  1  0  0  0  0
  4 40  1  0  0  0  0
  4 41  1  0  0  0  0
  5  4  1  0  0  0  0
  5 42  1  0  0  0  0
  5 43  1  0  0  0  0
  6  5  1  0  0  0  0
  6 31  1  1  0  0  0
  7  6  1  0  0  0  0
  7 44  1  0  0  0  0
  7 45  1  0  0  0  0
  8  7  1  0  0  0  0
  8 46  1  0  0  0  0
  8 47  1  0  0  0  0
  9  8  1  0  0  0  0
  9 10  1  6  0  0  0
 10 48  1  0  0  0  0
 10 49  1  0  0  0  0
 10 50  1  0  0  0  0
 11  9  1  0  0  0  0
 12 11  2  0  0  0  0
 12 51  1  0  0  0  0
 13 12  1  0  0  0  0
 13 52  1  0  0  0  0
 13 53  1  0  0  0  0
 14 13  1  0  0  0  0
 14 54  1  6  0  0  0
 15 14  1  0  0  0  0
 15 16  1  1  0  0  0
 16 55  1  0  0  0  0
 16 56  1  0  0  0  0
 16 57  1  0  0  0  0
 17 15  1  0  0  0  0
 17 58  1  0  0  0  0
 17 59  1  0  0  0  0
 18 17  1  0  0  0  0
 18 60  1  0  0  0  0
 18 61  1  0  0  0  0
 19 18  1  0  0  0  0
 19 62  1  6  0  0  0
 20 19  1  0  0  0  0
 20 63  1  0  0  0  0
 21 19  1  0  0  0  0
 22 21  1  0  0  0  0
 22 64  1  0  0  0  0
 22 65  1  0  0  0  0
 22 66  1  0  0  0  0
 23 21  1  0  0  0  0
 23 67  1  0  0  0  0
 23 68  1  0  0  0  0
 23 69  1  0  0  0  0
 24 21  1  0  0  0  0
 24 15  1  0  0  0  0
 24 70  1  6  0  0  0
 25 24  1  0  0  0  0
 25 71  1  0  0  0  0
 25 72  1  0  0  0  0
 26 25  1  0  0  0  0
 26 73  1  0  0  0  0
 26 74  1  0  0  0  0
 27 26  1  0  0  0  0
 27  9  1  0  0  0  0
 27 14  1  0  0  0  0
 27 28  1  1  0  0  0
 28 75  1  0  0  0  0
 28 76  1  0  0  0  0
 28 77  1  0  0  0  0
 29 11  1  0  0  0  0
 29  6  1  0  0  0  0
 29 78  1  1  0  0  0
 30 29  1  0  0  0  0
 30  2  1  0  0  0  0
 30 79  1  0  0  0  0
 30 80  1  0  0  0  0
 32 31  1  0  0  0  0
 32 81  1  0  0  0  0
 33 31  2  0  0  0  0
M  END
>  <MOL Chiral Flag>
0

>  <energy>
154.93545560806379

$$$$
> 651_AKC_s-2004-815460
>631.sdf
 OpenBabel10062216023D

 69 74  0  0  0  0  0  0  0  0999 V2000
    4.6290    4.0582    1.6434 C   0  0  0  0  0  0  0  0  0  0  0  0
    4.2403    2.8044    0.8610 C   0  0  2  0  0  0  0  0  0  0  0  0
    3.0249    2.0880    1.4805 C   0  0  2  0  0  0  0  0  0  0  0  0
    2.7531    0.7860    0.7375 C   0  0  0  0  0  0  0  0  0  0  0  0
    3.7357    0.2242   -0.0110 C   0  0  0  0  0  0  0  0  0  0  0  0
    5.1374    0.8528   -0.0796 C   0  0  2  0  0  0  0  0  0  0  0  0
    5.3405    1.9240    0.8331 O   0  0  0  0  0  0  0  0  0  0  0  0
    5.5227    1.2824   -1.5085 C   0  0  0  0  0  0  0  0  0  0  0  0
    3.4739   -1.0333   -0.7591 C   0  0  0  0  0  0  0  0  0  0  0  0
    4.3963   -1.5797   -1.3464 O   0  0  0  0  0  0  0  0  0  0  0  0
    2.0999   -1.6038   -0.8312 C   0  0  0  0  0  0  0  0  0  0  0  0
    1.8315   -2.7220   -1.6528 C   0  0  0  0  0  0  0  0  0  0  0  0
    0.5382   -3.2251   -1.7462 C   0  0  0  0  0  0  0  0  0  0  0  0
   -0.5089   -2.6343   -1.0467 C   0  0  0  0  0  0  0  0  0  0  0  0
   -0.2793   -1.5207   -0.2095 C   0  0  0  0  0  0  0  0  0  0  0  0
    1.0552   -1.0082   -0.0791 C   0  0  0  0  0  0  0  0  0  0  0  0
    1.4019    0.1425    0.8182 C   0  0  0  0  0  0  0  0  0  0  0  0
    0.5629    0.6031    1.5783 O   0  0  0  0  0  0  0  0  0  0  0  0
   -1.4883   -0.9747    0.5066 C   0  0  0  0  0  0  0  0  0  0  0  0
   -2.1135    0.2481    0.1032 C   0  0  0  0  0  0  0  0  0  0  0  0
   -1.5870    1.1142   -1.0489 C   0  0  1  0  0  0  0  0  0  0  0  0
   -2.1137    2.5449   -0.9029 C   0  0  2  0  0  0  0  0  0  0  0  0
   -3.5178    2.5194   -0.9232 O   0  0  0  0  0  0  0  0  0  0  0  0
   -4.0625    1.9166    0.2379 C   0  0  1  0  0  0  0  0  0  0  0  0
   -3.3470    0.6287    0.6993 C   0  0  0  0  0  0  0  0  0  0  0  0
   -3.9576   -0.2001    1.6825 C   0  0  0  0  0  0  0  0  0  0  0  0
   -3.3290   -1.3958    2.1242 C   0  0  0  0  0  0  0  0  0  0  0  0
   -2.0914   -1.7779    1.5227 C   0  0  0  0  0  0  0  0  0  0  0  0
   -1.4714   -2.9859    1.9322 C   0  0  0  0  0  0  0  0  0  0  0  0
   -2.0499   -3.8096    2.8902 C   0  0  0  0  0  0  0  0  0  0  0  0
   -3.2500   -3.4506    3.4728 C   0  0  0  0  0  0  0  0  0  0  0  0
   -3.9039   -2.2689    3.1263 C   0  0  0  0  0  0  0  0  0  0  0  0
   -5.0630   -2.0348    3.7908 O   0  0  0  0  0  0  0  0  0  0  0  0
   -1.4529   -4.9618    3.2596 O   0  0  0  0  0  0  0  0  0  0  0  0
   -5.1792    0.1160    2.1624 O   0  0  0  0  0  0  0  0  0  0  0  0
   -4.1799    2.9729    1.3581 C   0  0  0  0  0  0  0  0  0  0  0  0
   -1.6335    3.4541   -2.0373 C   0  0  0  0  0  0  0  0  0  0  0  0
   -0.1920    1.1879   -1.0863 O   0  0  0  0  0  0  0  0  0  0  0  0
   -1.7588   -3.1340   -1.1744 O   0  0  0  0  0  0  0  0  0  0  0  0
    2.8204   -3.3110   -2.3607 O   0  0  0  0  0  0  0  0  0  0  0  0
    1.9069    2.9427    1.4465 O   0  0  0  0  0  0  0  0  0  0  0  0
    5.4960    4.5493    1.1506 H   0  0  0  0  0  0  0  0  0  0  0  0
    3.7875    4.7828    1.6631 H   0  0  0  0  0  0  0  0  0  0  0  0
    4.9118    3.7968    2.6846 H   0  0  0  0  0  0  0  0  0  0  0  0
    3.9883    3.1483   -0.1675 H   0  0  0  0  0  0  0  0  0  0  0  0
    3.2252    1.8273    2.5424 H   0  0  0  0  0  0  0  0  0  0  0  0
    5.8506    0.0597    0.2322 H   0  0  0  0  0  0  0  0  0  0  0  0
    5.5046    0.4260   -2.2115 H   0  0  0  0  0  0  0  0  0  0  0  0
    6.5538    1.6943   -1.5113 H   0  0  0  0  0  0  0  0  0  0  0  0
    4.8313    2.0530   -1.9051 H   0  0  0  0  0  0  0  0  0  0  0  0
    0.3408   -4.0806   -2.3804 H   0  0  0  0  0  0  0  0  0  0  0  0
   -1.9770    0.6646   -1.9939 H   0  0  0  0  0  0  0  0  0  0  0  0
   -1.7262    2.9964    0.0394 H   0  0  0  0  0  0  0  0  0  0  0  0
   -5.0846    1.6169   -0.0744 H   0  0  0  0  0  0  0  0  0  0  0  0
   -0.5294   -3.3059    1.5108 H   0  0  0  0  0  0  0  0  0  0  0  0
   -3.6895   -4.1022    4.2193 H   0  0  0  0  0  0  0  0  0  0  0  0
   -5.6247   -1.2587    3.7717 H   0  0  0  0  0  0  0  0  0  0  0  0
   -0.6157   -5.2521    2.8702 H   0  0  0  0  0  0  0  0  0  0  0  0
   -5.7682    0.7936    1.8129 H   0  0  0  0  0  0  0  0  0  0  0  0
   -4.7053    2.6011    2.2572 H   0  0  0  0  0  0  0  0  0  0  0  0
   -4.7495    3.8485    0.9813 H   0  0  0  0  0  0  0  0  0  0  0  0
   -3.1827    3.3162    1.6964 H   0  0  0  0  0  0  0  0  0  0  0  0
   -1.9847    3.0710   -3.0182 H   0  0  0  0  0  0  0  0  0  0  0  0
   -2.0338    4.4797   -1.8876 H   0  0  0  0  0  0  0  0  0  0  0  0
   -0.5245    3.5220   -2.0484 H   0  0  0  0  0  0  0  0  0  0  0  0
    0.0961    1.0224   -2.0226 H   0  0  0  0  0  0  0  0  0  0  0  0
   -1.9521   -3.8988   -1.7348 H   0  0  0  0  0  0  0  0  0  0  0  0
    2.6603   -4.0810   -2.9250 H   0  0  0  0  0  0  0  0  0  0  0  0
    1.6688    3.0939    0.4941 H   0  0  0  0  0  0  0  0  0  0  0  0
  1 42  1  0  0  0  0
  1 43  1  0  0  0  0
  1 44  1  0  0  0  0
  2  1  1  0  0  0  0
  2 45  1  6  0  0  0
  3  2  1  0  0  0  0
  3 46  1  1  0  0  0
  4  3  1  0  0  0  0
  5  4  2  0  0  0  0
  6  5  1  0  0  0  0
  6 47  1  1  0  0  0
  7  6  1  0  0  0  0
  7  2  1  0  0  0  0
  8  6  1  0  0  0  0
  8 48  1  0  0  0  0
  8 49  1  0  0  0  0
  8 50  1  0  0  0  0
  9  5  1  0  0  0  0
 10  9  2  0  0  0  0
 11  9  1  0  0  0  0
 12 11  2  0  0  0  0
 13 12  1  0  0  0  0
 13 51  1  0  0  0  0
 14 13  2  0  0  0  0
 15 14  1  0  0  0  0
 16 15  2  0  0  0  0
 16 11  1  0  0  0  0
 17 16  1  0  0  0  0
 17  4  1  0  0  0  0
 18 17  2  0  0  0  0
 19 15  1  0  0  0  0
 20 19  2  0  0  0  0
 21 20  1  0  0  0  0
 21 52  1  6  0  0  0
 22 21  1  0  0  0  0
 22 53  1  1  0  0  0
 23 22  1  0  0  0  0
 24 23  1  0  0  0  0
 24 54  1  6  0  0  0
 25 24  1  0  0  0  0
 25 20  1  0  0  0  0
 26 25  2  0  0  0  0
 27 26  1  0  0  0  0
 28 27  2  0  0  0  0
 28 19  1  0  0  0  0
 29 28  1  0  0  0  0
 29 55  1  0  0  0  0
 30 29  2  0  0  0  0
 31 30  1  0  0  0  0
 31 56  1  0  0  0  0
 32 31  2  0  0  0  0
 32 27  1  0  0  0  0
 33 32  1  0  0  0  0
 33 57  1  0  0  0  0
 34 30  1  0  0  0  0
 34 58  1  0  0  0  0
 35 26  1  0  0  0  0
 35 59  1  0  0  0  0
 36 24  1  0  0  0  0
 36 60  1  0  0  0  0
 36 61  1  0  0  0  0
 36 62  1  0  0  0  0
 37 22  1  0  0  0  0
 37 63  1  0  0  0  0
 37 64  1  0  0  0  0
 37 65  1  0  0  0  0
 38 21  1  0  0  0  0
 38 66  1  0  0  0  0
 39 14  1  0  0  0  0
 39 67  1  0  0  0  0
 40 12  1  0  0  0  0
 40 68  1  0  0  0  0
 41  3  1  0  0  0  0
 41 69  1  0  0  0  0
M  END
>  <MOL Chiral Flag>
0

>  <energy>
214.99293340237071

$$$$
> 652_AKC_S0001-706X(02)00258-9
>633.sdf
 OpenBabel10062216043D

 56 56  0  0  0  0  0  0  0  0999 V2000
    4.4455   -1.6996    4.3391 C   0  0  0  0  0  0  0  0  0  0  0  0
    4.0821   -0.2892    4.8073 C   0  0  0  0  0  0  0  0  0  0  0  0
    3.1011    0.5347    3.9586 C   0  0  0  0  0  0  0  0  0  0  0  0
    2.9670    0.4124    2.6095 C   0  0  0  0  0  0  0  0  0  0  0  0
    1.9423    1.2489    1.8270 C   0  0  0  0  0  0  0  0  0  0  0  0
    1.0892    2.2108    2.6412 C   0  0  0  0  0  0  0  0  0  0  0  0
   -0.0161    3.0169    1.9848 C   0  0  0  0  0  0  0  0  0  0  0  0
   -0.4212    2.8408    0.5045 C   0  0  0  0  0  0  0  0  0  0  0  0
   -1.7425    3.6321    0.3625 C   0  0  0  0  0  0  0  0  0  0  0  0
   -2.5253    3.5534   -0.9538 C   0  0  0  0  0  0  0  0  0  0  0  0
   -3.9065    4.1867   -0.6721 C   0  0  0  0  0  0  0  0  0  0  0  0
   -4.8960    4.1568   -1.8341 C   0  0  0  0  0  0  0  0  0  0  0  0
   -6.2698    4.6463   -1.3219 C   0  0  0  0  0  0  0  0  0  0  0  0
   -7.3603    4.6483   -2.3995 C   0  0  0  0  0  0  0  0  0  0  0  0
   -7.1628    5.6807   -3.4772 C   0  0  0  0  0  0  0  0  0  0  0  0
   -6.2164    6.4560   -3.4332 O   0  0  0  0  0  0  0  0  0  0  0  0
   -8.0688    5.7493   -4.4864 O   0  0  0  0  0  0  0  0  0  0  0  0
   -8.0024    6.6350   -5.5446 C   0  0  0  0  0  0  0  0  0  0  0  0
    1.2685    2.3412    3.9860 C   0  0  0  0  0  0  0  0  0  0  0  0
    0.4383    3.2877    4.8482 C   0  0  0  0  0  0  0  0  0  0  0  0
    2.2789    1.5290    4.6847 C   0  0  0  0  0  0  0  0  0  0  0  0
    2.4220    1.6674    5.8910 O   0  0  0  0  0  0  0  0  0  0  0  0
    3.7652   -0.4660    1.9450 O   0  0  0  0  0  0  0  0  0  0  0  0
    3.7945   -0.6524    0.5803 C   0  0  0  0  0  0  0  0  0  0  0  0
    5.0819   -1.6907    3.4346 H   0  0  0  0  0  0  0  0  0  0  0  0
    5.0369   -2.1999    5.1359 H   0  0  0  0  0  0  0  0  0  0  0  0
    3.5233   -2.2950    4.1646 H   0  0  0  0  0  0  0  0  0  0  0  0
    3.5880   -0.4661    5.7883 H   0  0  0  0  0  0  0  0  0  0  0  0
    4.9912    0.3125    5.0177 H   0  0  0  0  0  0  0  0  0  0  0  0
    1.2597    0.5381    1.3169 H   0  0  0  0  0  0  0  0  0  0  0  0
    2.4802    1.8431    1.0581 H   0  0  0  0  0  0  0  0  0  0  0  0
   -0.9135    2.7160    2.5686 H   0  0  0  0  0  0  0  0  0  0  0  0
    0.1991    4.0974    2.1419 H   0  0  0  0  0  0  0  0  0  0  0  0
    0.3662    3.2140   -0.1862 H   0  0  0  0  0  0  0  0  0  0  0  0
   -0.6216    1.7690    0.2911 H   0  0  0  0  0  0  0  0  0  0  0  0
   -2.4257    3.2150    1.1354 H   0  0  0  0  0  0  0  0  0  0  0  0
   -1.5610    4.7047    0.6010 H   0  0  0  0  0  0  0  0  0  0  0  0
   -1.9853    4.0823   -1.7692 H   0  0  0  0  0  0  0  0  0  0  0  0
   -2.6724    2.4899   -1.2406 H   0  0  0  0  0  0  0  0  0  0  0  0
   -4.3721    3.6146    0.1623 H   0  0  0  0  0  0  0  0  0  0  0  0
   -3.7754    5.2418   -0.3418 H   0  0  0  0  0  0  0  0  0  0  0  0
   -5.0055    3.1150   -2.2059 H   0  0  0  0  0  0  0  0  0  0  0  0
   -4.5099    4.7930   -2.6568 H   0  0  0  0  0  0  0  0  0  0  0  0
   -6.1892    5.6631   -0.8768 H   0  0  0  0  0  0  0  0  0  0  0  0
   -6.6018    3.9516   -0.5175 H   0  0  0  0  0  0  0  0  0  0  0  0
   -8.3351    4.8650   -1.9102 H   0  0  0  0  0  0  0  0  0  0  0  0
   -7.4205    3.6370   -2.8553 H   0  0  0  0  0  0  0  0  0  0  0  0
   -7.9488    6.0595   -6.4911 H   0  0  0  0  0  0  0  0  0  0  0  0
   -7.1189    7.3067   -5.4922 H   0  0  0  0  0  0  0  0  0  0  0  0
   -8.9193    7.2589   -5.5539 H   0  0  0  0  0  0  0  0  0  0  0  0
    1.1151    3.9975    5.3659 H   0  0  0  0  0  0  0  0  0  0  0  0
   -0.3121    3.9045    4.3202 H   0  0  0  0  0  0  0  0  0  0  0  0
   -0.1136    2.6952    5.6076 H   0  0  0  0  0  0  0  0  0  0  0  0
    4.0874    0.2888    0.0694 H   0  0  0  0  0  0  0  0  0  0  0  0
    2.8077   -1.0039    0.2151 H   0  0  0  0  0  0  0  0  0  0  0  0
    4.5543   -1.4266    0.3447 H   0  0  0  0  0  0  0  0  0  0  0  0
  1 25  1  0  0  0  0
  1 26  1  0  0  0  0
  1 27  1  0  0  0  0
  2  1  1  0  0  0  0
  2 28  1  0  0  0  0
  2 29  1  0  0  0  0
  3  2  1  0  0  0  0
  4  3  2  0  0  0  0
  5  4  1  0  0  0  0
  5 30  1  0  0  0  0
  5 31  1  0  0  0  0
  6  5  1  0  0  0  0
  7  6  1  0  0  0  0
  7 32  1  0  0  0  0
  7 33  1  0  0  0  0
  8  7  1  0  0  0  0
  8 34  1  0  0  0  0
  8 35  1  0  0  0  0
  9  8  1  0  0  0  0
  9 36  1  0  0  0  0
  9 37  1  0  0  0  0
 10  9  1  0  0  0  0
 10 38  1  0  0  0  0
 10 39  1  0  0  0  0
 11 10  1  0  0  0  0
 11 40  1  0  0  0  0
 11 41  1  0  0  0  0
 12 11  1  0  0  0  0
 12 42  1  0  0  0  0
 12 43  1  0  0  0  0
 13 12  1  0  0  0  0
 13 44  1  0  0  0  0
 13 45  1  0  0  0  0
 14 13  1  0  0  0  0
 14 46  1  0  0  0  0
 14 47  1  0  0  0  0
 15 14  1  0  0  0  0
 16 15  2  0  0  0  0
 17 15  1  0  0  0  0
 18 17  1  0  0  0  0
 18 48  1  0  0  0  0
 18 49  1  0  0  0  0
 18 50  1  0  0  0  0
 19  6  2  0  0  0  0
 20 19  1  0  0  0  0
 20 51  1  0  0  0  0
 20 52  1  0  0  0  0
 20 53  1  0  0  0  0
 21 19  1  0  0  0  0
 21  3  1  0  0  0  0
 22 21  2  0  0  0  0
 23  4  1  0  0  0  0
 24 23  1  0  0  0  0
 24 54  1  0  0  0  0
 24 55  1  0  0  0  0
 24 56  1  0  0  0  0
M  END
>  <MOL Chiral Flag>
0

>  <energy>
31.448695025980399

$$$$
> 653_AKC_S0223-5234(03)00119-3
>634.sdf
 OpenBabel10062216043D

 34 36  0  0  0  0  0  0  0  0999 V2000
   -5.3345    2.8262    0.1929 C   0  0  0  0  0  0  0  0  0  0  0  0
   -4.1478    2.0499   -0.2760 C   0  0  0  0  0  0  0  0  0  0  0  0
   -3.4337    2.3930   -1.3620 N   0  0  0  0  0  0  0  0  0  0  0  0
   -2.4585    1.5422   -1.4708 O   0  0  0  0  0  0  0  0  0  0  0  0
   -2.4985    0.6463   -0.5095 C   0  0  0  0  0  0  0  0  0  0  0  0
   -3.5842    0.9216    0.3048 C   0  0  0  0  0  0  0  0  0  0  0  0
   -1.4879   -0.3541   -0.3341 N   0  0  0  0  0  0  0  0  0  0  0  0
   -1.4050   -1.3245    0.7392 C   0  0  0  0  0  0  0  0  0  0  0  0
    0.0125   -1.9855    0.5120 C   0  0  0  0  0  0  0  0  0  0  0  0
    0.5527   -1.2238   -0.5998 N   0  0  0  0  0  0  0  0  0  0  0  0
    1.9672   -1.0774   -0.9505 C   0  0  0  0  0  0  0  0  0  0  0  0
    2.7860   -2.2262   -1.4962 C   0  0  0  0  0  0  0  0  0  0  0  0
    3.4811   -3.0780   -0.6198 C   0  0  0  0  0  0  0  0  0  0  0  0
    4.4712   -3.9408   -1.1113 C   0  0  0  0  0  0  0  0  0  0  0  0
    4.7744   -3.9605   -2.4770 C   0  0  0  0  0  0  0  0  0  0  0  0
    6.1980   -5.0572   -3.1298 Br  0  0  0  0  0  0  0  0  0  0  0  0
    4.0685   -3.1392   -3.3588 C   0  0  0  0  0  0  0  0  0  0  0  0
    3.0842   -2.2722   -2.8734 C   0  0  0  0  0  0  0  0  0  0  0  0
   -0.3630   -0.3599   -1.0552 C   0  0  0  0  0  0  0  0  0  0  0  0
   -0.1427    0.4368   -1.9544 O   0  0  0  0  0  0  0  0  0  0  0  0
   -5.1551    3.2175    1.2158 H   0  0  0  0  0  0  0  0  0  0  0  0
   -5.5057    3.6916   -0.4859 H   0  0  0  0  0  0  0  0  0  0  0  0
   -6.2379    2.1849    0.1856 H   0  0  0  0  0  0  0  0  0  0  0  0
   -3.9039    0.4096    1.2030 H   0  0  0  0  0  0  0  0  0  0  0  0
   -2.2363   -2.0614    0.6952 H   0  0  0  0  0  0  0  0  0  0  0  0
   -1.4202   -0.7876    1.7144 H   0  0  0  0  0  0  0  0  0  0  0  0
   -0.0744   -3.0584    0.2320 H   0  0  0  0  0  0  0  0  0  0  0  0
    0.6375   -1.8645    1.4229 H   0  0  0  0  0  0  0  0  0  0  0  0
    2.4984   -0.6864   -0.0591 H   0  0  0  0  0  0  0  0  0  0  0  0
    2.0871   -0.2511   -1.6820 H   0  0  0  0  0  0  0  0  0  0  0  0
    3.3069   -3.0255    0.4469 H   0  0  0  0  0  0  0  0  0  0  0  0
    5.0367   -4.5591   -0.4257 H   0  0  0  0  0  0  0  0  0  0  0  0
    4.3158   -3.1372   -4.4137 H   0  0  0  0  0  0  0  0  0  0  0  0
    2.5946   -1.5968   -3.5640 H   0  0  0  0  0  0  0  0  0  0  0  0
  1 21  1  0  0  0  0
  1 22  1  0  0  0  0
  1 23  1  0  0  0  0
  2  1  1  0  0  0  0
  3  2  2  0  0  0  0
  4  3  1  0  0  0  0
  5  4  1  0  0  0  0
  6  5  2  0  0  0  0
  6  2  1  0  0  0  0
  6 24  1  0  0  0  0
  7  5  1  0  0  0  0
  8  7  1  0  0  0  0
  8 25  1  0  0  0  0
  8 26  1  0  0  0  0
  9  8  1  0  0  0  0
  9 27  1  0  0  0  0
  9 28  1  0  0  0  0
 10  9  1  0  0  0  0
 11 10  1  0  0  0  0
 11 29  1  0  0  0  0
 11 30  1  0  0  0  0
 12 11  1  0  0  0  0
 13 12  2  0  0  0  0
 13 31  1  0  0  0  0
 14 13  1  0  0  0  0
 14 32  1  0  0  0  0
 15 14  2  0  0  0  0
 16 15  1  0  0  0  0
 17 15  1  0  0  0  0
 17 33  1  0  0  0  0
 18 17  2  0  0  0  0
 18 12  1  0  0  0  0
 18 34  1  0  0  0  0
 19 10  1  0  0  0  0
 19  7  1  0  0  0  0
 20 19  2  0  0  0  0
M  END
>  <MOL Chiral Flag>
0

>  <energy>
-11.229001775182354

$$$$
> 654_AKC_1475636021000005613
>635.sdf
 OpenBabel10062216043D

 42 45  0  0  0  0  0  0  0  0999 V2000
   -4.2135   -0.4493    1.5177 C   0  0  0  0  0  0  0  0  0  0  0  0
   -3.7112   -0.4608    0.0796 C   0  0  0  0  0  0  0  0  0  0  0  0
   -2.3617    0.1050    0.0053 N   0  0  0  0  0  0  0  0  0  0  0  0
   -1.2231   -0.5153    0.4056 C   0  0  0  0  0  0  0  0  0  0  0  0
   -0.1290    0.3170    0.1748 C   0  0  0  0  0  0  0  0  0  0  0  0
    1.3338    0.0279    0.4429 C   0  0  1  0  0  0  0  0  0  0  0  0
    1.5071   -0.6459    1.7340 N   0  0  0  0  0  0  0  0  0  0  0  0
    1.7522   -0.0669    2.9213 C   0  0  0  0  0  0  0  0  0  0  0  0
    1.8242   -1.0590    3.8738 C   0  0  0  0  0  0  0  0  0  0  0  0
    1.6288   -2.2551    3.2802 N   0  0  0  0  0  0  0  0  0  0  0  0
    1.4342   -1.9719    1.9767 C   0  0  0  0  0  0  0  0  0  0  0  0
    2.0489   -0.7249   -0.6787 C   0  0  0  0  0  0  0  0  0  0  0  0
    1.3240   -1.4618   -1.6420 C   0  0  0  0  0  0  0  0  0  0  0  0
    1.9872   -2.1475   -2.6609 C   0  0  0  0  0  0  0  0  0  0  0  0
    3.3782   -2.1017   -2.7481 C   0  0  0  0  0  0  0  0  0  0  0  0
    4.2033   -2.9560   -4.0392 Cl  0  0  0  0  0  0  0  0  0  0  0  0
    4.1123   -1.3758   -1.8081 C   0  0  0  0  0  0  0  0  0  0  0  0
    3.4614   -0.6952   -0.7709 C   0  0  0  0  0  0  0  0  0  0  0  0
    4.4415    0.2097    0.3794 Cl  0  0  0  0  0  0  0  0  0  0  0  0
   -0.6443    1.4814   -0.3729 C   0  0  0  0  0  0  0  0  0  0  0  0
   -2.0022    1.3175   -0.4696 C   0  0  0  0  0  0  0  0  0  0  0  0
   -2.8227    2.3255   -0.9880 C   0  0  0  0  0  0  0  0  0  0  0  0
   -2.2177    3.5195   -1.4166 C   0  0  0  0  0  0  0  0  0  0  0  0
   -0.8184    3.6849   -1.3232 C   0  0  0  0  0  0  0  0  0  0  0  0
   -0.0115    5.3122   -1.9112 Br  0  0  0  0  0  0  0  0  0  0  0  0
   -0.0170    2.6558   -0.7973 C   0  0  0  0  0  0  0  0  0  0  0  0
   -3.5455   -1.0390    2.1779 H   0  0  0  0  0  0  0  0  0  0  0  0
   -4.2544    0.6006    1.8829 H   0  0  0  0  0  0  0  0  0  0  0  0
   -5.2386   -0.8743    1.5575 H   0  0  0  0  0  0  0  0  0  0  0  0
   -4.4247    0.1354   -0.5226 H   0  0  0  0  0  0  0  0  0  0  0  0
   -3.7061   -1.4906   -0.3384 H   0  0  0  0  0  0  0  0  0  0  0  0
   -1.1880   -1.5116    0.8270 H   0  0  0  0  0  0  0  0  0  0  0  0
    1.8008    1.0330    0.4969 H   0  0  0  0  0  0  0  0  0  0  0  0
    1.8556    0.9977    3.0846 H   0  0  0  0  0  0  0  0  0  0  0  0
    2.0001   -0.9255    4.9325 H   0  0  0  0  0  0  0  0  0  0  0  0
    1.2515   -2.7231    1.2178 H   0  0  0  0  0  0  0  0  0  0  0  0
    0.2466   -1.5231   -1.6057 H   0  0  0  0  0  0  0  0  0  0  0  0
    1.4161   -2.7149   -3.3850 H   0  0  0  0  0  0  0  0  0  0  0  0
    5.1919   -1.3389   -1.8837 H   0  0  0  0  0  0  0  0  0  0  0  0
   -3.8939    2.2093   -1.0603 H   0  0  0  0  0  0  0  0  0  0  0  0
   -2.8307    4.3149   -1.8196 H   0  0  0  0  0  0  0  0  0  0  0  0
    1.0548    2.7809   -0.7265 H   0  0  0  0  0  0  0  0  0  0  0  0
  1 27  1  0  0  0  0
  1 28  1  0  0  0  0
  1 29  1  0  0  0  0
  2  1  1  0  0  0  0
  2 30  1  0  0  0  0
  2 31  1  0  0  0  0
  3  2  1  0  0  0  0
  4  3  1  0  0  0  0
  4 32  1  0  0  0  0
  5  4  2  0  0  0  0
  6  5  1  0  0  0  0
  6 33  1  1  0  0  0
  7  6  1  0  0  0  0
  8  7  1  0  0  0  0
  8 34  1  0  0  0  0
  9  8  2  0  0  0  0
  9 35  1  0  0  0  0
 10  9  1  0  0  0  0
 11 10  2  0  0  0  0
 11  7  1  0  0  0  0
 11 36  1  0  0  0  0
 12  6  1  0  0  0  0
 13 12  2  0  0  0  0
 13 37  1  0  0  0  0
 14 13  1  0  0  0  0
 14 38  1  0  0  0  0
 15 14  2  0  0  0  0
 16 15  1  0  0  0  0
 17 15  1  0  0  0  0
 17 39  1  0  0  0  0
 18 17  2  0  0  0  0
 18 12  1  0  0  0  0
 19 18  1  0  0  0  0
 20  5  1  0  0  0  0
 21 20  2  0  0  0  0
 21  3  1  0  0  0  0
 22 21  1  0  0  0  0
 22 40  1  0  0  0  0
 23 22  2  0  0  0  0
 23 41  1  0  0  0  0
 24 23  1  0  0  0  0
 25 24  1  0  0  0  0
 26 24  2  0  0  0  0
 26 20  1  0  0  0  0
 26 42  1  0  0  0  0
M  END
>  <MOL Chiral Flag>
0

>  <energy>
58.848250198998102

$$$$
> 655_AKC_S0001-706X(02)00180-8
>636.sdf
 OpenBabel10062216053D

 28 29  0  0  0  0  0  0  0  0999 V2000
   -1.0009   -3.2104    1.3385 Br  0  0  0  0  0  0  0  0  0  0  0  0
   -1.9070   -1.5701    1.7594 C   0  0  0  0  0  0  0  0  0  0  0  0
   -1.2889   -0.2991    1.7132 C   0  0  0  0  0  0  0  0  0  0  0  0
   -2.0678    0.8532    2.0072 C   0  0  0  0  0  0  0  0  0  0  0  0
   -3.4042    0.7322    2.3804 C   0  0  0  0  0  0  0  0  0  0  0  0
   -3.9891   -0.5266    2.4504 C   0  0  0  0  0  0  0  0  0  0  0  0
   -3.2513   -1.6635    2.1225 C   0  0  0  0  0  0  0  0  0  0  0  0
    0.1588   -0.0949    1.3278 C   0  0  2  0  0  0  0  0  0  0  0  0
    0.7202   -0.9331    0.2893 N   0  0  0  0  0  0  0  0  0  0  0  0
    2.0747   -0.9789   -0.1336 C   0  0  0  0  0  0  0  0  0  0  0  0
    3.1636   -0.5926    0.6766 C   0  0  0  0  0  0  0  0  0  0  0  0
    4.4655   -0.7969    0.2270 C   0  0  0  0  0  0  0  0  0  0  0  0
    4.6899   -1.3746   -1.0261 C   0  0  0  0  0  0  0  0  0  0  0  0
    3.6130   -1.6948   -1.8543 C   0  0  0  0  0  0  0  0  0  0  0  0
    2.3191   -1.4894   -1.4116 C   0  0  0  0  0  0  0  0  0  0  0  0
    0.9164    0.8580    2.1366 C   0  0  0  0  0  0  0  0  0  0  0  0
    1.4481    1.6216    2.8222 N   0  0  0  0  0  0  0  0  0  0  0  0
   -1.6338    1.8500    1.9526 H   0  0  0  0  0  0  0  0  0  0  0  0
   -3.9908    1.6123    2.6212 H   0  0  0  0  0  0  0  0  0  0  0  0
   -5.0197   -0.6261    2.7574 H   0  0  0  0  0  0  0  0  0  0  0  0
   -3.7240   -2.6303    2.1570 H   0  0  0  0  0  0  0  0  0  0  0  0
   -0.0353    0.6757    0.6145 H   0  0  0  0  0  0  0  0  0  0  0  0
    0.0348   -1.3186   -0.3823 H   0  0  0  0  0  0  0  0  0  0  0  0
    3.0434   -0.1832    1.6614 H   0  0  0  0  0  0  0  0  0  0  0  0
    5.2959   -0.5334    0.8694 H   0  0  0  0  0  0  0  0  0  0  0  0
    5.6952   -1.5780   -1.3537 H   0  0  0  0  0  0  0  0  0  0  0  0
    3.7652   -2.1280   -2.8311 H   0  0  0  0  0  0  0  0  0  0  0  0
    1.4865   -1.7495   -2.0557 H   0  0  0  0  0  0  0  0  0  0  0  0
  2  1  1  0  0  0  0
  3  2  2  0  0  0  0
  4  3  1  0  0  0  0
  4 18  1  0  0  0  0
  5  4  2  0  0  0  0
  5 19  1  0  0  0  0
  6  5  1  0  0  0  0
  6 20  1  0  0  0  0
  7  6  2  0  0  0  0
  7  2  1  0  0  0  0
  7 21  1  0  0  0  0
  8  3  1  0  0  0  0
  8 22  1  6  0  0  0
  9  8  1  0  0  0  0
  9 23  1  0  0  0  0
 10  9  1  0  0  0  0
 11 10  2  0  0  0  0
 11 24  1  0  0  0  0
 12 11  1  0  0  0  0
 12 25  1  0  0  0  0
 13 12  2  0  0  0  0
 13 26  1  0  0  0  0
 14 13  1  0  0  0  0
 14 27  1  0  0  0  0
 15 14  2  0  0  0  0
 15 10  1  0  0  0  0
 15 28  1  0  0  0  0
 16  8  1  0  0  0  0
 17 16  3  0  0  0  0
M  END
>  <MOL Chiral Flag>
0

>  <energy>
74.77088683275997

$$$$
> 656_AKC_AAC.46.8.2569-2574.2002
>637.sdf
 OpenBabel10062216063D

 43 45  0  0  0  0  0  0  0  0999 V2000
    4.1191    2.6940    1.5183 C   0  0  0  0  0  0  0  0  0  0  0  0
    4.4846    1.5751    2.2382 O   0  0  0  0  0  0  0  0  0  0  0  0
    3.8224    0.3882    2.2274 C   0  0  0  0  0  0  0  0  0  0  0  0
    4.3235   -0.6716    3.0270 C   0  0  0  0  0  0  0  0  0  0  0  0
    3.6746   -1.9211    3.0556 C   0  0  0  0  0  0  0  0  0  0  0  0
    2.5338   -2.0762    2.2783 C   0  0  0  0  0  0  0  0  0  0  0  0
    1.7523   -3.1632    2.1609 N   0  0  0  0  0  0  0  0  0  0  0  0
    0.7784   -2.7767    1.2957 C   0  0  0  0  0  0  0  0  0  0  0  0
    0.9353   -1.4921    0.8849 N   0  0  0  0  0  0  0  0  0  0  0  0
    2.0426   -1.0690    1.5092 C   0  0  0  0  0  0  0  0  0  0  0  0
    2.6505    0.1817    1.4480 C   0  0  0  0  0  0  0  0  0  0  0  0
   -0.5966   -3.8526    0.8426 S   0  0  2  0  0  0  0  0  0  0  0  0
    0.3392   -4.9832    0.3830 O   0  0  0  0  0  0  0  0  0  0  0  0
   -0.8726   -3.2658   -0.8730 C   0  0  0  0  0  0  0  0  0  0  0  0
   -2.0578   -4.0101   -1.4465 C   0  0  0  0  0  0  0  0  0  0  0  0
   -3.2308   -3.8879   -0.7707 N   0  0  0  0  0  0  0  0  0  0  0  0
   -4.3746   -4.4939   -1.1616 C   0  0  0  0  0  0  0  0  0  0  0  0
   -4.4024   -5.2940   -2.3042 C   0  0  0  0  0  0  0  0  0  0  0  0
   -5.7321   -5.8860   -2.6988 C   0  0  0  0  0  0  0  0  0  0  0  0
   -3.2001   -5.4734   -3.0413 C   0  0  0  0  0  0  0  0  0  0  0  0
   -3.1333   -6.2570   -4.1532 O   0  0  0  0  0  0  0  0  0  0  0  0
   -3.5651   -7.5679   -4.2303 C   0  0  0  0  0  0  0  0  0  0  0  0
   -2.0180   -4.8157   -2.6217 C   0  0  0  0  0  0  0  0  0  0  0  0
   -0.7681   -5.0276   -3.4514 C   0  0  0  0  0  0  0  0  0  0  0  0
    3.1066    3.0346    1.8232 H   0  0  0  0  0  0  0  0  0  0  0  0
    4.1388    2.4743    0.4296 H   0  0  0  0  0  0  0  0  0  0  0  0
    4.8420    3.5093    1.7265 H   0  0  0  0  0  0  0  0  0  0  0  0
    5.2130   -0.5202    3.6253 H   0  0  0  0  0  0  0  0  0  0  0  0
    4.0497   -2.7314    3.6671 H   0  0  0  0  0  0  0  0  0  0  0  0
    0.3317   -0.9354    0.2422 H   0  0  0  0  0  0  0  0  0  0  0  0
    2.2287    0.9595    0.8259 H   0  0  0  0  0  0  0  0  0  0  0  0
    0.0690   -3.3278   -1.4413 H   0  0  0  0  0  0  0  0  0  0  0  0
   -1.1567   -2.1950   -0.8507 H   0  0  0  0  0  0  0  0  0  0  0  0
   -5.2768   -4.3383   -0.5832 H   0  0  0  0  0  0  0  0  0  0  0  0
   -6.0881   -6.5701   -1.8996 H   0  0  0  0  0  0  0  0  0  0  0  0
   -6.4714   -5.0658   -2.8187 H   0  0  0  0  0  0  0  0  0  0  0  0
   -5.7266   -6.4285   -3.6568 H   0  0  0  0  0  0  0  0  0  0  0  0
   -4.3495   -7.6603   -5.0097 H   0  0  0  0  0  0  0  0  0  0  0  0
   -2.7090   -8.2081   -4.5264 H   0  0  0  0  0  0  0  0  0  0  0  0
   -3.9444   -7.9423   -3.2544 H   0  0  0  0  0  0  0  0  0  0  0  0
   -0.5296   -6.1119   -3.4818 H   0  0  0  0  0  0  0  0  0  0  0  0
    0.1402   -4.5147   -3.1057 H   0  0  0  0  0  0  0  0  0  0  0  0
   -0.9572   -4.6781   -4.4887 H   0  0  0  0  0  0  0  0  0  0  0  0
  1 25  1  0  0  0  0
  1 26  1  0  0  0  0
  1 27  1  0  0  0  0
  2  1  1  0  0  0  0
  3  2  1  0  0  0  0
  4  3  2  0  0  0  0
  4 28  1  0  0  0  0
  5  4  1  0  0  0  0
  5 29  1  0  0  0  0
  6  5  2  0  0  0  0
  7  6  1  0  0  0  0
  8  7  2  0  0  0  0
  9  8  1  0  0  0  0
  9 30  1  0  0  0  0
 10  9  1  0  0  0  0
 10  6  1  0  0  0  0
 11 10  2  0  0  0  0
 11  3  1  0  0  0  0
 11 31  1  0  0  0  0
 12  8  1  1  0  0  0
 13 12  2  0  0  0  0
 14 12  1  0  0  0  0
 14 32  1  0  0  0  0
 14 33  1  0  0  0  0
 15 14  1  0  0  0  0
 16 15  2  0  0  0  0
 17 16  1  0  0  0  0
 17 34  1  0  0  0  0
 18 17  2  0  0  0  0
 19 18  1  0  0  0  0
 19 35  1  0  0  0  0
 19 36  1  0  0  0  0
 19 37  1  0  0  0  0
 20 18  1  0  0  0  0
 21 20  1  0  0  0  0
 22 21  1  0  0  0  0
 22 38  1  0  0  0  0
 22 39  1  0  0  0  0
 22 40  1  0  0  0  0
 23 20  2  0  0  0  0
 23 15  1  0  0  0  0
 24 23  1  0  0  0  0
 24 41  1  0  0  0  0
 24 42  1  0  0  0  0
 24 43  1  0  0  0  0
M  END
>  <MOL Chiral Flag>
0

>  <energy>
62.970131843575558

$$$$
> 657_AKC_AAC.46.3.797-807.2002
>638.sdf
 OpenBabel10062216063D

 41 43  0  0  0  0  0  0  0  0999 V2000
   -7.5455    2.3948   -0.9982 N   0  0  0  0  0  0  0  0  0  0  0  0
   -6.5939    3.0138   -0.1335 C   0  0  0  0  0  0  0  0  0  0  0  0
   -7.0186    3.9423    0.6656 N   0  0  0  0  0  0  0  0  0  0  0  0
   -5.1279    2.5970   -0.1610 C   0  0  0  0  0  0  0  0  0  0  0  0
   -4.6253    1.6795   -1.1210 C   0  0  0  0  0  0  0  0  0  0  0  0
   -3.2623    1.3232   -1.1442 C   0  0  0  0  0  0  0  0  0  0  0  0
   -2.3681    1.8680   -0.2082 C   0  0  0  0  0  0  0  0  0  0  0  0
   -2.8718    2.7638    0.7486 C   0  0  0  0  0  0  0  0  0  0  0  0
   -4.2121    3.1218    0.7737 C   0  0  0  0  0  0  0  0  0  0  0  0
   -0.9076    1.5430   -0.2156 C   0  0  0  0  0  0  0  0  0  0  0  0
    0.0285    2.0463    0.6999 C   0  0  0  0  0  0  0  0  0  0  0  0
    1.3538    1.6367    0.4574 C   0  0  0  0  0  0  0  0  0  0  0  0
    1.5019    0.8004   -0.6570 C   0  0  0  0  0  0  0  0  0  0  0  0
   -0.0380    0.5969   -1.2941 S   0  0  0  0  0  0  0  0  0  0  0  0
    2.8093    0.2893   -1.1710 C   0  0  0  0  0  0  0  0  0  0  0  0
    2.8969   -0.4657   -2.3499 C   0  0  0  0  0  0  0  0  0  0  0  0
    4.1484   -0.8732   -2.8456 C   0  0  0  0  0  0  0  0  0  0  0  0
    5.3515   -0.5358   -2.1682 C   0  0  0  0  0  0  0  0  0  0  0  0
    5.2368    0.1976   -0.9717 C   0  0  0  0  0  0  0  0  0  0  0  0
    3.9978    0.5990   -0.4877 C   0  0  0  0  0  0  0  0  0  0  0  0
    6.7249   -0.9178   -2.7034 C   0  0  0  0  0  0  0  0  0  0  0  0
    7.9082   -0.6656   -1.9382 N   0  0  0  0  0  0  0  0  0  0  0  0
    6.8652   -1.4597   -3.8696 N   0  0  0  0  0  0  0  0  0  0  0  0
   -7.3004    1.6344   -1.6390 H   0  0  0  0  0  0  0  0  0  0  0  0
   -8.5313    2.6972   -0.9741 H   0  0  0  0  0  0  0  0  0  0  0  0
   -6.4108    4.4533    1.3126 H   0  0  0  0  0  0  0  0  0  0  0  0
   -5.2632    1.2388   -1.8685 H   0  0  0  0  0  0  0  0  0  0  0  0
   -2.9120    0.6285   -1.8975 H   0  0  0  0  0  0  0  0  0  0  0  0
   -2.2344    3.2131    1.4898 H   0  0  0  0  0  0  0  0  0  0  0  0
   -4.5000    3.8147    1.5426 H   0  0  0  0  0  0  0  0  0  0  0  0
   -0.1972    2.7053    1.5206 H   0  0  0  0  0  0  0  0  0  0  0  0
    2.1575    1.9816    1.0858 H   0  0  0  0  0  0  0  0  0  0  0  0
    2.0024   -0.7266   -2.9013 H   0  0  0  0  0  0  0  0  0  0  0  0
    4.1509   -1.4415   -3.7602 H   0  0  0  0  0  0  0  0  0  0  0  0
    6.0933    0.4990   -0.3972 H   0  0  0  0  0  0  0  0  0  0  0  0
    3.9901    1.1721    0.4238 H   0  0  0  0  0  0  0  0  0  0  0  0
    7.8921   -0.2748   -0.9909 H   0  0  0  0  0  0  0  0  0  0  0  0
    8.8329   -0.8989   -2.3285 H   0  0  0  0  0  0  0  0  0  0  0  0
    6.0750   -1.6581   -4.4906 H   0  0  0  0  0  0  0  0  0  0  0  0
    7.8058   -1.6997   -4.2173 H   0  0  0  0  0  0  0  0  0  0  0  0
   -8.0139    4.2105    0.6664 H   0  0  0  0  0  0  0  0  0  0  0  0
  1 24  1  0  0  0  0
  1 25  1  0  0  0  0
  2  1  1  0  0  0  0
  3  2  2  0  0  0  0
  3 26  1  0  0  0  0
  3 41  1  0  0  0  0
  4  2  1  0  0  0  0
  5  4  2  0  0  0  0
  5 27  1  0  0  0  0
  6  5  1  0  0  0  0
  6 28  1  0  0  0  0
  7  6  2  0  0  0  0
  8  7  1  0  0  0  0
  8 29  1  0  0  0  0
  9  8  2  0  0  0  0
  9  4  1  0  0  0  0
  9 30  1  0  0  0  0
 10  7  1  0  0  0  0
 11 10  2  0  0  0  0
 11 31  1  0  0  0  0
 12 11  1  0  0  0  0
 12 32  1  0  0  0  0
 13 12  2  0  0  0  0
 14 13  1  0  0  0  0
 14 10  1  0  0  0  0
 15 13  1  0  0  0  0
 16 15  2  0  0  0  0
 16 33  1  0  0  0  0
 17 16  1  0  0  0  0
 17 34  1  0  0  0  0
 18 17  2  0  0  0  0
 19 18  1  0  0  0  0
 19 35  1  0  0  0  0
 20 19  2  0  0  0  0
 20 15  1  0  0  0  0
 20 36  1  0  0  0  0
 21 18  1  0  0  0  0
 22 21  1  0  0  0  0
 22 37  1  0  0  0  0
 22 38  1  0  0  0  0
 23 21  2  0  0  0  0
 23 39  1  0  0  0  0
 23 40  1  0  0  0  0
M  END
>  <MOL Chiral Flag>
0

>  <energy>
8.8913339471565962

$$$$
> 658_AKC_parasite/2002094367
>639.sdf
 OpenBabel10062216063D

 13 13  0  0  0  0  0  0  0  0999 V2000
    1.0246    0.0502   -0.0635 N   0  0  0  0  0  0  0  0  0  0  0  0
    2.3508    0.0894    0.2003 C   0  0  0  0  0  0  0  0  0  0  0  0
    2.9418    1.1599    0.1808 O   0  0  0  0  0  0  0  0  0  0  0  0
    3.0847   -1.1474    0.5255 C   0  0  0  0  0  0  0  0  0  0  0  0
    4.3876   -1.2304    0.9738 C   0  0  0  0  0  0  0  0  0  0  0  0
    4.6391   -2.5722    1.1540 C   0  0  0  0  0  0  0  0  0  0  0  0
    3.4805   -3.2325    0.7978 C   0  0  0  0  0  0  0  0  0  0  0  0
    2.5726   -2.3549    0.4344 O   0  0  0  0  0  0  0  0  0  0  0  0
    0.5101    0.9159   -0.2819 H   0  0  0  0  0  0  0  0  0  0  0  0
    0.5067   -0.8406   -0.0244 H   0  0  0  0  0  0  0  0  0  0  0  0
    5.0707   -0.4117    1.1606 H   0  0  0  0  0  0  0  0  0  0  0  0
    5.5585   -3.0194    1.5066 H   0  0  0  0  0  0  0  0  0  0  0  0
    3.3250   -4.3029    0.8123 H   0  0  0  0  0  0  0  0  0  0  0  0
  1  9  1  0  0  0  0
  1 10  1  0  0  0  0
  2  1  1  0  0  0  0
  3  2  2  0  0  0  0
  4  2  1  0  0  0  0
  5  4  2  0  0  0  0
  5 11  1  0  0  0  0
  6  5  1  0  0  0  0
  6 12  1  0  0  0  0
  7  6  2  0  0  0  0
  7 13  1  0  0  0  0
  8  7  1  0  0  0  0
  8  4  1  0  0  0  0
M  END
>  <MOL Chiral Flag>
0

>  <energy>
-14.146628031182098

$$$$
> 659_AKC_AAC.46.8.2588-2594.2002
>640.sdf
 OpenBabel10062216073D

 37 39  0  0  0  0  0  0  0  0999 V2000
   -8.0744    0.4865   -0.7180 O   0  0  0  0  0  0  0  0  0  0  0  0
   -7.3733    1.4098    0.0687 C   0  0  0  0  0  0  0  0  0  0  0  0
   -5.8716    1.2862   -0.1950 C   0  0  0  0  0  0  0  0  0  0  0  0
   -5.3923   -0.0448    0.1201 N   0  0  0  0  0  0  0  0  0  0  0  0
   -4.0255   -0.3935   -0.0170 C   0  0  0  0  0  0  0  0  0  0  0  0
   -3.5491   -1.6460    0.2197 N   0  0  0  0  0  0  0  0  0  0  0  0
   -2.1843   -1.7047    0.0443 C   0  0  0  0  0  0  0  0  0  0  0  0
   -1.4209   -2.8498    0.2297 C   0  0  0  0  0  0  0  0  0  0  0  0
   -0.0303   -2.7710    0.0548 C   0  0  0  0  0  0  0  0  0  0  0  0
    0.6004   -1.5503   -0.3036 C   0  0  0  0  0  0  0  0  0  0  0  0
    2.0300   -1.5223   -0.3658 N   0  0  0  0  0  0  0  0  0  0  0  0
    2.8059   -0.3429   -0.5734 C   0  0  0  0  0  0  0  0  0  0  0  0
    3.8385    0.0238    0.3425 C   0  0  0  0  0  0  0  0  0  0  0  0
    4.6022    1.1769    0.0771 C   0  0  0  0  0  0  0  0  0  0  0  0
    4.3645    1.9474   -1.0601 C   0  0  0  0  0  0  0  0  0  0  0  0
    3.3604    1.5858   -1.9541 C   0  0  0  0  0  0  0  0  0  0  0  0
    2.5843    0.4509   -1.7153 C   0  0  0  0  0  0  0  0  0  0  0  0
    4.1172   -0.7302    1.6077 C   0  0  0  0  0  0  0  0  0  0  0  0
    5.1193   -0.3362    2.4179 O   0  0  0  0  0  0  0  0  0  0  0  0
    3.4209   -1.6687    1.9560 O   0  0  0  0  0  0  0  0  0  0  0  0
   -0.1981   -0.3925   -0.5013 C   0  0  0  0  0  0  0  0  0  0  0  0
   -1.5729   -0.5066   -0.3237 C   0  0  0  0  0  0  0  0  0  0  0  0
   -2.7727    0.6226   -0.4382 S   0  0  0  0  0  0  0  0  0  0  0  0
   -9.0232    0.5472   -0.4333 H   0  0  0  0  0  0  0  0  0  0  0  0
   -7.6983    2.4414   -0.1899 H   0  0  0  0  0  0  0  0  0  0  0  0
   -7.5644    1.2166    1.1489 H   0  0  0  0  0  0  0  0  0  0  0  0
   -5.6678    1.5056   -1.2657 H   0  0  0  0  0  0  0  0  0  0  0  0
   -5.3384    2.0323    0.4331 H   0  0  0  0  0  0  0  0  0  0  0  0
   -6.0512   -0.7659    0.4516 H   0  0  0  0  0  0  0  0  0  0  0  0
   -1.8857   -3.7824    0.5222 H   0  0  0  0  0  0  0  0  0  0  0  0
    0.5675   -3.6579    0.2234 H   0  0  0  0  0  0  0  0  0  0  0  0
    2.5227   -2.3676   -0.0456 H   0  0  0  0  0  0  0  0  0  0  0  0
    5.3824    1.4895    0.7596 H   0  0  0  0  0  0  0  0  0  0  0  0
    4.9624    2.8305   -1.2459 H   0  0  0  0  0  0  0  0  0  0  0  0
    3.1868    2.1852   -2.8386 H   0  0  0  0  0  0  0  0  0  0  0  0
    1.8223    0.1754   -2.4336 H   0  0  0  0  0  0  0  0  0  0  0  0
    0.2212    0.5692   -0.7498 H   0  0  0  0  0  0  0  0  0  0  0  0
  1 24  1  0  0  0  0
  2  1  1  0  0  0  0
  2 25  1  0  0  0  0
  2 26  1  0  0  0  0
  3  2  1  0  0  0  0
  3 27  1  0  0  0  0
  3 28  1  0  0  0  0
  4  3  1  0  0  0  0
  4 29  1  0  0  0  0
  5  4  1  0  0  0  0
  6  5  2  0  0  0  0
  7  6  1  0  0  0  0
  8  7  2  0  0  0  0
  8 30  1  0  0  0  0
  9  8  1  0  0  0  0
  9 31  1  0  0  0  0
 10  9  2  0  0  0  0
 11 10  1  0  0  0  0
 11 32  1  0  0  0  0
 12 11  1  0  0  0  0
 13 12  2  0  0  0  0
 14 13  1  0  0  0  0
 14 33  1  0  0  0  0
 15 14  2  0  0  0  0
 15 34  1  0  0  0  0
 16 15  1  0  0  0  0
 16 35  1  0  0  0  0
 17 16  2  0  0  0  0
 17 12  1  0  0  0  0
 17 36  1  0  0  0  0
 18 13  1  0  0  0  0
 19 18  1  0  0  0  0
 20 18  2  0  0  0  0
 21 10  1  0  0  0  0
 21 37  1  0  0  0  0
 22 21  2  0  0  0  0
 22  7  1  0  0  0  0
 23 22  1  0  0  0  0
 23  5  1  0  0  0  0
M  END
>  <MOL Chiral Flag>
0

>  <energy>
39.201399349200571

$$$$
> 660_AKC_AAC.45.5.1349-1354.2001
>641.sdf
 OpenBabel10062216083D

 52 56  0  0  0  0  0  0  0  0999 V2000
    2.4901    0.5610   -3.7018 C   0  0  0  0  0  0  0  0  0  0  0  0
    2.7193   -0.7714   -2.9884 C   0  0  0  0  0  0  0  0  0  0  0  0
    1.5438   -1.1794   -2.0570 C   0  0  1  0  0  0  0  0  0  0  0  0
    1.8542   -2.5348   -1.3424 C   0  0  0  0  0  0  0  0  0  0  0  0
    1.9203   -2.3267    0.1894 C   0  0  2  0  0  0  0  0  0  0  0  0
    0.5228   -1.9289    0.7238 C   0  0  0  0  0  0  0  0  0  0  0  0
   -0.0591   -0.7304   -0.1099 C   0  0  2  0  0  0  0  0  0  0  0  0
    1.1346   -0.1116   -0.9540 C   0  0  1  0  0  0  0  0  0  0  0  0
    2.3458    0.1341   -0.1090 N   0  3  2  0  0  0  0  0  0  0  0  0
    2.8718   -1.1380    0.4873 C   0  0  0  0  0  0  0  0  0  0  0  0
    2.2921    1.2924    0.8209 C   0  0  0  0  0  0  0  0  0  0  0  0
    1.3936    1.1368    2.0521 C   0  0  0  0  0  0  0  0  0  0  0  0
   -0.0649    1.1183    1.7283 C   0  0  0  0  0  0  0  0  0  0  0  0
   -0.7167    0.2937    0.8139 C   0  0  0  0  0  0  0  0  0  0  0  0
   -2.0535    0.5581    0.8429 N   0  0  0  0  0  0  0  0  0  0  0  0
   -2.2375    1.5366    1.7389 C   0  0  0  0  0  0  0  0  0  0  0  0
   -3.4478    2.1230    2.1019 C   0  0  0  0  0  0  0  0  0  0  0  0
   -3.4218    3.1485    3.0618 C   0  0  0  0  0  0  0  0  0  0  0  0
   -2.1949    3.5599    3.6297 C   0  0  0  0  0  0  0  0  0  0  0  0
   -0.9893    2.9388    3.2473 C   0  0  0  0  0  0  0  0  0  0  0  0
   -1.0473    1.9198    2.2922 C   0  0  0  0  0  0  0  0  0  0  0  0
   -1.1358   -1.1838   -1.1076 C   0  0  0  0  0  0  0  0  0  0  0  0
   -1.4956   -2.3527   -1.1669 O   0  0  0  0  0  0  0  0  0  0  0  0
   -1.6704   -0.2597   -1.9516 O   0  0  0  0  0  0  0  0  0  0  0  0
   -2.6162   -0.5539   -2.9086 C   0  0  0  0  0  0  0  0  0  0  0  0
    3.3384    0.7606   -4.3898 H   0  0  0  0  0  0  0  0  0  0  0  0
    2.4431    1.3971   -2.9739 H   0  0  0  0  0  0  0  0  0  0  0  0
    1.5496    0.5314   -4.2907 H   0  0  0  0  0  0  0  0  0  0  0  0
    3.6826   -0.7253   -2.4402 H   0  0  0  0  0  0  0  0  0  0  0  0
    2.8373   -1.5611   -3.7630 H   0  0  0  0  0  0  0  0  0  0  0  0
    0.7029   -1.3428   -2.7648 H   0  0  0  0  0  0  0  0  0  0  0  0
    2.8070   -2.9700   -1.7157 H   0  0  0  0  0  0  0  0  0  0  0  0
    1.0589   -3.2816   -1.5588 H   0  0  0  0  0  0  0  0  0  0  0  0
    2.2744   -3.2495    0.6984 H   0  0  0  0  0  0  0  0  0  0  0  0
    0.6632   -1.6559    1.7909 H   0  0  0  0  0  0  0  0  0  0  0  0
   -0.1772   -2.7895    0.7559 H   0  0  0  0  0  0  0  0  0  0  0  0
    0.8050    0.8247   -1.4559 H   0  0  0  0  0  0  0  0  0  0  0  0
    3.0860    0.4636   -0.7675 H   0  0  0  0  0  0  0  0  0  0  0  0
    3.0199   -1.0550    1.5821 H   0  0  0  0  0  0  0  0  0  0  0  0
    3.8806   -1.3753    0.0782 H   0  0  0  0  0  0  0  0  0  0  0  0
    3.3232    1.4623    1.2100 H   0  0  0  0  0  0  0  0  0  0  0  0
    2.0065    2.2163    0.2682 H   0  0  0  0  0  0  0  0  0  0  0  0
    1.5965    1.9883    2.7335 H   0  0  0  0  0  0  0  0  0  0  0  0
    1.6548    0.2278    2.6208 H   0  0  0  0  0  0  0  0  0  0  0  0
   -2.8147    0.1050    0.2912 H   0  0  0  0  0  0  0  0  0  0  0  0
   -4.3804    1.7978    1.6588 H   0  0  0  0  0  0  0  0  0  0  0  0
   -4.3450    3.6249    3.3652 H   0  0  0  0  0  0  0  0  0  0  0  0
   -2.1828    4.3541    4.3644 H   0  0  0  0  0  0  0  0  0  0  0  0
   -0.0525    3.2526    3.6858 H   0  0  0  0  0  0  0  0  0  0  0  0
   -2.8790    0.3769   -3.4525 H   0  0  0  0  0  0  0  0  0  0  0  0
   -3.5327   -0.9593   -2.4300 H   0  0  0  0  0  0  0  0  0  0  0  0
   -2.2082   -1.2886   -3.6348 H   0  0  0  0  0  0  0  0  0  0  0  0
  1 26  1  0  0  0  0
  1 27  1  0  0  0  0
  1 28  1  0  0  0  0
  2  1  1  0  0  0  0
  2 29  1  0  0  0  0
  2 30  1  0  0  0  0
  3  2  1  0  0  0  0
  3 31  1  6  0  0  0
  4  3  1  0  0  0  0
  4 32  1  0  0  0  0
  4 33  1  0  0  0  0
  5  4  1  0  0  0  0
  5 34  1  1  0  0  0
  6  5  1  0  0  0  0
  6 35  1  0  0  0  0
  6 36  1  0  0  0  0
  7  6  1  0  0  0  0
  7 22  1  6  0  0  0
  8  7  1  0  0  0  0
  8  3  1  0  0  0  0
  8 37  1  6  0  0  0
  9  8  1  0  0  0  0
  9 10  1  0  0  0  0
  9 38  1  6  0  0  0
 10  5  1  0  0  0  0
 10 39  1  0  0  0  0
 10 40  1  0  0  0  0
 11  9  1  0  0  0  0
 11 41  1  0  0  0  0
 11 42  1  0  0  0  0
 12 11  1  0  0  0  0
 12 43  1  0  0  0  0
 12 44  1  0  0  0  0
 13 12  1  0  0  0  0
 14 13  2  0  0  0  0
 14  7  1  0  0  0  0
 15 14  1  0  0  0  0
 15 45  1  0  0  0  0
 16 15  1  0  0  0  0
 17 16  2  0  0  0  0
 17 46  1  0  0  0  0
 18 17  1  0  0  0  0
 18 47  1  0  0  0  0
 19 18  2  0  0  0  0
 19 48  1  0  0  0  0
 20 19  1  0  0  0  0
 20 49  1  0  0  0  0
 21 20  2  0  0  0  0
 21 13  1  0  0  0  0
 21 16  1  0  0  0  0
 23 22  2  0  0  0  0
 24 22  1  0  0  0  0
 25 24  1  0  0  0  0
 25 50  1  0  0  0  0
 25 51  1  0  0  0  0
 25 52  1  0  0  0  0
M  CHG  1   9   1
M  END
>  <MOL Chiral Flag>
0

>  <energy>
251.32438895935084

$$$$
> 661_AKC_S0001-706X(00)00161-3
>642.sdf
 OpenBabel10062216083D

 36 39  0  0  0  0  0  0  0  0999 V2000
   -5.6896   -0.4846    0.0459 C   0  0  0  0  0  0  0  0  0  0  0  0
   -4.9982    0.3586   -0.8186 C   0  0  0  0  0  0  0  0  0  0  0  0
   -3.6009    0.4659   -0.7429 C   0  0  0  0  0  0  0  0  0  0  0  0
   -2.8863   -0.2977    0.2147 C   0  0  0  0  0  0  0  0  0  0  0  0
   -3.6126   -1.1647    1.0952 C   0  0  0  0  0  0  0  0  0  0  0  0
   -5.0023   -1.2360    0.9924 C   0  0  0  0  0  0  0  0  0  0  0  0
   -3.0341   -1.9388    2.0463 O   0  0  0  0  0  0  0  0  0  0  0  0
   -1.4059   -0.1397    0.2533 C   0  0  0  0  0  0  0  0  0  0  0  0
   -0.7361   -0.7362    1.0805 O   0  0  0  0  0  0  0  0  0  0  0  0
   -0.7142    0.8114   -0.6601 C   0  0  0  0  0  0  0  0  0  0  0  0
   -1.4041    1.5429   -1.5476 C   0  0  0  0  0  0  0  0  0  0  0  0
   -2.8702    1.3893   -1.6578 C   0  0  0  0  0  0  0  0  0  0  0  0
   -3.4755    2.0307   -2.5041 O   0  0  0  0  0  0  0  0  0  0  0  0
    0.7552    0.9177   -0.5144 C   0  0  0  0  0  0  0  0  0  0  0  0
    1.3235    2.0691   -0.1278 C   0  0  0  0  0  0  0  0  0  0  0  0
    2.7517    2.1065    0.2478 C   0  0  0  0  0  0  0  0  0  0  0  0
    3.2470    3.1614    0.6116 O   0  0  0  0  0  0  0  0  0  0  0  0
    3.5405    0.8418    0.2922 C   0  0  0  0  0  0  0  0  0  0  0  0
    2.9663   -0.3694   -0.1662 C   0  0  0  0  0  0  0  0  0  0  0  0
    1.5551   -0.3264   -0.6460 C   0  0  0  0  0  0  0  0  0  0  0  0
    1.0207   -1.3058   -1.1340 O   0  0  0  0  0  0  0  0  0  0  0  0
    3.7425   -1.5721   -0.1137 C   0  0  0  0  0  0  0  0  0  0  0  0
    5.0354   -1.5269    0.4118 C   0  0  0  0  0  0  0  0  0  0  0  0
    5.5787   -0.3356    0.8784 C   0  0  0  0  0  0  0  0  0  0  0  0
    4.8440    0.8448    0.8140 C   0  0  0  0  0  0  0  0  0  0  0  0
    3.2947   -2.7809   -0.5275 O   0  0  0  0  0  0  0  0  0  0  0  0
   -6.7668   -0.5563   -0.0145 H   0  0  0  0  0  0  0  0  0  0  0  0
   -5.5558    0.9354   -1.5447 H   0  0  0  0  0  0  0  0  0  0  0  0
   -5.5539   -1.8865    1.6596 H   0  0  0  0  0  0  0  0  0  0  0  0
   -2.0965   -2.0217    2.2372 H   0  0  0  0  0  0  0  0  0  0  0  0
   -0.8844    2.2287   -2.2121 H   0  0  0  0  0  0  0  0  0  0  0  0
    0.7178    2.9639    0.0011 H   0  0  0  0  0  0  0  0  0  0  0  0
    5.6191   -2.4373    0.4681 H   0  0  0  0  0  0  0  0  0  0  0  0
    6.5764   -0.3288    1.2959 H   0  0  0  0  0  0  0  0  0  0  0  0
    5.2860    1.7587    1.1882 H   0  0  0  0  0  0  0  0  0  0  0  0
    2.4329   -2.9808   -0.9026 H   0  0  0  0  0  0  0  0  0  0  0  0
  1 27  1  0  0  0  0
  2  1  2  0  0  0  0
  2 28  1  0  0  0  0
  3  2  1  0  0  0  0
  4  3  2  0  0  0  0
  5  4  1  0  0  0  0
  6  5  2  0  0  0  0
  6  1  1  0  0  0  0
  6 29  1  0  0  0  0
  7  5  1  0  0  0  0
  7 30  1  0  0  0  0
  8  4  1  0  0  0  0
  9  8  2  0  0  0  0
 10  8  1  0  0  0  0
 11 10  2  0  0  0  0
 11 31  1  0  0  0  0
 12 11  1  0  0  0  0
 12  3  1  0  0  0  0
 13 12  2  0  0  0  0
 14 10  1  0  0  0  0
 15 14  2  0  0  0  0
 15 32  1  0  0  0  0
 16 15  1  0  0  0  0
 17 16  2  0  0  0  0
 18 16  1  0  0  0  0
 19 18  2  0  0  0  0
 20 19  1  0  0  0  0
 20 14  1  0  0  0  0
 21 20  2  0  0  0  0
 22 19  1  0  0  0  0
 23 22  2  0  0  0  0
 23 33  1  0  0  0  0
 24 23  1  0  0  0  0
 24 34  1  0  0  0  0
 25 24  2  0  0  0  0
 25 18  1  0  0  0  0
 25 35  1  0  0  0  0
 26 22  1  0  0  0  0
 26 36  1  0  0  0  0
M  END
>  <MOL Chiral Flag>
0

>  <energy>
59.478910460209491

$$$$
> 662_AKC_jm000156
>643.sdf
 OpenBabel10062216123D

 47 50  0  0  0  0  0  0  0  0999 V2000
    1.9240   -1.6492    0.6563 C   0  0  0  0  0  0  0  0  0  0  0  0
    1.7087   -1.5648    2.0990 N   0  0  0  0  0  0  0  0  0  0  0  0
    0.3230   -1.5512    2.5815 C   0  0  0  0  0  0  0  0  0  0  0  0
   -0.4319   -2.8353    2.1964 C   0  0  0  0  0  0  0  0  0  0  0  0
   -1.8782   -2.8593    2.7449 C   0  0  0  0  0  0  0  0  0  0  0  0
   -2.7179   -1.7887    2.1674 N   0  0  0  0  0  0  0  0  0  0  0  0
   -3.0068   -0.5905    2.9567 C   0  0  0  0  0  0  0  0  0  0  0  0
   -2.4170   -0.3897    4.2468 C   0  0  0  0  0  0  0  0  0  0  0  0
   -2.6761    0.7525    5.0024 C   0  0  0  0  0  0  0  0  0  0  0  0
   -3.5173    1.7354    4.5170 C   0  0  0  0  0  0  0  0  0  0  0  0
   -4.1001    1.5844    3.2695 C   0  0  0  0  0  0  0  0  0  0  0  0
   -3.8574    0.4458    2.4841 C   0  0  0  0  0  0  0  0  0  0  0  0
   -4.6871    0.4434    0.9173 S   0  0  0  0  0  0  0  0  0  0  0  0
   -4.0868   -1.0487    0.1746 C   0  0  0  0  0  0  0  0  0  0  0  0
   -4.5480   -1.2822   -1.1310 C   0  0  0  0  0  0  0  0  0  0  0  0
   -4.1878   -2.4252   -1.8282 C   0  0  0  0  0  0  0  0  0  0  0  0
   -3.3649   -3.3634   -1.2295 C   0  0  0  0  0  0  0  0  0  0  0  0
   -2.9176   -4.8176   -2.1048 Cl  0  0  0  0  0  0  0  0  0  0  0  0
   -2.8935   -3.1560    0.0671 C   0  0  0  0  0  0  0  0  0  0  0  0
   -3.2301   -1.9821    0.8127 C   0  0  0  0  0  0  0  0  0  0  0  0
    2.8306   -1.4455    3.0094 C   0  0  0  0  0  0  0  0  0  0  0  0
    2.6949   -0.8151    4.2714 C   0  0  0  0  0  0  0  0  0  0  0  0
    3.7850   -0.7052    5.1428 C   0  0  0  0  0  0  0  0  0  0  0  0
    3.5620    0.0967    6.6929 Cl  0  0  0  0  0  0  0  0  0  0  0  0
    5.0331   -1.2248    4.7752 C   0  0  0  0  0  0  0  0  0  0  0  0
    6.4204   -1.1039    5.8498 Cl  0  0  0  0  0  0  0  0  0  0  0  0
    5.1846   -1.8490    3.5377 C   0  0  0  0  0  0  0  0  0  0  0  0
    4.1026   -1.9592    2.6618 C   0  0  0  0  0  0  0  0  0  0  0  0
    1.5902   -2.6302    0.2633 H   0  0  0  0  0  0  0  0  0  0  0  0
    2.9776   -1.5014    0.3569 H   0  0  0  0  0  0  0  0  0  0  0  0
    1.3557   -0.8391    0.1523 H   0  0  0  0  0  0  0  0  0  0  0  0
   -0.1989   -0.6662    2.1583 H   0  0  0  0  0  0  0  0  0  0  0  0
    0.2718   -1.4970    3.6803 H   0  0  0  0  0  0  0  0  0  0  0  0
    0.1151   -3.7055    2.6200 H   0  0  0  0  0  0  0  0  0  0  0  0
   -0.4403   -2.9356    1.0974 H   0  0  0  0  0  0  0  0  0  0  0  0
   -1.8438   -2.8675    3.8415 H   0  0  0  0  0  0  0  0  0  0  0  0
   -2.3654   -3.8428    2.5836 H   0  0  0  0  0  0  0  0  0  0  0  0
   -1.7414   -1.0811    4.7050 H   0  0  0  0  0  0  0  0  0  0  0  0
   -2.2136    0.8737    5.9739 H   0  0  0  0  0  0  0  0  0  0  0  0
   -3.7153    2.6215    5.1065 H   0  0  0  0  0  0  0  0  0  0  0  0
   -4.7525    2.3674    2.9018 H   0  0  0  0  0  0  0  0  0  0  0  0
   -5.2029   -0.5645   -1.6105 H   0  0  0  0  0  0  0  0  0  0  0  0
   -4.5572   -2.5839   -2.8335 H   0  0  0  0  0  0  0  0  0  0  0  0
   -2.2663   -3.9327    0.4656 H   0  0  0  0  0  0  0  0  0  0  0  0
    1.7609   -0.3797    4.5884 H   0  0  0  0  0  0  0  0  0  0  0  0
    6.1464   -2.2560    3.2520 H   0  0  0  0  0  0  0  0  0  0  0  0
    4.2684   -2.4699    1.7255 H   0  0  0  0  0  0  0  0  0  0  0  0
  1 29  1  0  0  0  0
  1 30  1  0  0  0  0
  1 31  1  0  0  0  0
  2  1  1  0  0  0  0
  3  2  1  0  0  0  0
  3 32  1  0  0  0  0
  3 33  1  0  0  0  0
  4  3  1  0  0  0  0
  4 34  1  0  0  0  0
  4 35  1  0  0  0  0
  5  4  1  0  0  0  0
  5 36  1  0  0  0  0
  5 37  1  0  0  0  0
  6  5  1  0  0  0  0
  7  6  1  0  0  0  0
  8  7  2  0  0  0  0
  8 38  1  0  0  0  0
  9  8  1  0  0  0  0
  9 39  1  0  0  0  0
 10  9  2  0  0  0  0
 10 40  1  0  0  0  0
 11 10  1  0  0  0  0
 11 41  1  0  0  0  0
 12 11  2  0  0  0  0
 12  7  1  0  0  0  0
 13 12  1  0  0  0  0
 14 13  1  0  0  0  0
 15 14  2  0  0  0  0
 15 42  1  0  0  0  0
 16 15  1  0  0  0  0
 16 43  1  0  0  0  0
 17 16  2  0  0  0  0
 18 17  1  0  0  0  0
 19 17  1  0  0  0  0
 19 44  1  0  0  0  0
 20 19  2  0  0  0  0
 20  6  1  0  0  0  0
 20 14  1  0  0  0  0
 21  2  1  0  0  0  0
 22 21  2  0  0  0  0
 22 45  1  0  0  0  0
 23 22  1  0  0  0  0
 24 23  1  0  0  0  0
 25 23  2  0  0  0  0
 26 25  1  0  0  0  0
 27 25  1  0  0  0  0
 27 46  1  0  0  0  0
 28 27  2  0  0  0  0
 28 21  1  0  0  0  0
 28 47  1  0  0  0  0
M  END
>  <MOL Chiral Flag>
0

>  <energy>
87.259979036099168

$$$$
> 663_AKC_S0960-894X(00)00154-2
>644.sdf
 OpenBabel10062216133D

 98100  0  0  0  0  0  0  0  0999 V2000
    5.5735   -5.7109    1.4276 C   0  0  0  0  0  0  0  0  0  0  0  0
    5.8345   -5.0782    0.1222 N   0  3  0  0  0  0  0  0  0  0  0  0
    5.5580   -6.0188   -0.9777 C   0  0  0  0  0  0  0  0  0  0  0  0
    5.1238   -3.7844   -0.0375 C   0  0  0  0  0  0  0  0  0  0  0  0
    3.5820   -3.8819   -0.0353 C   0  0  0  0  0  0  0  0  0  0  0  0
    2.9495   -2.4905   -0.1725 C   0  0  0  0  0  0  0  0  0  0  0  0
    1.4972   -2.5700   -0.1560 N   0  0  0  0  0  0  0  0  0  0  0  0
    0.7317   -1.4371   -0.2236 C   0  0  0  0  0  0  0  0  0  0  0  0
    1.2964   -0.3578   -0.2952 O   0  0  0  0  0  0  0  0  0  0  0  0
   -0.7837   -1.4657   -0.1691 C   0  0  0  0  0  0  0  0  0  0  0  0
   -1.4823   -2.6785    0.0285 C   0  0  0  0  0  0  0  0  0  0  0  0
   -2.8870   -2.7170    0.1255 C   0  0  0  0  0  0  0  0  0  0  0  0
   -3.5912   -1.5076    0.0375 C   0  0  0  0  0  0  0  0  0  0  0  0
   -2.9361   -0.2790   -0.1615 C   0  0  0  0  0  0  0  0  0  0  0  0
   -1.5330   -0.2581   -0.2862 C   0  0  0  0  0  0  0  0  0  0  0  0
   -0.8918    0.9152   -0.5180 O   0  0  0  0  0  0  0  0  0  0  0  0
   -1.4809    2.1316   -0.6189 C   0  0  0  0  0  0  0  0  0  0  0  0
   -0.6923    3.2916   -0.8635 C   0  0  0  0  0  0  0  0  0  0  0  0
   -1.3144    4.5549   -0.8565 C   0  0  0  0  0  0  0  0  0  0  0  0
   -2.7008    4.6963   -0.6631 C   0  0  0  0  0  0  0  0  0  0  0  0
   -3.4634    3.5336   -0.4727 C   0  0  0  0  0  0  0  0  0  0  0  0
   -2.8742    2.2543   -0.4408 C   0  0  0  0  0  0  0  0  0  0  0  0
   -3.7533    1.0179   -0.2158 C   0  0  0  0  0  0  0  0  0  0  0  0
   -4.7703    0.9242   -1.3795 C   0  0  0  0  0  0  0  0  0  0  0  0
   -4.4965    1.1756    1.1355 C   0  0  0  0  0  0  0  0  0  0  0  0
   -3.4025    6.0757   -0.6645 C   0  0  0  0  0  0  0  0  0  0  0  0
   -4.4538    6.1191   -1.7954 C   0  0  0  0  0  0  0  0  0  0  0  0
   -4.0982    6.2975    0.6969 C   0  0  0  0  0  0  0  0  0  0  0  0
   -2.4302    7.2601   -0.8873 C   0  0  0  0  0  0  0  0  0  0  0  0
    0.7874    3.2521   -1.1413 C   0  0  0  0  0  0  0  0  0  0  0  0
    1.4415    4.2582   -0.9146 O   0  0  0  0  0  0  0  0  0  0  0  0
    1.3795    2.1562   -1.7178 N   0  0  0  0  0  0  0  0  0  0  0  0
    2.7935    1.9977   -2.0720 C   0  0  0  0  0  0  0  0  0  0  0  0
    3.7472    3.1592   -1.7381 C   0  0  0  0  0  0  0  0  0  0  0  0
    5.1871    2.8247   -2.1778 C   0  0  0  0  0  0  0  0  0  0  0  0
    6.1371    3.9424   -1.9580 N   0  3  0  0  0  0  0  0  0  0  0  0
    7.4315    3.6185   -2.5851 C   0  0  0  0  0  0  0  0  0  0  0  0
    6.3483    4.2247   -0.5253 C   0  0  0  0  0  0  0  0  0  0  0  0
   -3.6704   -4.0365    0.3378 C   0  0  0  0  0  0  0  0  0  0  0  0
   -2.7633   -5.2896    0.4163 C   0  0  0  0  0  0  0  0  0  0  0  0
   -4.6469   -4.2473   -0.8409 C   0  0  0  0  0  0  0  0  0  0  0  0
   -4.4654   -3.9577    1.6599 C   0  0  0  0  0  0  0  0  0  0  0  0
    6.2287   -6.5996    1.5618 H   0  0  0  0  0  0  0  0  0  0  0  0
    4.5209   -6.0534    1.5156 H   0  0  0  0  0  0  0  0  0  0  0  0
    5.7973   -5.0038    2.2562 H   0  0  0  0  0  0  0  0  0  0  0  0
    6.8589   -4.8589    0.0886 H   0  0  0  0  0  0  0  0  0  0  0  0
    5.7701   -5.5435   -1.9602 H   0  0  0  0  0  0  0  0  0  0  0  0
    4.5043   -6.3696   -0.9618 H   0  0  0  0  0  0  0  0  0  0  0  0
    6.2122   -6.9142   -0.8908 H   0  0  0  0  0  0  0  0  0  0  0  0
    5.4457   -3.3087   -0.9917 H   0  0  0  0  0  0  0  0  0  0  0  0
    5.4374   -3.0991    0.7827 H   0  0  0  0  0  0  0  0  0  0  0  0
    3.2277   -4.3247    0.9183 H   0  0  0  0  0  0  0  0  0  0  0  0
    3.2339   -4.5098   -0.8815 H   0  0  0  0  0  0  0  0  0  0  0  0
    3.2821   -2.0221   -1.1252 H   0  0  0  0  0  0  0  0  0  0  0  0
    3.2889   -1.8592    0.6787 H   0  0  0  0  0  0  0  0  0  0  0  0
    1.0704   -3.4987   -0.0840 H   0  0  0  0  0  0  0  0  0  0  0  0
   -0.9430   -3.5949    0.1174 H   0  0  0  0  0  0  0  0  0  0  0  0
   -4.6660   -1.5220    0.1274 H   0  0  0  0  0  0  0  0  0  0  0  0
   -0.7019    5.4257   -1.0295 H   0  0  0  0  0  0  0  0  0  0  0  0
   -4.5293    3.6260   -0.3352 H   0  0  0  0  0  0  0  0  0  0  0  0
   -4.2347    0.8068   -2.3465 H   0  0  0  0  0  0  0  0  0  0  0  0
   -5.4067    1.8306   -1.4442 H   0  0  0  0  0  0  0  0  0  0  0  0
   -5.4609    0.0648   -1.2598 H   0  0  0  0  0  0  0  0  0  0  0  0
   -3.7641    1.2475    1.9687 H   0  0  0  0  0  0  0  0  0  0  0  0
   -5.1702    0.3187    1.3408 H   0  0  0  0  0  0  0  0  0  0  0  0
   -5.1357    2.0812    1.1584 H   0  0  0  0  0  0  0  0  0  0  0  0
   -5.2304    5.3369   -1.6689 H   0  0  0  0  0  0  0  0  0  0  0  0
   -3.9658    5.9670   -2.7823 H   0  0  0  0  0  0  0  0  0  0  0  0
   -4.9746    7.1012   -1.8113 H   0  0  0  0  0  0  0  0  0  0  0  0
   -4.8625    5.5199    0.9025 H   0  0  0  0  0  0  0  0  0  0  0  0
   -4.6143    7.2819    0.7205 H   0  0  0  0  0  0  0  0  0  0  0  0
   -3.3518    6.2756    1.5204 H   0  0  0  0  0  0  0  0  0  0  0  0
   -1.9222    7.1789   -1.8725 H   0  0  0  0  0  0  0  0  0  0  0  0
   -1.6645    7.3030   -0.0825 H   0  0  0  0  0  0  0  0  0  0  0  0
   -2.9783    8.2274   -0.8760 H   0  0  0  0  0  0  0  0  0  0  0  0
    0.7818    1.3684   -1.9893 H   0  0  0  0  0  0  0  0  0  0  0  0
    2.8466    1.8132   -3.1672 H   0  0  0  0  0  0  0  0  0  0  0  0
    3.1719    1.0882   -1.5574 H   0  0  0  0  0  0  0  0  0  0  0  0
    3.7200    3.3303   -0.6430 H   0  0  0  0  0  0  0  0  0  0  0  0
    3.4252    4.0715   -2.2852 H   0  0  0  0  0  0  0  0  0  0  0  0
    5.1471    2.5953   -3.2677 H   0  0  0  0  0  0  0  0  0  0  0  0
    5.5380    1.9073   -1.6518 H   0  0  0  0  0  0  0  0  0  0  0  0
    5.7680    4.8066   -2.4217 H   0  0  0  0  0  0  0  0  0  0  0  0
    7.8792    2.7048   -2.1338 H   0  0  0  0  0  0  0  0  0  0  0  0
    8.1469    4.4620   -2.4655 H   0  0  0  0  0  0  0  0  0  0  0  0
    7.3062    3.4506   -3.6776 H   0  0  0  0  0  0  0  0  0  0  0  0
    5.4187    4.5923   -0.0459 H   0  0  0  0  0  0  0  0  0  0  0  0
    6.7054    3.3192    0.0138 H   0  0  0  0  0  0  0  0  0  0  0  0
    7.1004    5.0340   -0.3949 H   0  0  0  0  0  0  0  0  0  0  0  0
   -2.1859   -5.4226   -0.5243 H   0  0  0  0  0  0  0  0  0  0  0  0
   -3.3720   -6.2082    0.5642 H   0  0  0  0  0  0  0  0  0  0  0  0
   -2.0585   -5.2191    1.2729 H   0  0  0  0  0  0  0  0  0  0  0  0
   -4.0874   -4.3132   -1.7992 H   0  0  0  0  0  0  0  0  0  0  0  0
   -5.3796   -3.4183   -0.9249 H   0  0  0  0  0  0  0  0  0  0  0  0
   -5.2262   -5.1870   -0.7102 H   0  0  0  0  0  0  0  0  0  0  0  0
   -3.7740   -3.8127    2.5180 H   0  0  0  0  0  0  0  0  0  0  0  0
   -5.0409   -4.8936    1.8299 H   0  0  0  0  0  0  0  0  0  0  0  0
   -5.1934   -3.1205    1.6569 H   0  0  0  0  0  0  0  0  0  0  0  0
  1 43  1  0  0  0  0
  1 44  1  0  0  0  0
  1 45  1  0  0  0  0
  2  1  1  0  0  0  0
  2 46  1  0  0  0  0
  3  2  1  0  0  0  0
  3 47  1  0  0  0  0
  3 48  1  0  0  0  0
  3 49  1  0  0  0  0
  4  2  1  0  0  0  0
  4 50  1  0  0  0  0
  4 51  1  0  0  0  0
  5  4  1  0  0  0  0
  5 52  1  0  0  0  0
  5 53  1  0  0  0  0
  6  5  1  0  0  0  0
  6 54  1  0  0  0  0
  6 55  1  0  0  0  0
  7  6  1  0  0  0  0
  7 56  1  0  0  0  0
  8  7  1  0  0  0  0
  9  8  2  0  0  0  0
 10  8  1  0  0  0  0
 11 10  2  0  0  0  0
 11 57  1  0  0  0  0
 12 11  1  0  0  0  0
 13 12  2  0  0  0  0
 13 58  1  0  0  0  0
 14 13  1  0  0  0  0
 15 14  2  0  0  0  0
 15 10  1  0  0  0  0
 16 15  1  0  0  0  0
 17 16  1  0  0  0  0
 18 17  2  0  0  0  0
 19 18  1  0  0  0  0
 19 59  1  0  0  0  0
 20 19  2  0  0  0  0
 21 20  1  0  0  0  0
 21 60  1  0  0  0  0
 22 21  2  0  0  0  0
 22 17  1  0  0  0  0
 23 22  1  0  0  0  0
 23 14  1  0  0  0  0
 24 23  1  0  0  0  0
 24 61  1  0  0  0  0
 24 62  1  0  0  0  0
 24 63  1  0  0  0  0
 25 23  1  0  0  0  0
 25 64  1  0  0  0  0
 25 65  1  0  0  0  0
 25 66  1  0  0  0  0
 26 20  1  0  0  0  0
 27 26  1  0  0  0  0
 27 67  1  0  0  0  0
 27 68  1  0  0  0  0
 27 69  1  0  0  0  0
 28 26  1  0  0  0  0
 28 70  1  0  0  0  0
 28 71  1  0  0  0  0
 28 72  1  0  0  0  0
 29 26  1  0  0  0  0
 29 73  1  0  0  0  0
 29 74  1  0  0  0  0
 29 75  1  0  0  0  0
 30 18  1  0  0  0  0
 31 30  2  0  0  0  0
 32 30  1  0  0  0  0
 32 76  1  0  0  0  0
 33 32  1  0  0  0  0
 33 77  1  0  0  0  0
 33 78  1  0  0  0  0
 34 33  1  0  0  0  0
 34 79  1  0  0  0  0
 34 80  1  0  0  0  0
 35 34  1  0  0  0  0
 35 81  1  0  0  0  0
 35 82  1  0  0  0  0
 36 35  1  0  0  0  0
 36 83  1  0  0  0  0
 37 36  1  0  0  0  0
 37 84  1  0  0  0  0
 37 85  1  0  0  0  0
 37 86  1  0  0  0  0
 38 36  1  0  0  0  0
 38 87  1  0  0  0  0
 38 88  1  0  0  0  0
 38 89  1  0  0  0  0
 39 12  1  0  0  0  0
 40 39  1  0  0  0  0
 40 90  1  0  0  0  0
 40 91  1  0  0  0  0
 40 92  1  0  0  0  0
 41 39  1  0  0  0  0
 41 93  1  0  0  0  0
 41 94  1  0  0  0  0
 41 95  1  0  0  0  0
 42 39  1  0  0  0  0
 42 96  1  0  0  0  0
 42 97  1  0  0  0  0
 42 98  1  0  0  0  0
M  CHG  2   2   1  36   1
M  END
>  <MOL Chiral Flag>
0

>  <energy>
114.42078242144578

$$$$
> 664_AKC_s-1999-13993
>645.sdf
 OpenBabel10062216133D

 28 30  0  0  0  0  0  0  0  0999 V2000
   -5.0130   -1.3392   -1.7578 O   0  0  0  0  0  0  0  0  0  0  0  0
   -4.1329   -0.8624   -0.8561 C   0  0  0  0  0  0  0  0  0  0  0  0
   -2.7538   -0.7916   -1.1690 C   0  0  0  0  0  0  0  0  0  0  0  0
   -1.8845   -0.2696   -0.2130 C   0  0  0  0  0  0  0  0  0  0  0  0
   -2.3556    0.1585    1.0081 C   0  0  0  0  0  0  0  0  0  0  0  0
   -3.7014    0.0916    1.3532 C   0  0  0  0  0  0  0  0  0  0  0  0
   -4.5991   -0.4242    0.4055 C   0  0  0  0  0  0  0  0  0  0  0  0
   -1.2185    0.6357    1.7361 C   0  0  0  0  0  0  0  0  0  0  0  0
   -1.2027    1.0914    2.8671 O   0  0  0  0  0  0  0  0  0  0  0  0
   -0.0859    0.4343    0.8357 C   0  0  0  0  0  0  0  0  0  0  0  0
   -0.5356   -0.1076   -0.3287 O   0  0  0  0  0  0  0  0  0  0  0  0
    1.1905    0.7021    1.1690 C   0  0  0  0  0  0  0  0  0  0  0  0
    2.4009    0.4787    0.3356 C   0  0  0  0  0  0  0  0  0  0  0  0
    2.3805    0.3531   -1.0690 C   0  0  0  0  0  0  0  0  0  0  0  0
    3.5770    0.1337   -1.7695 C   0  0  0  0  0  0  0  0  0  0  0  0
    4.7884    0.0229   -1.0791 C   0  0  0  0  0  0  0  0  0  0  0  0
    4.8133    0.1505    0.3088 C   0  0  0  0  0  0  0  0  0  0  0  0
    3.6315    0.3890    1.0089 C   0  0  0  0  0  0  0  0  0  0  0  0
   -4.7300   -1.6188   -2.6396 H   0  0  0  0  0  0  0  0  0  0  0  0
   -2.3835   -1.1279   -2.1280 H   0  0  0  0  0  0  0  0  0  0  0  0
   -4.0461    0.4335    2.3208 H   0  0  0  0  0  0  0  0  0  0  0  0
   -5.6544   -0.4791    0.6449 H   0  0  0  0  0  0  0  0  0  0  0  0
    1.3609    1.0730    2.1750 H   0  0  0  0  0  0  0  0  0  0  0  0
    1.4603    0.4425   -1.6278 H   0  0  0  0  0  0  0  0  0  0  0  0
    3.5676    0.0469   -2.8484 H   0  0  0  0  0  0  0  0  0  0  0  0
    5.7093   -0.1598   -1.6181 H   0  0  0  0  0  0  0  0  0  0  0  0
    5.7483    0.0623    0.8475 H   0  0  0  0  0  0  0  0  0  0  0  0
    3.6690    0.4801    2.0878 H   0  0  0  0  0  0  0  0  0  0  0  0
  1 19  1  0  0  0  0
  2  1  1  0  0  0  0
  3  2  2  0  0  0  0
  3 20  1  0  0  0  0
  4  3  1  0  0  0  0
  5  4  2  0  0  0  0
  6  5  1  0  0  0  0
  6 21  1  0  0  0  0
  7  6  2  0  0  0  0
  7  2  1  0  0  0  0
  7 22  1  0  0  0  0
  8  5  1  0  0  0  0
  9  8  2  0  0  0  0
 10  8  1  0  0  0  0
 11 10  1  0  0  0  0
 11  4  1  0  0  0  0
 12 10  2  0  0  0  0
 12 23  1  0  0  0  0
 13 12  1  0  0  0  0
 14 13  2  0  0  0  0
 14 24  1  0  0  0  0
 15 14  1  0  0  0  0
 15 25  1  0  0  0  0
 16 15  2  0  0  0  0
 16 26  1  0  0  0  0
 17 16  1  0  0  0  0
 17 27  1  0  0  0  0
 18 17  2  0  0  0  0
 18 13  1  0  0  0  0
 18 28  1  0  0  0  0
M  END
>  <MOL Chiral Flag>
0

>  <energy>
53.999735280831104

$$$$
> 665_AKC_j.1574-6968.1999.tb13495.x
>646.sdf
 OpenBabel10062216143D

 32 31  0  0  0  0  0  0  0  0999 V2000
   -2.3637   -6.4744    3.8327 C   0  0  0  0  0  0  0  0  0  0  0  0
   -2.7328   -5.6798    2.5797 C   0  0  0  0  0  0  0  0  0  0  0  0
   -1.8181   -4.4698    2.3323 C   0  0  0  0  0  0  0  0  0  0  0  0
   -0.3642   -4.8598    2.0480 C   0  0  0  0  0  0  0  0  0  0  0  0
    0.6278   -3.3766    1.6903 S   0  0  1  0  0  0  0  0  0  0  0  0
    0.7731   -2.5978    3.0692 N   0  0  0  0  0  0  0  0  0  0  0  0
    2.0905   -3.8164    1.5181 O   0  0  0  0  0  0  0  0  0  0  0  0
    0.2448   -2.1169    0.4280 C   0  0  0  0  0  0  0  0  0  0  0  0
    1.3812   -1.0890    0.3043 C   0  0  0  0  0  0  0  0  0  0  0  0
    1.1167   -0.0236   -0.7879 C   0  0  2  0  0  0  0  0  0  0  0  0
    2.3245    0.7874   -0.9921 N   0  3  0  0  0  0  0  0  0  0  0  0
   -0.0535    0.8903   -0.4694 C   0  0  0  0  0  0  0  0  0  0  0  0
   -0.6989    0.8132    0.7111 O   0  5  0  0  0  0  0  0  0  0  0  0
   -0.4025    1.7288   -1.2853 O   0  0  0  0  0  0  0  0  0  0  0  0
   -3.0927   -7.3003    3.9721 H   0  0  0  0  0  0  0  0  0  0  0  0
   -2.3954   -5.8181    4.7282 H   0  0  0  0  0  0  0  0  0  0  0  0
   -1.3547   -6.9249    3.7409 H   0  0  0  0  0  0  0  0  0  0  0  0
   -3.7717   -5.3051    2.7066 H   0  0  0  0  0  0  0  0  0  0  0  0
   -2.7138   -6.3526    1.6950 H   0  0  0  0  0  0  0  0  0  0  0  0
   -1.8610   -3.7867    3.2086 H   0  0  0  0  0  0  0  0  0  0  0  0
   -2.2107   -3.9237    1.4470 H   0  0  0  0  0  0  0  0  0  0  0  0
   -0.3106   -5.5409    1.1723 H   0  0  0  0  0  0  0  0  0  0  0  0
    0.0830   -5.3691    2.9257 H   0  0  0  0  0  0  0  0  0  0  0  0
    1.1670   -3.0698    3.8956 H   0  0  0  0  0  0  0  0  0  0  0  0
   -0.7080   -1.6304    0.7137 H   0  0  0  0  0  0  0  0  0  0  0  0
    0.1082   -2.6318   -0.5465 H   0  0  0  0  0  0  0  0  0  0  0  0
    2.3008   -1.6486    0.0267 H   0  0  0  0  0  0  0  0  0  0  0  0
    1.5622   -0.5896    1.2810 H   0  0  0  0  0  0  0  0  0  0  0  0
    0.8916   -0.5627   -1.7361 H   0  0  0  0  0  0  0  0  0  0  0  0
    2.5671    1.3093   -0.1179 H   0  0  0  0  0  0  0  0  0  0  0  0
    2.1742    1.4712   -1.7696 H   0  0  0  0  0  0  0  0  0  0  0  0
    3.1286    0.1735   -1.2583 H   0  0  0  0  0  0  0  0  0  0  0  0
  1 15  1  0  0  0  0
  1 16  1  0  0  0  0
  1 17  1  0  0  0  0
  2  1  1  0  0  0  0
  2 18  1  0  0  0  0
  2 19  1  0  0  0  0
  3  2  1  0  0  0  0
  3 20  1  0  0  0  0
  3 21  1  0  0  0  0
  4  3  1  0  0  0  0
  4 22  1  0  0  0  0
  4 23  1  0  0  0  0
  5  4  1  1  0  0  0
  6  5  2  0  0  0  0
  6 24  1  0  0  0  0
  7  5  2  0  0  0  0
  8  5  1  0  0  0  0
  8 25  1  0  0  0  0
  8 26  1  0  0  0  0
  9  8  1  0  0  0  0
  9 27  1  0  0  0  0
  9 28  1  0  0  0  0
 10  9  1  0  0  0  0
 10 29  1  6  0  0  0
 11 10  1  0  0  0  0
 11 30  1  0  0  0  0
 11 31  1  0  0  0  0
 11 32  1  0  0  0  0
 12 10  1  0  0  0  0
 13 12  1  0  0  0  0
 14 12  2  0  0  0  0
M  CHG  2  11   1  13  -1
M  END
>  <MOL Chiral Flag>
0

>  <energy>
13.421177740917209

$$$$
> 666_AKC_jac/43.3.359
>647.sdf
 OpenBabel10062216143D

 46 50  0  0  0  0  0  0  0  0999 V2000
   -4.0015    0.1302   -1.2247 N   0  0  0  0  0  0  0  0  0  0  0  0
   -3.3932    1.2460   -0.5886 C   0  0  0  0  0  0  0  0  0  0  0  0
   -4.2027    2.1108    0.1687 C   0  0  0  0  0  0  0  0  0  0  0  0
   -3.6627    3.2471    0.7714 C   0  0  0  0  0  0  0  0  0  0  0  0
   -2.3100    3.5397    0.6245 C   0  0  0  0  0  0  0  0  0  0  0  0
   -1.4875    2.6932   -0.1152 C   0  0  0  0  0  0  0  0  0  0  0  0
   -2.0035    1.5320   -0.7227 C   0  0  0  0  0  0  0  0  0  0  0  0
   -1.0350    0.6509   -1.4876 C   0  0  0  0  0  0  0  0  0  0  0  0
   -0.7422   -0.6507   -0.7692 C   0  0  0  0  0  0  0  0  0  0  0  0
   -1.6982   -1.6227   -0.7535 N   0  0  0  0  0  0  0  0  0  0  0  0
   -1.4977   -2.8389   -0.1816 C   0  0  0  0  0  0  0  0  0  0  0  0
   -2.5089   -3.8071   -0.2089 C   0  0  0  0  0  0  0  0  0  0  0  0
   -2.2931   -5.0602    0.3761 C   0  0  0  0  0  0  0  0  0  0  0  0
   -1.0702   -5.3477    0.9916 C   0  0  0  0  0  0  0  0  0  0  0  0
   -0.0566   -4.3856    1.0220 C   0  0  0  0  0  0  0  0  0  0  0  0
   -0.2662   -3.1307    0.4322 C   0  0  0  0  0  0  0  0  0  0  0  0
    0.7317   -2.1581    0.4411 C   0  0  0  0  0  0  0  0  0  0  0  0
    0.5121   -0.9114   -0.1556 C   0  0  0  0  0  0  0  0  0  0  0  0
    1.6180    0.0613   -0.0809 C   0  0  0  0  0  0  0  0  0  0  0  0
    1.7704    1.0472    0.8934 C   0  0  0  0  0  0  0  0  0  0  0  0
    3.0225    1.5866    0.6731 C   0  0  0  0  0  0  0  0  0  0  0  0
    3.7352    2.5661    1.3658 C   0  0  0  0  0  0  0  0  0  0  0  0
    5.0359    2.8764    0.9198 C   0  0  0  0  0  0  0  0  0  0  0  0
    5.5837    2.2128   -0.2029 C   0  0  0  0  0  0  0  0  0  0  0  0
    4.8373    1.2307   -0.8808 C   0  0  0  0  0  0  0  0  0  0  0  0
    3.5609    0.9400   -0.4077 C   0  0  0  0  0  0  0  0  0  0  0  0
    2.7119    0.0074   -0.8729 N   0  0  0  0  0  0  0  0  0  0  0  0
   -5.0076   -0.0542   -1.0944 H   0  0  0  0  0  0  0  0  0  0  0  0
   -3.4879   -0.4605   -1.8889 H   0  0  0  0  0  0  0  0  0  0  0  0
   -5.2605    1.9074    0.2810 H   0  0  0  0  0  0  0  0  0  0  0  0
   -4.2971    3.9077    1.3477 H   0  0  0  0  0  0  0  0  0  0  0  0
   -1.8933    4.4244    1.0876 H   0  0  0  0  0  0  0  0  0  0  0  0
   -0.4367    2.9391   -0.2073 H   0  0  0  0  0  0  0  0  0  0  0  0
   -0.0810    1.2020   -1.6123 H   0  0  0  0  0  0  0  0  0  0  0  0
   -1.3897    0.4642   -2.5244 H   0  0  0  0  0  0  0  0  0  0  0  0
   -3.4576   -3.5923   -0.6847 H   0  0  0  0  0  0  0  0  0  0  0  0
   -3.0734   -5.8096    0.3522 H   0  0  0  0  0  0  0  0  0  0  0  0
   -0.9064   -6.3173    1.4437 H   0  0  0  0  0  0  0  0  0  0  0  0
    0.8876   -4.6192    1.4998 H   0  0  0  0  0  0  0  0  0  0  0  0
    1.6843   -2.3651    0.9170 H   0  0  0  0  0  0  0  0  0  0  0  0
    1.0825    1.2980    1.6908 H   0  0  0  0  0  0  0  0  0  0  0  0
    3.3135    3.0609    2.2313 H   0  0  0  0  0  0  0  0  0  0  0  0
    5.6234    3.6205    1.4428 H   0  0  0  0  0  0  0  0  0  0  0  0
    6.5851    2.4525   -0.5365 H   0  0  0  0  0  0  0  0  0  0  0  0
    5.2501    0.7070   -1.7329 H   0  0  0  0  0  0  0  0  0  0  0  0
    2.8798   -0.6527   -1.6636 H   0  0  0  0  0  0  0  0  0  0  0  0
  1 28  1  0  0  0  0
  1 29  1  0  0  0  0
  2  1  1  0  0  0  0
  3  2  2  0  0  0  0
  3 30  1  0  0  0  0
  4  3  1  0  0  0  0
  4 31  1  0  0  0  0
  5  4  2  0  0  0  0
  5 32  1  0  0  0  0
  6  5  1  0  0  0  0
  6 33  1  0  0  0  0
  7  6  2  0  0  0  0
  7  2  1  0  0  0  0
  8  7  1  0  0  0  0
  8 34  1  0  0  0  0
  8 35  1  0  0  0  0
  9  8  1  0  0  0  0
 10  9  2  0  0  0  0
 11 10  1  0  0  0  0
 12 11  2  0  0  0  0
 12 36  1  0  0  0  0
 13 12  1  0  0  0  0
 13 37  1  0  0  0  0
 14 13  2  0  0  0  0
 14 38  1  0  0  0  0
 15 14  1  0  0  0  0
 15 39  1  0  0  0  0
 16 15  2  0  0  0  0
 16 11  1  0  0  0  0
 17 16  1  0  0  0  0
 17 40  1  0  0  0  0
 18 17  2  0  0  0  0
 18  9  1  0  0  0  0
 19 18  1  0  0  0  0
 20 19  2  0  0  0  0
 20 41  1  0  0  0  0
 21 20  1  0  0  0  0
 22 21  2  0  0  0  0
 22 42  1  0  0  0  0
 23 22  1  0  0  0  0
 23 43  1  0  0  0  0
 24 23  2  0  0  0  0
 24 44  1  0  0  0  0
 25 24  1  0  0  0  0
 25 45  1  0  0  0  0
 26 25  2  0  0  0  0
 26 21  1  0  0  0  0
 27 26  1  0  0  0  0
 27 19  1  0  0  0  0
 27 46  1  0  0  0  0
M  END
>  <MOL Chiral Flag>
0

>  <energy>
85.851282330243805

$$$$
> 667_AKC_AAC.43.5.1234
>648.sdf
 OpenBabel10062216153D

 34 35  0  0  0  0  0  0  0  0999 V2000
    6.1156    0.8939    0.6444 C   0  0  0  0  0  0  0  0  0  0  0  0
    5.4047    1.1058   -0.5196 O   0  0  0  0  0  0  0  0  0  0  0  0
    4.0574    0.9746   -0.6529 C   0  0  0  0  0  0  0  0  0  0  0  0
    3.4865    1.2268   -1.8958 C   0  0  0  0  0  0  0  0  0  0  0  0
    2.1043    1.1087   -2.0968 C   0  0  0  0  0  0  0  0  0  0  0  0
    1.6022    1.3585   -3.3262 O   0  0  0  0  0  0  0  0  0  0  0  0
    1.2466    0.7201   -1.0275 C   0  0  0  0  0  0  0  0  0  0  0  0
   -0.2465    0.6014   -1.2844 C   0  0  0  0  0  0  0  0  0  0  0  0
   -0.6966    1.0597   -2.3255 O   0  0  0  0  0  0  0  0  0  0  0  0
   -1.2079   -0.0767   -0.3571 C   0  0  0  0  0  0  0  0  0  0  0  0
   -2.5363   -0.0797   -0.6046 C   0  0  0  0  0  0  0  0  0  0  0  0
   -3.5593   -0.7448    0.2580 C   0  0  0  0  0  0  0  0  0  0  0  0
   -3.2365   -1.4506    1.4401 C   0  0  0  0  0  0  0  0  0  0  0  0
   -4.2453   -2.0504    2.2013 C   0  0  0  0  0  0  0  0  0  0  0  0
   -5.5788   -1.9574    1.8011 C   0  0  0  0  0  0  0  0  0  0  0  0
   -5.9104   -1.2637    0.6371 C   0  0  0  0  0  0  0  0  0  0  0  0
   -4.9094   -0.6612   -0.1302 C   0  0  0  0  0  0  0  0  0  0  0  0
    1.8412    0.4748    0.2458 C   0  0  0  0  0  0  0  0  0  0  0  0
    1.0943    0.1454    1.3170 O   0  0  0  0  0  0  0  0  0  0  0  0
    3.2294    0.6009    0.4156 C   0  0  0  0  0  0  0  0  0  0  0  0
    7.1922    1.0756    0.4484 H   0  0  0  0  0  0  0  0  0  0  0  0
    5.9921   -0.1562    0.9854 H   0  0  0  0  0  0  0  0  0  0  0  0
    5.7783    1.5972    1.4354 H   0  0  0  0  0  0  0  0  0  0  0  0
    4.1257    1.5181   -2.7207 H   0  0  0  0  0  0  0  0  0  0  0  0
    2.1652    1.6200   -4.0691 H   0  0  0  0  0  0  0  0  0  0  0  0
   -0.8440   -0.5918    0.5056 H   0  0  0  0  0  0  0  0  0  0  0  0
   -2.9009    0.4355   -1.4893 H   0  0  0  0  0  0  0  0  0  0  0  0
   -2.2207   -1.5480    1.7875 H   0  0  0  0  0  0  0  0  0  0  0  0
   -3.9909   -2.5893    3.1051 H   0  0  0  0  0  0  0  0  0  0  0  0
   -6.3556   -2.4232    2.3936 H   0  0  0  0  0  0  0  0  0  0  0  0
   -6.9451   -1.1920    0.3275 H   0  0  0  0  0  0  0  0  0  0  0  0
   -5.1878   -0.1272   -1.0307 H   0  0  0  0  0  0  0  0  0  0  0  0
    1.4822   -0.0156    2.1893 H   0  0  0  0  0  0  0  0  0  0  0  0
    3.6542    0.4107    1.3923 H   0  0  0  0  0  0  0  0  0  0  0  0
  1 21  1  0  0  0  0
  1 22  1  0  0  0  0
  1 23  1  0  0  0  0
  2  1  1  0  0  0  0
  3  2  1  0  0  0  0
  4  3  2  0  0  0  0
  4 24  1  0  0  0  0
  5  4  1  0  0  0  0
  6  5  1  0  0  0  0
  6 25  1  0  0  0  0
  7  5  2  0  0  0  0
  8  7  1  0  0  0  0
  9  8  2  0  0  0  0
 10  8  1  0  0  0  0
 10 26  1  0  0  0  0
 11 10  2  0  0  0  0
 11 27  1  0  0  0  0
 12 11  1  0  0  0  0
 13 12  2  0  0  0  0
 13 28  1  0  0  0  0
 14 13  1  0  0  0  0
 14 29  1  0  0  0  0
 15 14  2  0  0  0  0
 15 30  1  0  0  0  0
 16 15  1  0  0  0  0
 16 31  1  0  0  0  0
 17 16  2  0  0  0  0
 17 12  1  0  0  0  0
 17 32  1  0  0  0  0
 18  7  1  0  0  0  0
 19 18  1  0  0  0  0
 19 33  1  0  0  0  0
 20 18  2  0  0  0  0
 20  3  1  0  0  0  0
 20 34  1  0  0  0  0
M  END
>  <MOL Chiral Flag>
0

>  <energy>
77.093004338225469

$$$$
> 668_AKC_jm9804073
>649.sdf
 OpenBabel10062216163D

 38 39  0  0  0  0  0  0  0  0999 V2000
   -4.7129    3.6577   -0.4482 N   0  0  0  0  0  0  0  0  0  0  0  0
   -4.5258    1.9863    0.0903 S   0  0  0  0  0  0  0  0  0  0  0  0
   -4.4620    2.0651    1.6231 O   0  0  0  0  0  0  0  0  0  0  0  0
   -5.9069    1.3530   -0.1368 O   0  0  0  0  0  0  0  0  0  0  0  0
   -3.1832    1.0142   -0.6096 C   0  0  0  0  0  0  0  0  0  0  0  0
   -1.9586    1.6232   -0.9225 C   0  0  0  0  0  0  0  0  0  0  0  0
   -1.8462    2.9602   -0.7321 F   0  0  0  0  0  0  0  0  0  0  0  0
   -0.8918    0.8575   -1.4742 C   0  0  0  0  0  0  0  0  0  0  0  0
   -1.1171   -0.5207   -1.7033 C   0  0  0  0  0  0  0  0  0  0  0  0
   -2.3460   -1.1233   -1.3942 C   0  0  0  0  0  0  0  0  0  0  0  0
   -3.3734   -0.3475   -0.8425 C   0  0  0  0  0  0  0  0  0  0  0  0
   -2.5379   -2.5964   -1.6634 C   0  0  0  0  0  0  0  0  0  0  0  0
   -1.6066   -3.3228   -0.9442 F   0  0  0  0  0  0  0  0  0  0  0  0
   -2.3574   -2.8428   -3.0126 F   0  0  0  0  0  0  0  0  0  0  0  0
   -3.8039   -3.0283   -1.3056 F   0  0  0  0  0  0  0  0  0  0  0  0
    0.3889    1.4572   -1.8131 N   0  0  0  0  0  0  0  0  0  0  0  0
    0.8940    2.6120   -1.0664 C   0  0  0  0  0  0  0  0  0  0  0  0
    2.3177    2.4682   -0.4897 C   0  0  0  0  0  0  0  0  0  0  0  0
    3.3848    2.4425   -1.5795 C   0  0  0  0  0  0  0  0  0  0  0  0
    3.6254    1.0761   -2.2232 C   0  0  0  0  0  0  0  0  0  0  0  0
    2.3998    0.1992   -2.4959 C   0  0  0  0  0  0  0  0  0  0  0  0
    1.1492    0.9414   -2.9610 C   0  0  0  0  0  0  0  0  0  0  0  0
   -4.0292    4.2482    0.0764 H   0  0  0  0  0  0  0  0  0  0  0  0
   -4.4699    3.6968   -1.4632 H   0  0  0  0  0  0  0  0  0  0  0  0
   -0.3340   -1.1470   -2.1084 H   0  0  0  0  0  0  0  0  0  0  0  0
   -4.3269   -0.7967   -0.5967 H   0  0  0  0  0  0  0  0  0  0  0  0
    0.8589    3.5091   -1.7227 H   0  0  0  0  0  0  0  0  0  0  0  0
    0.2751    2.8107   -0.1735 H   0  0  0  0  0  0  0  0  0  0  0  0
    2.4874    3.4075    0.0828 H   0  0  0  0  0  0  0  0  0  0  0  0
    2.4248    1.6199    0.2199 H   0  0  0  0  0  0  0  0  0  0  0  0
    4.3649    2.7697   -1.1682 H   0  0  0  0  0  0  0  0  0  0  0  0
    3.1018    3.1916   -2.3524 H   0  0  0  0  0  0  0  0  0  0  0  0
    4.3049    0.4669   -1.5872 H   0  0  0  0  0  0  0  0  0  0  0  0
    4.1665    1.2809   -3.1734 H   0  0  0  0  0  0  0  0  0  0  0  0
    2.1198   -0.3770   -1.5857 H   0  0  0  0  0  0  0  0  0  0  0  0
    2.7198   -0.5443   -3.2586 H   0  0  0  0  0  0  0  0  0  0  0  0
    0.5367    0.2055   -3.5174 H   0  0  0  0  0  0  0  0  0  0  0  0
    1.3741    1.7343   -3.7058 H   0  0  0  0  0  0  0  0  0  0  0  0
  1 23  1  0  0  0  0
  1 24  1  0  0  0  0
  2  1  1  0  0  0  0
  3  2  2  0  0  0  0
  4  2  2  0  0  0  0
  5  2  1  0  0  0  0
  6  5  2  0  0  0  0
  7  6  1  0  0  0  0
  8  6  1  0  0  0  0
  9  8  2  0  0  0  0
  9 25  1  0  0  0  0
 10  9  1  0  0  0  0
 11 10  2  0  0  0  0
 11  5  1  0  0  0  0
 11 26  1  0  0  0  0
 12 10  1  0  0  0  0
 13 12  1  0  0  0  0
 14 12  1  0  0  0  0
 15 12  1  0  0  0  0
 16  8  1  0  0  0  0
 17 16  1  0  0  0  0
 17 27  1  0  0  0  0
 17 28  1  0  0  0  0
 18 17  1  0  0  0  0
 18 29  1  0  0  0  0
 18 30  1  0  0  0  0
 19 18  1  0  0  0  0
 19 31  1  0  0  0  0
 19 32  1  0  0  0  0
 20 19  1  0  0  0  0
 20 33  1  0  0  0  0
 20 34  1  0  0  0  0
 21 20  1  0  0  0  0
 21 35  1  0  0  0  0
 21 36  1  0  0  0  0
 22 21  1  0  0  0  0
 22 16  1  0  0  0  0
 22 37  1  0  0  0  0
 22 38  1  0  0  0  0
M  END
>  <MOL Chiral Flag>
0

>  <energy>
-27.366188555045014

$$$$
> 669_AKC_jm9804073
>650.sdf
 OpenBabel10062216173D

 44 46  0  0  0  0  0  0  0  0999 V2000
   -4.1480   -0.6423    1.2089 N   0  0  0  0  0  0  0  0  0  0  0  0
   -3.0490   -1.7285    0.3563 S   0  0  0  0  0  0  0  0  0  0  0  0
   -3.5724   -3.1117    0.7762 O   0  0  0  0  0  0  0  0  0  0  0  0
   -3.4865   -1.7149   -1.1144 O   0  0  0  0  0  0  0  0  0  0  0  0
   -1.2550   -1.6320    0.6399 C   0  0  0  0  0  0  0  0  0  0  0  0
   -0.4426   -0.5375    0.2044 C   0  0  0  0  0  0  0  0  0  0  0  0
   -1.0492    0.5501   -0.4915 N   0  0  0  0  0  0  0  0  0  0  0  0
   -1.3433    0.5170   -1.9093 C   0  0  0  0  0  0  0  0  0  0  0  0
   -2.3188    1.6851   -2.0845 C   0  0  0  0  0  0  0  0  0  0  0  0
   -1.8857    2.6469   -0.9901 C   0  0  0  0  0  0  0  0  0  0  0  0
   -1.6287    1.6925    0.1784 C   0  0  0  0  0  0  0  0  0  0  0  0
    0.9790   -0.5630    0.4836 C   0  0  0  0  0  0  0  0  0  0  0  0
    1.4926   -1.6760    1.1920 C   0  0  0  0  0  0  0  0  0  0  0  0
    0.6838   -2.7347    1.6041 C   0  0  0  0  0  0  0  0  0  0  0  0
   -0.6756   -2.7033    1.3247 C   0  0  0  0  0  0  0  0  0  0  0  0
    1.2590   -3.9213    2.3441 C   0  0  0  0  0  0  0  0  0  0  0  0
    0.6417   -4.0412    3.5757 F   0  0  0  0  0  0  0  0  0  0  0  0
    2.6232   -3.7996    2.5488 F   0  0  0  0  0  0  0  0  0  0  0  0
    1.0302   -5.0723    1.6117 F   0  0  0  0  0  0  0  0  0  0  0  0
    1.9214    0.4727    0.0726 N   0  0  0  0  0  0  0  0  0  0  0  0
    3.3491    0.3671    0.3254 C   0  0  0  0  0  0  0  0  0  0  0  0
    3.9523    1.4256   -0.5911 C   0  0  0  0  0  0  0  0  0  0  0  0
    2.8966    2.4998   -0.5538 C   0  0  0  0  0  0  0  0  0  0  0  0
    1.6133    1.6811   -0.6589 C   0  0  0  0  0  0  0  0  0  0  0  0
   -4.4380    0.1206    0.5578 H   0  0  0  0  0  0  0  0  0  0  0  0
   -3.6378   -0.2323    2.0224 H   0  0  0  0  0  0  0  0  0  0  0  0
   -1.8146   -0.4226   -2.2530 H   0  0  0  0  0  0  0  0  0  0  0  0
   -0.4134    0.6630   -2.4840 H   0  0  0  0  0  0  0  0  0  0  0  0
   -2.3541    2.1059   -3.1123 H   0  0  0  0  0  0  0  0  0  0  0  0
   -3.3381    1.3362   -1.8054 H   0  0  0  0  0  0  0  0  0  0  0  0
   -2.5910    3.4747   -0.7673 H   0  0  0  0  0  0  0  0  0  0  0  0
   -0.9210    3.0942   -1.3163 H   0  0  0  0  0  0  0  0  0  0  0  0
   -0.9712    2.1567    0.9416 H   0  0  0  0  0  0  0  0  0  0  0  0
   -2.5700    1.3918    0.6685 H   0  0  0  0  0  0  0  0  0  0  0  0
    2.5415   -1.7306    1.4288 H   0  0  0  0  0  0  0  0  0  0  0  0
   -1.2916   -3.5317    1.6510 H   0  0  0  0  0  0  0  0  0  0  0  0
    3.7864   -0.6092    0.0265 H   0  0  0  0  0  0  0  0  0  0  0  0
    3.5323    0.5808    1.4017 H   0  0  0  0  0  0  0  0  0  0  0  0
    4.9793    1.7455   -0.3158 H   0  0  0  0  0  0  0  0  0  0  0  0
    3.9686    1.0225   -1.6303 H   0  0  0  0  0  0  0  0  0  0  0  0
    2.9403    2.9650    0.4582 H   0  0  0  0  0  0  0  0  0  0  0  0
    2.9941    3.2997   -1.3185 H   0  0  0  0  0  0  0  0  0  0  0  0
    1.4100    1.4219   -1.7133 H   0  0  0  0  0  0  0  0  0  0  0  0
    0.8365    2.2972   -0.1993 H   0  0  0  0  0  0  0  0  0  0  0  0
  1 25  1  0  0  0  0
  1 26  1  0  0  0  0
  2  1  1  0  0  0  0
  3  2  2  0  0  0  0
  4  2  2  0  0  0  0
  5  2  1  0  0  0  0
  6  5  2  0  0  0  0
  7  6  1  0  0  0  0
  8  7  1  0  0  0  0
  8 27  1  0  0  0  0
  8 28  1  0  0  0  0
  9  8  1  0  0  0  0
  9 29  1  0  0  0  0
  9 30  1  0  0  0  0
 10  9  1  0  0  0  0
 10 31  1  0  0  0  0
 10 32  1  0  0  0  0
 11 10  1  0  0  0  0
 11  7  1  0  0  0  0
 11 33  1  0  0  0  0
 11 34  1  0  0  0  0
 12  6  1  0  0  0  0
 13 12  2  0  0  0  0
 13 35  1  0  0  0  0
 14 13  1  0  0  0  0
 15 14  2  0  0  0  0
 15  5  1  0  0  0  0
 15 36  1  0  0  0  0
 16 14  1  0  0  0  0
 17 16  1  0  0  0  0
 18 16  1  0  0  0  0
 19 16  1  0  0  0  0
 20 12  1  0  0  0  0
 21 20  1  0  0  0  0
 21 37  1  0  0  0  0
 21 38  1  0  0  0  0
 22 21  1  0  0  0  0
 22 39  1  0  0  0  0
 22 40  1  0  0  0  0
 23 22  1  0  0  0  0
 23 41  1  0  0  0  0
 23 42  1  0  0  0  0
 24 23  1  0  0  0  0
 24 20  1  0  0  0  0
 24 43  1  0  0  0  0
 24 44  1  0  0  0  0
M  END
>  <MOL Chiral Flag>
0

>  <energy>
27.390857727380165

$$$$
> 670_AKC_jm970232h
>651.sdf
 OpenBabel10062216183D

 74 77  0  0  0  0  0  0  0  0999 V2000
   10.8117    5.9838   -1.5384 C   0  0  0  0  0  0  0  0  0  0  0  0
   10.5368    4.7161   -0.7154 C   0  0  0  0  0  0  0  0  0  0  0  0
    9.1781    4.0070   -1.0441 C   0  0  0  0  0  0  0  0  0  0  0  0
    7.8472    3.2851   -1.4816 C   0  0  0  0  0  0  0  0  0  0  0  0
    6.7556    2.9471   -0.4123 C   0  0  0  0  0  0  0  0  0  0  0  0
    5.5177    3.8973   -0.3796 C   0  0  0  0  0  0  0  0  0  0  0  0
    4.5126    3.5004    0.6377 N   0  0  0  0  0  0  0  0  0  0  0  0
    4.9590    3.4889    2.0253 C   0  0  0  0  0  0  0  0  0  0  0  0
    3.0891    3.2415    0.3628 C   0  0  0  0  0  0  0  0  0  0  0  0
    2.1985    2.9298    1.4308 C   0  0  0  0  0  0  0  0  0  0  0  0
    0.8232    2.7411    1.2264 C   0  0  0  0  0  0  0  0  0  0  0  0
    0.2601    2.8719   -0.0474 C   0  0  0  0  0  0  0  0  0  0  0  0
   -1.1643    2.7635   -0.2643 N   0  0  0  0  0  0  0  0  0  0  0  0
   -1.7582    1.4548   -0.3464 C   0  0  0  0  0  0  0  0  0  0  0  0
   -2.1825    0.7435    0.8153 C   0  0  0  0  0  0  0  0  0  0  0  0
   -2.1806    1.3148    2.0998 C   0  0  0  0  0  0  0  0  0  0  0  0
   -2.5889    0.5712    3.2177 C   0  0  0  0  0  0  0  0  0  0  0  0
   -3.0130   -0.7714    3.0855 C   0  0  0  0  0  0  0  0  0  0  0  0
   -3.0514   -1.3252    1.7907 C   0  0  0  0  0  0  0  0  0  0  0  0
   -2.6577   -0.5820    0.6743 C   0  0  0  0  0  0  0  0  0  0  0  0
   -2.7381   -1.1550   -0.5495 N   0  0  0  0  0  0  0  0  0  0  0  0
   -2.4031   -0.4966   -1.6828 C   0  0  0  0  0  0  0  0  0  0  0  0
   -2.5224   -1.1569   -2.9115 C   0  0  0  0  0  0  0  0  0  0  0  0
   -2.1763   -0.5139   -4.1189 C   0  0  0  0  0  0  0  0  0  0  0  0
   -1.7313    0.8211   -4.0537 C   0  0  0  0  0  0  0  0  0  0  0  0
   -1.5985    1.4768   -2.8314 C   0  0  0  0  0  0  0  0  0  0  0  0
   -1.9196    0.8286   -1.6204 C   0  0  0  0  0  0  0  0  0  0  0  0
   -2.2543   -1.2074   -5.3846 N   0  0  0  0  0  0  0  0  0  0  0  0
   -1.8994   -0.5270   -6.6234 C   0  0  0  0  0  0  0  0  0  0  0  0
   -2.6457   -2.6093   -5.4383 C   0  0  0  0  0  0  0  0  0  0  0  0
   -3.3975   -1.5581    4.2389 N   0  0  0  0  0  0  0  0  0  0  0  0
   -3.3952   -0.9724    5.5724 C   0  0  0  0  0  0  0  0  0  0  0  0
   -3.7660   -2.9620    4.0906 C   0  0  0  0  0  0  0  0  0  0  0  0
    1.1250    3.1644   -1.1228 C   0  0  0  0  0  0  0  0  0  0  0  0
    2.5147    3.3306   -0.9314 C   0  0  0  0  0  0  0  0  0  0  0  0
   10.7699    5.7741   -2.6290 H   0  0  0  0  0  0  0  0  0  0  0  0
   11.8370    6.3573   -1.3126 H   0  0  0  0  0  0  0  0  0  0  0  0
   10.0859    6.7817   -1.2849 H   0  0  0  0  0  0  0  0  0  0  0  0
   10.6020    4.9890    0.3608 H   0  0  0  0  0  0  0  0  0  0  0  0
   11.3888    4.0160   -0.9216 H   0  0  0  0  0  0  0  0  0  0  0  0
    9.4185    3.1996   -0.3109 H   0  0  0  0  0  0  0  0  0  0  0  0
    9.5762    3.8223   -2.0690 H   0  0  0  0  0  0  0  0  0  0  0  0
    7.3722    3.8040   -2.3440 H   0  0  0  0  0  0  0  0  0  0  0  0
    8.1688    2.2846   -1.8679 H   0  0  0  0  0  0  0  0  0  0  0  0
    6.3256    1.9604   -0.6903 H   0  0  0  0  0  0  0  0  0  0  0  0
    7.2481    2.8045    0.5715 H   0  0  0  0  0  0  0  0  0  0  0  0
    5.0979    3.9181   -1.3984 H   0  0  0  0  0  0  0  0  0  0  0  0
    5.8665    4.9252   -0.1504 H   0  0  0  0  0  0  0  0  0  0  0  0
    6.0230    3.7780    2.1305 H   0  0  0  0  0  0  0  0  0  0  0  0
    4.3772    4.2326    2.6101 H   0  0  0  0  0  0  0  0  0  0  0  0
    4.8305    2.4740    2.4584 H   0  0  0  0  0  0  0  0  0  0  0  0
    2.5495    2.8491    2.4475 H   0  0  0  0  0  0  0  0  0  0  0  0
    0.2117    2.5382    2.0848 H   0  0  0  0  0  0  0  0  0  0  0  0
   -1.4943    3.4022   -0.9998 H   0  0  0  0  0  0  0  0  0  0  0  0
   -1.8885    2.3420    2.2466 H   0  0  0  0  0  0  0  0  0  0  0  0
   -2.5649    1.0537    4.1842 H   0  0  0  0  0  0  0  0  0  0  0  0
   -3.3890   -2.3402    1.6312 H   0  0  0  0  0  0  0  0  0  0  0  0
   -2.8777   -2.1781   -2.9086 H   0  0  0  0  0  0  0  0  0  0  0  0
   -1.4657    1.3679   -4.9464 H   0  0  0  0  0  0  0  0  0  0  0  0
   -1.2446    2.4907   -2.8625 H   0  0  0  0  0  0  0  0  0  0  0  0
   -0.8465   -0.1760   -6.5728 H   0  0  0  0  0  0  0  0  0  0  0  0
   -1.9821   -1.1909   -7.5088 H   0  0  0  0  0  0  0  0  0  0  0  0
   -2.5769    0.3376   -6.7872 H   0  0  0  0  0  0  0  0  0  0  0  0
   -1.9388   -3.2182   -4.8348 H   0  0  0  0  0  0  0  0  0  0  0  0
   -2.6271   -3.0120   -6.4726 H   0  0  0  0  0  0  0  0  0  0  0  0
   -3.6777   -2.7320   -5.0486 H   0  0  0  0  0  0  0  0  0  0  0  0
   -4.1127   -0.1263    5.6138 H   0  0  0  0  0  0  0  0  0  0  0  0
   -2.3748   -0.6186    5.8289 H   0  0  0  0  0  0  0  0  0  0  0  0
   -3.6966   -1.7027    6.3533 H   0  0  0  0  0  0  0  0  0  0  0  0
   -4.0091   -3.4419    5.0622 H   0  0  0  0  0  0  0  0  0  0  0  0
   -4.6618   -3.0570    3.4417 H   0  0  0  0  0  0  0  0  0  0  0  0
   -2.9185   -3.5288    3.6485 H   0  0  0  0  0  0  0  0  0  0  0  0
    0.7255    3.2651   -2.1214 H   0  0  0  0  0  0  0  0  0  0  0  0
    3.1031    3.5495   -1.8040 H   0  0  0  0  0  0  0  0  0  0  0  0
  1 36  1  0  0  0  0
  1 37  1  0  0  0  0
  1 38  1  0  0  0  0
  2  1  1  0  0  0  0
  2 39  1  0  0  0  0
  2 40  1  0  0  0  0
  3  2  1  0  0  0  0
  3 41  1  0  0  0  0
  3 42  1  0  0  0  0
  4  3  1  0  0  0  0
  4 43  1  0  0  0  0
  4 44  1  0  0  0  0
  5  4  1  0  0  0  0
  5 45  1  0  0  0  0
  5 46  1  0  0  0  0
  6  5  1  0  0  0  0
  6 47  1  0  0  0  0
  6 48  1  0  0  0  0
  7  6  1  0  0  0  0
  8  7  1  0  0  0  0
  8 49  1  0  0  0  0
  8 50  1  0  0  0  0
  8 51  1  0  0  0  0
  9  7  1  0  0  0  0
 10  9  2  0  0  0  0
 10 52  1  0  0  0  0
 11 10  1  0  0  0  0
 11 53  1  0  0  0  0
 12 11  2  0  0  0  0
 13 12  1  0  0  0  0
 13 54  1  0  0  0  0
 14 13  1  0  0  0  0
 15 14  2  0  0  0  0
 16 15  1  0  0  0  0
 16 55  1  0  0  0  0
 17 16  2  0  0  0  0
 17 56  1  0  0  0  0
 18 17  1  0  0  0  0
 19 18  2  0  0  0  0
 19 57  1  0  0  0  0
 20 19  1  0  0  0  0
 20 15  1  0  0  0  0
 21 20  2  0  0  0  0
 22 21  1  0  0  0  0
 23 22  2  0  0  0  0
 23 58  1  0  0  0  0
 24 23  1  0  0  0  0
 25 24  2  0  0  0  0
 25 59  1  0  0  0  0
 26 25  1  0  0  0  0
 26 60  1  0  0  0  0
 27 26  2  0  0  0  0
 27 14  1  0  0  0  0
 27 22  1  0  0  0  0
 28 24  1  0  0  0  0
 29 28  1  0  0  0  0
 29 61  1  0  0  0  0
 29 62  1  0  0  0  0
 29 63  1  0  0  0  0
 30 28  1  0  0  0  0
 30 64  1  0  0  0  0
 30 65  1  0  0  0  0
 30 66  1  0  0  0  0
 31 18  1  0  0  0  0
 32 31  1  0  0  0  0
 32 67  1  0  0  0  0
 32 68  1  0  0  0  0
 32 69  1  0  0  0  0
 33 31  1  0  0  0  0
 33 70  1  0  0  0  0
 33 71  1  0  0  0  0
 33 72  1  0  0  0  0
 34 12  1  0  0  0  0
 34 73  1  0  0  0  0
 35 34  2  0  0  0  0
 35  9  1  0  0  0  0
 35 74  1  0  0  0  0
M  END
>  <MOL Chiral Flag>
0

>  <energy>
89.194154772189009

$$$$
> 671_AKC_00034983.1996.11813083
>652.sdf
 OpenBabel10062216193D

 90 89  0  0  0  0  0  0  0  0999 V2000
    6.7825    8.9054    3.4917 C   0  0  0  0  0  0  0  0  0  0  0  0
    7.6303    7.6565    3.7202 C   0  0  0  0  0  0  0  0  0  0  0  0
    7.0941    6.4111    2.9985 C   0  0  0  0  0  0  0  0  0  0  0  0
    5.7236    5.9286    3.5116 C   0  0  0  0  0  0  0  0  0  0  0  0
    5.3405    4.6184    2.8110 C   0  0  0  0  0  0  0  0  0  0  0  0
    4.0034    4.0343    3.2999 C   0  0  0  0  0  0  0  0  0  0  0  0
    3.7596    2.6842    2.6069 C   0  0  0  0  0  0  0  0  0  0  0  0
    2.4488    1.9954    3.0355 C   0  0  0  0  0  0  0  0  0  0  0  0
    2.2235    0.6519    2.2983 C   0  0  0  0  0  0  0  0  0  0  0  0
    3.2451   -0.4376    2.6928 C   0  0  0  0  0  0  0  0  0  0  0  0
    3.2146   -1.7089    1.8207 C   0  0  0  0  0  0  0  0  0  0  0  0
    1.9579   -2.5928    1.9223 C   0  0  0  0  0  0  0  0  0  0  0  0
    0.7803   -1.9311    1.5125 O   0  0  0  0  0  0  0  0  0  0  0  0
    0.5873   -1.9789    0.1064 C   0  0  2  0  0  0  0  0  0  0  0  0
   -0.3076   -0.8892   -0.2441 N   0  0  0  0  0  0  0  0  0  0  0  0
   -1.5268   -0.7335    0.3497 C   0  0  0  0  0  0  0  0  0  0  0  0
   -1.9440   -1.5721    1.1376 O   0  0  0  0  0  0  0  0  0  0  0  0
   -2.3137    0.5335    0.1406 C   0  0  0  0  0  0  0  0  0  0  0  0
   -3.7672    0.3134   -0.2999 C   0  0  0  0  0  0  0  0  0  0  0  0
   -4.4779    1.6756   -0.3409 C   0  0  0  0  0  0  0  0  0  0  0  0
   -5.9676    1.5746   -0.6840 C   0  0  0  0  0  0  0  0  0  0  0  0
   -6.5990    2.9753   -0.6516 C   0  0  0  0  0  0  0  0  0  0  0  0
   -8.0981    2.9378   -0.9606 C   0  0  0  0  0  0  0  0  0  0  0  0
   -8.6961    4.3428   -0.9106 C   0  0  0  0  0  0  0  0  0  0  0  0
    0.0249   -3.2261   -0.2642 O   0  0  0  0  0  0  0  0  0  0  0  0
    0.3327   -3.5973   -1.9661 P   0  0  1  0  0  0  0  0  0  0  0  0
   -1.1527   -3.5405   -2.8608 O   0  5  0  0  0  0  0  0  0  0  0  0
    1.2607   -2.5079   -2.5790 O   0  0  0  0  0  0  0  0  0  0  0  0
    1.0880   -5.1849   -2.1306 O   0  0  0  0  0  0  0  0  0  0  0  0
    1.9139   -5.2764   -3.2795 C   0  0  0  0  0  0  0  0  0  0  0  0
    1.2838   -6.2247   -4.3270 C   0  0  0  0  0  0  0  0  0  0  0  0
    2.0804   -6.4217   -5.5830 N   0  3  0  0  0  0  0  0  0  0  0  0
    2.2672   -5.1443   -6.3135 C   0  0  0  0  0  0  0  0  0  0  0  0
    3.4054   -7.0254   -5.3022 C   0  0  0  0  0  0  0  0  0  0  0  0
    1.3311   -7.3490   -6.4666 C   0  0  0  0  0  0  0  0  0  0  0  0
    7.2587    9.7682    4.0043 H   0  0  0  0  0  0  0  0  0  0  0  0
    6.7170    9.1317    2.4062 H   0  0  0  0  0  0  0  0  0  0  0  0
    5.7627    8.7773    3.9068 H   0  0  0  0  0  0  0  0  0  0  0  0
    8.6517    7.8637    3.3318 H   0  0  0  0  0  0  0  0  0  0  0  0
    7.7115    7.4534    4.8100 H   0  0  0  0  0  0  0  0  0  0  0  0
    7.8346    5.5977    3.1642 H   0  0  0  0  0  0  0  0  0  0  0  0
    7.0408    6.6096    1.9052 H   0  0  0  0  0  0  0  0  0  0  0  0
    5.7884    5.7480    4.6069 H   0  0  0  0  0  0  0  0  0  0  0  0
    4.9436    6.6945    3.3164 H   0  0  0  0  0  0  0  0  0  0  0  0
    5.2822    4.7928    1.7136 H   0  0  0  0  0  0  0  0  0  0  0  0
    6.1436    3.8742    3.0090 H   0  0  0  0  0  0  0  0  0  0  0  0
    4.0486    3.8756    4.3998 H   0  0  0  0  0  0  0  0  0  0  0  0
    3.1758    4.7413    3.0721 H   0  0  0  0  0  0  0  0  0  0  0  0
    3.7336    2.8436    1.5063 H   0  0  0  0  0  0  0  0  0  0  0  0
    4.6226    2.0366    2.8539 H   0  0  0  0  0  0  0  0  0  0  0  0
    2.4357    1.8290    4.1349 H   0  0  0  0  0  0  0  0  0  0  0  0
    1.6072    2.6758    2.7785 H   0  0  0  0  0  0  0  0  0  0  0  0
    1.2042    0.2878    2.5439 H   0  0  0  0  0  0  0  0  0  0  0  0
    2.2710    0.8419    1.2039 H   0  0  0  0  0  0  0  0  0  0  0  0
    3.1220   -0.6978    3.7668 H   0  0  0  0  0  0  0  0  0  0  0  0
    4.2681   -0.0408    2.5554 H   0  0  0  0  0  0  0  0  0  0  0  0
    4.0685   -2.3417    2.1475 H   0  0  0  0  0  0  0  0  0  0  0  0
    3.4093   -1.4255    0.7660 H   0  0  0  0  0  0  0  0  0  0  0  0
    1.8248   -2.9032    2.9803 H   0  0  0  0  0  0  0  0  0  0  0  0
    2.1108   -3.5361    1.3489 H   0  0  0  0  0  0  0  0  0  0  0  0
    1.5603   -1.7971   -0.3975 H   0  0  0  0  0  0  0  0  0  0  0  0
    0.0400   -0.1595   -0.8848 H   0  0  0  0  0  0  0  0  0  0  0  0
   -2.3269    1.0543    1.1229 H   0  0  0  0  0  0  0  0  0  0  0  0
   -1.7984    1.1952   -0.5892 H   0  0  0  0  0  0  0  0  0  0  0  0
   -3.8015   -0.1758   -1.2977 H   0  0  0  0  0  0  0  0  0  0  0  0
   -4.2807   -0.3395    0.4402 H   0  0  0  0  0  0  0  0  0  0  0  0
   -3.9725    2.3284   -1.0866 H   0  0  0  0  0  0  0  0  0  0  0  0
   -4.3892    2.1495    0.6626 H   0  0  0  0  0  0  0  0  0  0  0  0
   -6.4747    0.9263    0.0644 H   0  0  0  0  0  0  0  0  0  0  0  0
   -6.0918    1.1255   -1.6934 H   0  0  0  0  0  0  0  0  0  0  0  0
   -6.4539    3.4161    0.3603 H   0  0  0  0  0  0  0  0  0  0  0  0
   -6.0883    3.6238   -1.3976 H   0  0  0  0  0  0  0  0  0  0  0  0
   -8.2613    2.5108   -1.9736 H   0  0  0  0  0  0  0  0  0  0  0  0
   -8.6183    2.2999   -0.2132 H   0  0  0  0  0  0  0  0  0  0  0  0
   -9.7821    4.2970   -1.1356 H   0  0  0  0  0  0  0  0  0  0  0  0
   -8.5618    4.7850    0.1001 H   0  0  0  0  0  0  0  0  0  0  0  0
   -8.2049    4.9993   -1.6605 H   0  0  0  0  0  0  0  0  0  0  0  0
    2.1314   -4.3007   -3.7435 H   0  0  0  0  0  0  0  0  0  0  0  0
    2.8886   -5.6780   -2.9395 H   0  0  0  0  0  0  0  0  0  0  0  0
    1.1153   -7.2088   -3.8314 H   0  0  0  0  0  0  0  0  0  0  0  0
    0.2807   -5.8146   -4.5847 H   0  0  0  0  0  0  0  0  0  0  0  0
    2.9273   -4.4436   -5.7612 H   0  0  0  0  0  0  0  0  0  0  0  0
    2.7563   -5.3131   -7.2994 H   0  0  0  0  0  0  0  0  0  0  0  0
    1.2911   -4.6426   -6.4973 H   0  0  0  0  0  0  0  0  0  0  0  0
    4.0496   -6.3468   -4.7053 H   0  0  0  0  0  0  0  0  0  0  0  0
    3.2995   -7.9870   -4.7523 H   0  0  0  0  0  0  0  0  0  0  0  0
    3.9588   -7.2318   -6.2468 H   0  0  0  0  0  0  0  0  0  0  0  0
    1.8770   -7.5294   -7.4214 H   0  0  0  0  0  0  0  0  0  0  0  0
    0.3305   -6.9371   -6.7274 H   0  0  0  0  0  0  0  0  0  0  0  0
    1.1796   -8.3378   -5.9785 H   0  0  0  0  0  0  0  0  0  0  0  0
  1 36  1  0  0  0  0
  1 37  1  0  0  0  0
  1 38  1  0  0  0  0
  2  1  1  0  0  0  0
  2 39  1  0  0  0  0
  2 40  1  0  0  0  0
  3  2  1  0  0  0  0
  3 41  1  0  0  0  0
  3 42  1  0  0  0  0
  4  3  1  0  0  0  0
  4 43  1  0  0  0  0
  4 44  1  0  0  0  0
  5  4  1  0  0  0  0
  5 45  1  0  0  0  0
  5 46  1  0  0  0  0
  6  5  1  0  0  0  0
  6 47  1  0  0  0  0
  6 48  1  0  0  0  0
  7  6  1  0  0  0  0
  7 49  1  0  0  0  0
  7 50  1  0  0  0  0
  8  7  1  0  0  0  0
  8 51  1  0  0  0  0
  8 52  1  0  0  0  0
  9  8  1  0  0  0  0
  9 53  1  0  0  0  0
  9 54  1  0  0  0  0
 10  9  1  0  0  0  0
 10 55  1  0  0  0  0
 10 56  1  0  0  0  0
 11 10  1  0  0  0  0
 11 57  1  0  0  0  0
 11 58  1  0  0  0  0
 12 11  1  0  0  0  0
 12 59  1  0  0  0  0
 12 60  1  0  0  0  0
 13 12  1  0  0  0  0
 14 13  1  0  0  0  0
 14 61  1  6  0  0  0
 15 14  1  0  0  0  0
 15 62  1  0  0  0  0
 16 15  1  0  0  0  0
 17 16  2  0  0  0  0
 18 16  1  0  0  0  0
 18 63  1  0  0  0  0
 18 64  1  0  0  0  0
 19 18  1  0  0  0  0
 19 65  1  0  0  0  0
 19 66  1  0  0  0  0
 20 19  1  0  0  0  0
 20 67  1  0  0  0  0
 20 68  1  0  0  0  0
 21 20  1  0  0  0  0
 21 69  1  0  0  0  0
 21 70  1  0  0  0  0
 22 21  1  0  0  0  0
 22 71  1  0  0  0  0
 22 72  1  0  0  0  0
 23 22  1  0  0  0  0
 23 73  1  0  0  0  0
 23 74  1  0  0  0  0
 24 23  1  0  0  0  0
 24 75  1  0  0  0  0
 24 76  1  0  0  0  0
 24 77  1  0  0  0  0
 25 14  1  0  0  0  0
 26 25  1  1  0  0  0
 27 26  1  0  0  0  0
 28 26  2  0  0  0  0
 29 26  1  0  0  0  0
 30 29  1  0  0  0  0
 30 78  1  0  0  0  0
 30 79  1  0  0  0  0
 31 30  1  0  0  0  0
 31 80  1  0  0  0  0
 31 81  1  0  0  0  0
 32 31  1  0  0  0  0
 33 32  1  0  0  0  0
 33 82  1  0  0  0  0
 33 83  1  0  0  0  0
 33 84  1  0  0  0  0
 34 32  1  0  0  0  0
 34 85  1  0  0  0  0
 34 86  1  0  0  0  0
 34 87  1  0  0  0  0
 35 32  1  0  0  0  0
 35 88  1  0  0  0  0
 35 89  1  0  0  0  0
 35 90  1  0  0  0  0
M  CHG  2  27  -1  32   1
M  END
>  <MOL Chiral Flag>
0

>  <energy>
-227.5419771922264

$$$$
> 672_AKC_s-2006-959531
>653.sdf
 OpenBabel10062216203D

103111  0  0  0  0  0  0  0  0999 V2000
    7.5456   -1.3408   -2.9952 C   0  0  0  0  0  0  0  0  0  0  0  0
    7.4911   -0.8077   -1.5641 C   0  0  0  0  0  0  0  0  0  0  0  0
    6.2056   -1.0918   -0.7420 C   0  0  2  0  0  0  0  0  0  0  0  0
    5.9928   -2.5922   -0.3712 C   0  0  0  0  0  0  0  0  0  0  0  0
    4.4751   -2.8449   -0.1376 C   0  0  1  0  0  0  0  0  0  0  0  0
    3.9226   -1.7202    0.7666 C   0  0  0  0  0  0  0  0  0  0  0  0
    3.8625   -0.3636   -0.0348 C   0  0  1  0  0  0  0  0  0  0  0  0
    4.8450   -0.5196   -1.2938 C   0  0  2  0  0  0  0  0  0  0  0  0
    4.2730   -1.5304   -2.2488 N   0  3  1  0  0  0  0  0  0  0  0  0
    3.7655   -2.7318   -1.5140 C   0  0  0  0  0  0  0  0  0  0  0  0
    3.3334   -1.0312   -3.2920 C   0  0  0  0  0  0  0  0  0  0  0  0
    2.6291    0.2866   -2.9679 C   0  0  0  0  0  0  0  0  0  0  0  0
    1.8790    0.2094   -1.6850 C   0  0  0  0  0  0  0  0  0  0  0  0
    2.4024   -0.0664   -0.4204 C   0  0  0  0  0  0  0  0  0  0  0  0
    1.3995    0.0095    0.4967 N   0  0  0  0  0  0  0  0  0  0  0  0
    0.2846    0.3522   -0.1684 C   0  0  0  0  0  0  0  0  0  0  0  0
   -0.9641    0.6187    0.3804 C   0  0  0  0  0  0  0  0  0  0  0  0
   -2.0095    1.0810   -0.4717 C   0  0  0  0  0  0  0  0  0  0  0  0
   -1.7368    1.2175   -1.8779 C   0  0  0  0  0  0  0  0  0  0  0  0
   -0.4522    0.8867   -2.3864 C   0  0  0  0  0  0  0  0  0  0  0  0
    0.5345    0.4820   -1.4975 C   0  0  0  0  0  0  0  0  0  0  0  0
   -2.6938    1.7252   -2.6991 O   0  0  0  0  0  0  0  0  0  0  0  0
   -2.5438    1.9999   -4.0434 C   0  0  0  0  0  0  0  0  0  0  0  0
   -3.3333    1.6190    0.1178 C   0  0  1  0  0  0  0  0  0  0  0  0
   -4.7015    1.1424   -0.4874 C   0  0  0  0  0  0  0  0  0  0  0  0
   -5.5626   -0.1538   -0.1809 C   0  0  2  0  0  0  0  0  0  0  0  0
   -6.0857   -0.2186    1.2802 C   0  0  1  0  0  0  0  0  0  0  0  0
   -5.1597   -1.0830    2.1849 C   0  0  2  0  0  0  0  0  0  0  0  0
   -3.6634   -0.7009    2.2567 C   0  0  0  0  0  0  0  0  0  0  0  0
   -3.4298    0.7257    2.5658 C   0  0  0  0  0  0  0  0  0  0  0  0
   -3.3041    1.7503    1.6331 C   0  0  0  0  0  0  0  0  0  0  0  0
   -3.0450    2.9169    2.2748 N   0  0  0  0  0  0  0  0  0  0  0  0
   -2.9838    2.6271    3.5881 C   0  0  0  0  0  0  0  0  0  0  0  0
   -2.7012    3.4985    4.6370 C   0  0  0  0  0  0  0  0  0  0  0  0
   -2.6595    2.9692    5.9414 C   0  0  0  0  0  0  0  0  0  0  0  0
   -2.9024    1.5932    6.1622 C   0  0  0  0  0  0  0  0  0  0  0  0
   -3.1842    0.7398    5.0797 C   0  0  0  0  0  0  0  0  0  0  0  0
   -3.2136    1.2946    3.8012 C   0  0  0  0  0  0  0  0  0  0  0  0
   -5.2723   -2.4714    1.7145 N   0  3  0  0  0  0  0  0  0  0  0  0
   -4.7593   -2.6739    0.3434 C   0  0  0  0  0  0  0  0  0  0  0  0
   -5.0027   -1.5208   -0.6459 C   0  0  0  0  0  0  0  0  0  0  0  0
   -4.7244   -1.8058   -1.9454 C   0  0  0  0  0  0  0  0  0  0  0  0
   -4.9855   -0.9296   -3.1381 C   0  0  0  0  0  0  0  0  0  0  0  0
   -6.5234    1.1263    1.8434 C   0  0  0  0  0  0  0  0  0  0  0  0
   -6.1207    1.5097    2.9325 O   0  0  0  0  0  0  0  0  0  0  0  0
   -7.3966    1.8879    1.1320 O   0  0  0  0  0  0  0  0  0  0  0  0
   -7.7479    3.1726    1.4911 C   0  0  0  0  0  0  0  0  0  0  0  0
    4.2826    0.7892    0.8810 C   0  0  0  0  0  0  0  0  0  0  0  0
    5.1938    1.5398    0.5545 O   0  0  0  0  0  0  0  0  0  0  0  0
    3.6252    0.9919    2.0536 O   0  0  0  0  0  0  0  0  0  0  0  0
    3.9170    2.0246    2.9197 C   0  0  0  0  0  0  0  0  0  0  0  0
    8.5333   -1.0909   -3.4371 H   0  0  0  0  0  0  0  0  0  0  0  0
    6.7765   -0.8511   -3.6273 H   0  0  0  0  0  0  0  0  0  0  0  0
    7.4277   -2.4429   -3.0212 H   0  0  0  0  0  0  0  0  0  0  0  0
    7.6327    0.2942   -1.6195 H   0  0  0  0  0  0  0  0  0  0  0  0
    8.3553   -1.2286   -1.0053 H   0  0  0  0  0  0  0  0  0  0  0  0
    6.4101   -0.5564    0.2087 H   0  0  0  0  0  0  0  0  0  0  0  0
    6.6140   -2.8321    0.5191 H   0  0  0  0  0  0  0  0  0  0  0  0
    6.3101   -3.2765   -1.1861 H   0  0  0  0  0  0  0  0  0  0  0  0
    4.3076   -3.8416    0.3243 H   0  0  0  0  0  0  0  0  0  0  0  0
    4.6069   -1.6569    1.6434 H   0  0  0  0  0  0  0  0  0  0  0  0
    2.9258   -1.9859    1.1780 H   0  0  0  0  0  0  0  0  0  0  0  0
    5.0427    0.4587   -1.7769 H   0  0  0  0  0  0  0  0  0  0  0  0
    5.0628   -1.9085   -2.8128 H   0  0  0  0  0  0  0  0  0  0  0  0
    3.9663   -3.6442   -2.1217 H   0  0  0  0  0  0  0  0  0  0  0  0
    2.6653   -2.6934   -1.3471 H   0  0  0  0  0  0  0  0  0  0  0  0
    2.5795   -1.8106   -3.5455 H   0  0  0  0  0  0  0  0  0  0  0  0
    3.8952   -0.8346   -4.2351 H   0  0  0  0  0  0  0  0  0  0  0  0
    1.9567    0.5416   -3.8118 H   0  0  0  0  0  0  0  0  0  0  0  0
    3.3571    1.1186   -2.9014 H   0  0  0  0  0  0  0  0  0  0  0  0
    1.4734   -0.1318    1.5282 H   0  0  0  0  0  0  0  0  0  0  0  0
   -1.0770    0.5378    1.4494 H   0  0  0  0  0  0  0  0  0  0  0  0
   -0.2180    1.0048   -3.4335 H   0  0  0  0  0  0  0  0  0  0  0  0
   -3.4979    2.4068   -4.4361 H   0  0  0  0  0  0  0  0  0  0  0  0
   -2.2989    1.0732   -4.6042 H   0  0  0  0  0  0  0  0  0  0  0  0
   -1.7491    2.7623   -4.1916 H   0  0  0  0  0  0  0  0  0  0  0  0
   -3.2663    2.6748   -0.2323 H   0  0  0  0  0  0  0  0  0  0  0  0
   -4.6073    1.2288   -1.5684 H   0  0  0  0  0  0  0  0  0  0  0  0
   -5.3813    1.9871   -0.2601 H   0  0  0  0  0  0  0  0  0  0  0  0
   -6.4857    0.0131   -0.7828 H   0  0  0  0  0  0  0  0  0  0  0  0
   -7.0481   -0.7785    1.2386 H   0  0  0  0  0  0  0  0  0  0  0  0
   -5.5801   -1.0362    3.2161 H   0  0  0  0  0  0  0  0  0  0  0  0
   -3.1405   -0.9016    1.3042 H   0  0  0  0  0  0  0  0  0  0  0  0
   -3.1560   -1.3421    3.0088 H   0  0  0  0  0  0  0  0  0  0  0  0
   -2.8810    3.8505    1.8364 H   0  0  0  0  0  0  0  0  0  0  0  0
   -2.5091    4.5477    4.4553 H   0  0  0  0  0  0  0  0  0  0  0  0
   -2.4361    3.6170    6.7787 H   0  0  0  0  0  0  0  0  0  0  0  0
   -2.8658    1.1932    7.1672 H   0  0  0  0  0  0  0  0  0  0  0  0
   -3.3645   -0.3156    5.2390 H   0  0  0  0  0  0  0  0  0  0  0  0
   -6.2808   -2.7568    1.7400 H   0  0  0  0  0  0  0  0  0  0  0  0
   -4.7766   -3.1227    2.3675 H   0  0  0  0  0  0  0  0  0  0  0  0
   -5.2422   -3.5977   -0.0512 H   0  0  0  0  0  0  0  0  0  0  0  0
   -3.6678   -2.8848    0.3688 H   0  0  0  0  0  0  0  0  0  0  0  0
   -4.3087   -2.7844   -2.1756 H   0  0  0  0  0  0  0  0  0  0  0  0
   -5.5560   -0.0125   -2.9268 H   0  0  0  0  0  0  0  0  0  0  0  0
   -5.6114   -1.5042   -3.8521 H   0  0  0  0  0  0  0  0  0  0  0  0
   -4.0238   -0.6857   -3.6333 H   0  0  0  0  0  0  0  0  0  0  0  0
   -8.4613    3.5776    0.7442 H   0  0  0  0  0  0  0  0  0  0  0  0
   -6.8457    3.8227    1.5046 H   0  0  0  0  0  0  0  0  0  0  0  0
   -8.2303    3.1786    2.4912 H   0  0  0  0  0  0  0  0  0  0  0  0
    3.2390    1.9665    3.7957 H   0  0  0  0  0  0  0  0  0  0  0  0
    3.7637    3.0027    2.4150 H   0  0  0  0  0  0  0  0  0  0  0  0
    4.9670    1.9441    3.2737 H   0  0  0  0  0  0  0  0  0  0  0  0
  1 52  1  0  0  0  0
  1 53  1  0  0  0  0
  1 54  1  0  0  0  0
  2  1  1  0  0  0  0
  2 55  1  0  0  0  0
  2 56  1  0  0  0  0
  3  2  1  0  0  0  0
  3 57  1  1  0  0  0
  4  3  1  0  0  0  0
  4 58  1  0  0  0  0
  4 59  1  0  0  0  0
  5  4  1  0  0  0  0
  5 60  1  1  0  0  0
  6  5  1  0  0  0  0
  6 61  1  0  0  0  0
  6 62  1  0  0  0  0
  7  6  1  0  0  0  0
  7 48  1  1  0  0  0
  8  7  1  0  0  0  0
  8  3  1  0  0  0  0
  8 63  1  6  0  0  0
  9  8  1  0  0  0  0
  9 10  1  0  0  0  0
  9 64  1  6  0  0  0
 10  5  1  0  0  0  0
 10 65  1  0  0  0  0
 10 66  1  0  0  0  0
 11  9  1  0  0  0  0
 11 67  1  0  0  0  0
 11 68  1  0  0  0  0
 12 11  1  0  0  0  0
 12 69  1  0  0  0  0
 12 70  1  0  0  0  0
 13 12  1  0  0  0  0
 14 13  2  0  0  0  0
 14  7  1  0  0  0  0
 15 14  1  0  0  0  0
 15 71  1  0  0  0  0
 16 15  1  0  0  0  0
 17 16  2  0  0  0  0
 17 72  1  0  0  0  0
 18 17  1  0  0  0  0
 19 18  2  0  0  0  0
 20 19  1  0  0  0  0
 20 73  1  0  0  0  0
 21 20  2  0  0  0  0
 21 13  1  0  0  0  0
 21 16  1  0  0  0  0
 22 19  1  0  0  0  0
 23 22  1  0  0  0  0
 23 74  1  0  0  0  0
 23 75  1  0  0  0  0
 23 76  1  0  0  0  0
 24 18  1  0  0  0  0
 24 77  1  6  0  0  0
 25 24  1  0  0  0  0
 25 78  1  0  0  0  0
 25 79  1  0  0  0  0
 26 25  1  0  0  0  0
 26 80  1  6  0  0  0
 27 26  1  0  0  0  0
 27 81  1  6  0  0  0
 28 27  1  0  0  0  0
 28 82  1  1  0  0  0
 29 28  1  0  0  0  0
 29 83  1  0  0  0  0
 29 84  1  0  0  0  0
 30 29  1  0  0  0  0
 31 30  2  0  0  0  0
 31 24  1  0  0  0  0
 32 31  1  0  0  0  0
 32 85  1  0  0  0  0
 33 32  1  0  0  0  0
 34 33  2  0  0  0  0
 34 86  1  0  0  0  0
 35 34  1  0  0  0  0
 35 87  1  0  0  0  0
 36 35  2  0  0  0  0
 36 88  1  0  0  0  0
 37 36  1  0  0  0  0
 37 89  1  0  0  0  0
 38 37  2  0  0  0  0
 38 30  1  0  0  0  0
 38 33  1  0  0  0  0
 39 28  1  0  0  0  0
 39 90  1  0  0  0  0
 39 91  1  0  0  0  0
 40 39  1  0  0  0  0
 40 92  1  0  0  0  0
 40 93  1  0  0  0  0
 41 40  1  0  0  0  0
 41 26  1  0  0  0  0
 42 41  2  0  0  0  0
 42 94  1  0  0  0  0
 43 42  1  0  0  0  0
 43 95  1  0  0  0  0
 43 96  1  0  0  0  0
 43 97  1  0  0  0  0
 44 27  1  0  0  0  0
 45 44  2  0  0  0  0
 46 44  1  0  0  0  0
 47 46  1  0  0  0  0
 47 98  1  0  0  0  0
 47 99  1  0  0  0  0
 47100  1  0  0  0  0
 49 48  2  0  0  0  0
 50 48  1  0  0  0  0
 51 50  1  0  0  0  0
 51101  1  0  0  0  0
 51102  1  0  0  0  0
 51103  1  0  0  0  0
M  CHG  2   9   1  39   1
M  END
>  <MOL Chiral Flag>
0

>  <energy>
585.95474978792629

$$$$
> 673_AKC_ptr.2650070203
>654.sdf
 OpenBabel10062216203D

 34 36  0  0  0  0  0  0  0  0999 V2000
   -2.7578    0.6976    0.3827 C   0  0  0  0  0  0  0  0  0  0  0  0
   -1.6798    0.6643   -0.4262 C   0  0  0  0  0  0  0  0  0  0  0  0
   -0.9946    1.9716   -0.7960 C   0  0  0  0  0  0  0  0  0  0  0  0
    0.3882    2.1771   -0.1546 C   0  0  0  0  0  0  0  0  0  0  0  0
    1.3564    0.9980   -0.3585 C   0  0  2  0  0  0  0  0  0  0  0  0
    0.8982   -0.2451    0.4907 C   0  0  1  0  0  0  0  0  0  0  0  0
    0.0293   -1.2645   -0.2674 C   0  0  2  0  0  0  0  0  0  0  0  0
   -1.1493   -0.6330   -1.0767 C   0  0  1  0  0  0  0  0  0  0  0  0
   -2.2225   -1.7496   -1.1886 C   0  0  0  0  0  0  0  0  0  0  0  0
   -2.0352   -2.4738    0.0909 C   0  0  0  0  0  0  0  0  0  0  0  0
   -2.7843   -3.3527    0.4891 O   0  0  0  0  0  0  0  0  0  0  0  0
   -0.7057   -2.2334    0.6236 C   0  0  0  0  0  0  0  0  0  0  0  0
   -0.2031   -2.8648    1.6951 C   0  0  0  0  0  0  0  0  0  0  0  0
    2.0462   -0.8010    1.0341 O   0  0  0  0  0  0  0  0  0  0  0  0
    3.0758    0.0447    0.9560 C   0  0  0  0  0  0  0  0  0  0  0  0
    4.1646   -0.1773    1.4597 O   0  0  0  0  0  0  0  0  0  0  0  0
    2.7327    1.2099    0.1896 C   0  0  0  0  0  0  0  0  0  0  0  0
    3.5357    2.2560   -0.0442 C   0  0  0  0  0  0  0  0  0  0  0  0
   -3.1089    1.6390    0.7939 H   0  0  0  0  0  0  0  0  0  0  0  0
   -3.2974   -0.1975    0.6625 H   0  0  0  0  0  0  0  0  0  0  0  0
   -1.6117    2.8467   -0.4954 H   0  0  0  0  0  0  0  0  0  0  0  0
   -0.9133    2.0121   -1.9040 H   0  0  0  0  0  0  0  0  0  0  0  0
    0.8172    3.1008   -0.5978 H   0  0  0  0  0  0  0  0  0  0  0  0
    0.2650    2.3600    0.9355 H   0  0  0  0  0  0  0  0  0  0  0  0
    1.4959    0.7714   -1.4393 H   0  0  0  0  0  0  0  0  0  0  0  0
    0.3152    0.1232    1.3656 H   0  0  0  0  0  0  0  0  0  0  0  0
    0.6607   -1.8598   -0.9639 H   0  0  0  0  0  0  0  0  0  0  0  0
   -0.8405   -0.3297   -2.1008 H   0  0  0  0  0  0  0  0  0  0  0  0
   -1.9649   -2.4720   -1.9935 H   0  0  0  0  0  0  0  0  0  0  0  0
   -3.2399   -1.3450   -1.3773 H   0  0  0  0  0  0  0  0  0  0  0  0
    0.8087   -2.6808    2.0324 H   0  0  0  0  0  0  0  0  0  0  0  0
   -0.8103   -3.5719    2.2517 H   0  0  0  0  0  0  0  0  0  0  0  0
    3.1996    3.0844   -0.6582 H   0  0  0  0  0  0  0  0  0  0  0  0
    4.5301    2.2946    0.3896 H   0  0  0  0  0  0  0  0  0  0  0  0
  1 19  1  0  0  0  0
  1 20  1  0  0  0  0
  2  1  2  0  0  0  0
  3  2  1  0  0  0  0
  3 21  1  0  0  0  0
  3 22  1  0  0  0  0
  4  3  1  0  0  0  0
  4 23  1  0  0  0  0
  4 24  1  0  0  0  0
  5  4  1  0  0  0  0
  5 25  1  6  0  0  0
  6  5  1  0  0  0  0
  6 26  1  1  0  0  0
  7  6  1  0  0  0  0
  7 27  1  6  0  0  0
  8  7  1  0  0  0  0
  8  2  1  0  0  0  0
  8 28  1  6  0  0  0
  9  8  1  0  0  0  0
  9 29  1  0  0  0  0
  9 30  1  0  0  0  0
 10  9  1  0  0  0  0
 11 10  2  0  0  0  0
 12 10  1  0  0  0  0
 12  7  1  0  0  0  0
 13 12  2  0  0  0  0
 13 31  1  0  0  0  0
 13 32  1  0  0  0  0
 14  6  1  0  0  0  0
 15 14  1  0  0  0  0
 16 15  2  0  0  0  0
 17 15  1  0  0  0  0
 17  5  1  0  0  0  0
 18 17  2  0  0  0  0
 18 33  1  0  0  0  0
 18 34  1  0  0  0  0
M  END
>  <MOL Chiral Flag>
0

>  <energy>
55.630180683014501

$$$$
> 674_AKC_AAC.37.5.991
>655.sdf
 OpenBabel10062216203D

 41 44  0  0  0  0  0  0  0  0999 V2000
    5.4224    1.4833   -2.0344 N   0  0  0  0  0  0  0  0  0  0  0  0
    4.3397    0.9624   -1.2835 C   0  0  0  0  0  0  0  0  0  0  0  0
    4.5753    0.3082   -0.0676 C   0  0  0  0  0  0  0  0  0  0  0  0
    3.5083   -0.2088    0.6724 C   0  0  0  0  0  0  0  0  0  0  0  0
    2.1872   -0.0721    0.2148 C   0  0  0  0  0  0  0  0  0  0  0  0
    1.1209   -0.6337    0.9896 N   0  0  0  0  0  0  0  0  0  0  0  0
   -0.2718   -0.4624    0.6923 C   0  0  0  0  0  0  0  0  0  0  0  0
   -1.1097   -1.6029    0.5701 C   0  0  0  0  0  0  0  0  0  0  0  0
   -0.6137   -2.9183    0.7109 C   0  0  0  0  0  0  0  0  0  0  0  0
   -1.4659   -4.0166    0.5686 C   0  0  0  0  0  0  0  0  0  0  0  0
   -2.8219   -3.8296    0.2789 C   0  0  0  0  0  0  0  0  0  0  0  0
   -3.6800   -4.9477    0.1335 N   0  0  0  0  0  0  0  0  0  0  0  0
   -3.3246   -2.5321    0.1282 C   0  0  0  0  0  0  0  0  0  0  0  0
   -2.4808   -1.4243    0.2695 C   0  0  0  0  0  0  0  0  0  0  0  0
   -2.9903   -0.1789    0.1093 N   0  0  0  0  0  0  0  0  0  0  0  0
   -2.2318    0.9364    0.2431 C   0  0  0  0  0  0  0  0  0  0  0  0
   -2.8329    2.1916    0.0942 C   0  0  0  0  0  0  0  0  0  0  0  0
   -2.0830    3.3610    0.2600 C   0  0  0  0  0  0  0  0  0  0  0  0
   -2.6978    4.6290    0.1116 N   0  0  0  0  0  0  0  0  0  0  0  0
   -0.7261    3.2709    0.5866 C   0  0  0  0  0  0  0  0  0  0  0  0
   -0.1146    2.0236    0.7354 C   0  0  0  0  0  0  0  0  0  0  0  0
   -0.8523    0.8326    0.5479 C   0  0  0  0  0  0  0  0  0  0  0  0
    1.9579    0.5766   -1.0180 C   0  0  0  0  0  0  0  0  0  0  0  0
    3.0274    1.0918   -1.7559 C   0  0  0  0  0  0  0  0  0  0  0  0
    5.2551    1.9626   -2.9313 H   0  0  0  0  0  0  0  0  0  0  0  0
    6.3902    1.3879   -1.6933 H   0  0  0  0  0  0  0  0  0  0  0  0
    5.5860    0.1970    0.3047 H   0  0  0  0  0  0  0  0  0  0  0  0
    3.7094   -0.7145    1.6086 H   0  0  0  0  0  0  0  0  0  0  0  0
    1.3817   -1.3314    1.7015 H   0  0  0  0  0  0  0  0  0  0  0  0
    0.4269   -3.1127    0.9235 H   0  0  0  0  0  0  0  0  0  0  0  0
   -1.0673   -5.0173    0.6809 H   0  0  0  0  0  0  0  0  0  0  0  0
   -3.3150   -5.9055    0.2410 H   0  0  0  0  0  0  0  0  0  0  0  0
   -4.6792   -4.8167   -0.0823 H   0  0  0  0  0  0  0  0  0  0  0  0
   -4.3731   -2.3829   -0.1013 H   0  0  0  0  0  0  0  0  0  0  0  0
   -3.8883    2.2569   -0.1432 H   0  0  0  0  0  0  0  0  0  0  0  0
   -3.6984    4.7017   -0.1242 H   0  0  0  0  0  0  0  0  0  0  0  0
   -2.1516    5.4938    0.2375 H   0  0  0  0  0  0  0  0  0  0  0  0
   -0.1411    4.1708    0.7309 H   0  0  0  0  0  0  0  0  0  0  0  0
    0.9291    2.0051    1.0069 H   0  0  0  0  0  0  0  0  0  0  0  0
    0.9593    0.6775   -1.4185 H   0  0  0  0  0  0  0  0  0  0  0  0
    2.8344    1.5877   -2.6990 H   0  0  0  0  0  0  0  0  0  0  0  0
  1 25  1  0  0  0  0
  1 26  1  0  0  0  0
  2  1  1  0  0  0  0
  3  2  2  0  0  0  0
  3 27  1  0  0  0  0
  4  3  1  0  0  0  0
  4 28  1  0  0  0  0
  5  4  2  0  0  0  0
  6  5  1  0  0  0  0
  6 29  1  0  0  0  0
  7  6  1  0  0  0  0
  8  7  2  0  0  0  0
  9  8  1  0  0  0  0
  9 30  1  0  0  0  0
 10  9  2  0  0  0  0
 10 31  1  0  0  0  0
 11 10  1  0  0  0  0
 12 11  1  0  0  0  0
 12 32  1  0  0  0  0
 12 33  1  0  0  0  0
 13 11  2  0  0  0  0
 13 34  1  0  0  0  0
 14 13  1  0  0  0  0
 14  8  1  0  0  0  0
 15 14  2  0  0  0  0
 16 15  1  0  0  0  0
 17 16  2  0  0  0  0
 17 35  1  0  0  0  0
 18 17  1  0  0  0  0
 19 18  1  0  0  0  0
 19 36  1  0  0  0  0
 19 37  1  0  0  0  0
 20 18  2  0  0  0  0
 20 38  1  0  0  0  0
 21 20  1  0  0  0  0
 21 39  1  0  0  0  0
 22 21  2  0  0  0  0
 22  7  1  0  0  0  0
 22 16  1  0  0  0  0
 23  5  1  0  0  0  0
 23 40  1  0  0  0  0
 24 23  2  0  0  0  0
 24  2  1  0  0  0  0
 24 41  1  0  0  0  0
M  END
>  <MOL Chiral Flag>
0

>  <energy>
38.360382975061441

$$$$
> 675_AKC_AAC.37.5.991
>656.sdf
 OpenBabel10062216213D

 55 58  0  0  0  0  0  0  0  0999 V2000
   -5.5643    0.4097   -9.4398 C   0  0  0  0  0  0  0  0  0  0  0  0
   -5.0655    0.0740   -8.0374 C   0  0  0  0  0  0  0  0  0  0  0  0
   -3.7717    0.8301   -7.7141 C   0  0  0  0  0  0  0  0  0  0  0  0
   -3.2822    0.5007   -6.2990 C   0  0  0  0  0  0  0  0  0  0  0  0
   -1.9991    1.2717   -5.9664 C   0  0  0  0  0  0  0  0  0  0  0  0
   -1.5301    0.9699   -4.5384 C   0  0  0  0  0  0  0  0  0  0  0  0
   -0.3378    1.7307   -4.2100 N   0  0  0  0  0  0  0  0  0  0  0  0
    0.2738    1.6800   -2.9201 C   0  0  0  0  0  0  0  0  0  0  0  0
   -0.2218    0.8485   -1.8967 C   0  0  0  0  0  0  0  0  0  0  0  0
    0.3845    0.8373   -0.6377 C   0  0  0  0  0  0  0  0  0  0  0  0
    1.5032    1.6544   -0.3744 C   0  0  0  0  0  0  0  0  0  0  0  0
    2.1239    1.7006    0.9157 N   0  0  0  0  0  0  0  0  0  0  0  0
    1.7707    0.8399    2.0056 C   0  0  0  0  0  0  0  0  0  0  0  0
    1.8333   -0.5783    1.8835 C   0  0  0  0  0  0  0  0  0  0  0  0
    2.2857   -1.2209    0.7078 C   0  0  0  0  0  0  0  0  0  0  0  0
    2.3366   -2.6158    0.6362 C   0  0  0  0  0  0  0  0  0  0  0  0
    1.9497   -3.3911    1.7284 C   0  0  0  0  0  0  0  0  0  0  0  0
    1.5195   -2.7764    2.9042 C   0  0  0  0  0  0  0  0  0  0  0  0
    1.4653   -1.3801    2.9923 C   0  0  0  0  0  0  0  0  0  0  0  0
    1.0721   -0.8037    4.1551 N   0  0  0  0  0  0  0  0  0  0  0  0
    1.0240    0.5416    4.3155 C   0  0  0  0  0  0  0  0  0  0  0  0
    0.6151    1.0725    5.5450 C   0  0  0  0  0  0  0  0  0  0  0  0
    0.5485    2.4541    5.7275 C   0  0  0  0  0  0  0  0  0  0  0  0
    0.8860    3.3143    4.6829 C   0  0  0  0  0  0  0  0  0  0  0  0
    1.2958    2.7996    3.4493 C   0  0  0  0  0  0  0  0  0  0  0  0
    1.3770    1.4025    3.2483 C   0  0  0  0  0  0  0  0  0  0  0  0
    1.9894    2.4847   -1.3956 C   0  0  0  0  0  0  0  0  0  0  0  0
    1.3857    2.4931   -2.6555 C   0  0  0  0  0  0  0  0  0  0  0  0
   -4.8052    0.1238  -10.1987 H   0  0  0  0  0  0  0  0  0  0  0  0
   -6.5015   -0.1493   -9.6454 H   0  0  0  0  0  0  0  0  0  0  0  0
   -5.7740    1.4974   -9.5247 H   0  0  0  0  0  0  0  0  0  0  0  0
   -4.8854   -1.0211   -7.9713 H   0  0  0  0  0  0  0  0  0  0  0  0
   -5.8533    0.3509   -7.3029 H   0  0  0  0  0  0  0  0  0  0  0  0
   -2.9863    0.5505   -8.4507 H   0  0  0  0  0  0  0  0  0  0  0  0
   -3.9604    1.9240   -7.7899 H   0  0  0  0  0  0  0  0  0  0  0  0
   -3.0882   -0.5916   -6.2181 H   0  0  0  0  0  0  0  0  0  0  0  0
   -4.0737    0.7786   -5.5682 H   0  0  0  0  0  0  0  0  0  0  0  0
   -2.1967    2.3629   -6.0556 H   0  0  0  0  0  0  0  0  0  0  0  0
   -1.1975    0.9922   -6.6851 H   0  0  0  0  0  0  0  0  0  0  0  0
   -1.3151   -0.1169   -4.4416 H   0  0  0  0  0  0  0  0  0  0  0  0
   -2.3427    1.2497   -3.8324 H   0  0  0  0  0  0  0  0  0  0  0  0
    0.0680    2.3570   -4.9233 H   0  0  0  0  0  0  0  0  0  0  0  0
   -1.0813    0.2136   -2.0605 H   0  0  0  0  0  0  0  0  0  0  0  0
   -0.0355    0.2028    0.1296 H   0  0  0  0  0  0  0  0  0  0  0  0
    2.7199    2.5171    1.1166 H   0  0  0  0  0  0  0  0  0  0  0  0
    2.6106   -0.6587   -0.1542 H   0  0  0  0  0  0  0  0  0  0  0  0
    2.6824   -3.0973   -0.2698 H   0  0  0  0  0  0  0  0  0  0  0  0
    1.9935   -4.4710    1.6673 H   0  0  0  0  0  0  0  0  0  0  0  0
    1.2348   -3.3868    3.7525 H   0  0  0  0  0  0  0  0  0  0  0  0
    0.3455    0.4125    6.3604 H   0  0  0  0  0  0  0  0  0  0  0  0
    0.2298    2.8592    6.6794 H   0  0  0  0  0  0  0  0  0  0  0  0
    0.8265    4.3856    4.8276 H   0  0  0  0  0  0  0  0  0  0  0  0
    1.5374    3.5006    2.6639 H   0  0  0  0  0  0  0  0  0  0  0  0
    2.8399    3.1295   -1.2124 H   0  0  0  0  0  0  0  0  0  0  0  0
    1.7789    3.1442   -3.4263 H   0  0  0  0  0  0  0  0  0  0  0  0
  1 29  1  0  0  0  0
  1 30  1  0  0  0  0
  1 31  1  0  0  0  0
  2  1  1  0  0  0  0
  2 32  1  0  0  0  0
  2 33  1  0  0  0  0
  3  2  1  0  0  0  0
  3 34  1  0  0  0  0
  3 35  1  0  0  0  0
  4  3  1  0  0  0  0
  4 36  1  0  0  0  0
  4 37  1  0  0  0  0
  5  4  1  0  0  0  0
  5 38  1  0  0  0  0
  5 39  1  0  0  0  0
  6  5  1  0  0  0  0
  6 40  1  0  0  0  0
  6 41  1  0  0  0  0
  7  6  1  0  0  0  0
  7 42  1  0  0  0  0
  8  7  1  0  0  0  0
  9  8  2  0  0  0  0
  9 43  1  0  0  0  0
 10  9  1  0  0  0  0
 10 44  1  0  0  0  0
 11 10  2  0  0  0  0
 12 11  1  0  0  0  0
 12 45  1  0  0  0  0
 13 12  1  0  0  0  0
 14 13  2  0  0  0  0
 15 14  1  0  0  0  0
 15 46  1  0  0  0  0
 16 15  2  0  0  0  0
 16 47  1  0  0  0  0
 17 16  1  0  0  0  0
 17 48  1  0  0  0  0
 18 17  2  0  0  0  0
 18 49  1  0  0  0  0
 19 18  1  0  0  0  0
 19 14  1  0  0  0  0
 20 19  2  0  0  0  0
 21 20  1  0  0  0  0
 22 21  2  0  0  0  0
 22 50  1  0  0  0  0
 23 22  1  0  0  0  0
 23 51  1  0  0  0  0
 24 23  2  0  0  0  0
 24 52  1  0  0  0  0
 25 24  1  0  0  0  0
 25 53  1  0  0  0  0
 26 25  2  0  0  0  0
 26 13  1  0  0  0  0
 26 21  1  0  0  0  0
 27 11  1  0  0  0  0
 27 54  1  0  0  0  0
 28 27  2  0  0  0  0
 28  8  1  0  0  0  0
 28 55  1  0  0  0  0
M  END
>  <MOL Chiral Flag>
0

>  <energy>
84.779935815640684

$$$$
> 676_AKC_0035-9203(93)90499-g
>657.sdf
 OpenBabel10062216213D

 90 89  0  0  0  0  0  0  0  0999 V2000
   -9.6618   -8.7298   10.1677 C   0  0  0  0  0  0  0  0  0  0  0  0
   -9.2085   -7.2999   10.4568 C   0  0  0  0  0  0  0  0  0  0  0  0
   -8.8832   -6.4843    9.1949 C   0  0  0  0  0  0  0  0  0  0  0  0
   -7.7583   -7.1048    8.3537 C   0  0  0  0  0  0  0  0  0  0  0  0
   -7.3231   -6.1613    7.2291 C   0  0  0  0  0  0  0  0  0  0  0  0
   -6.2328   -6.8095    6.3641 C   0  0  0  0  0  0  0  0  0  0  0  0
   -5.6424   -5.7893    5.3910 C   0  0  0  0  0  0  0  0  0  0  0  0
   -4.5072   -6.3899    4.5393 C   0  0  0  0  0  0  0  0  0  0  0  0
   -3.7621   -5.2594    3.8271 C   0  0  0  0  0  0  0  0  0  0  0  0
   -2.4940   -5.7221    3.0649 C   0  0  0  0  0  0  0  0  0  0  0  0
   -1.6179   -4.5198    2.6232 C   0  0  0  0  0  0  0  0  0  0  0  0
   -0.9629   -3.8433    3.8461 C   0  0  0  0  0  0  0  0  0  0  0  0
   -0.3925   -2.4427    3.6247 C   0  0  0  0  0  0  0  0  0  0  0  0
    1.0344   -2.3582    3.0592 C   0  0  0  0  0  0  0  0  0  0  0  0
    1.5387   -0.9141    3.2716 C   0  0  0  0  0  0  0  0  0  0  0  0
    3.0727   -0.7559    3.3369 C   0  0  0  0  0  0  0  0  0  0  0  0
    3.9545   -0.7906    1.7183 S   0  0  0  0  0  0  0  0  0  0  0  0
    3.2951    0.8244    1.1472 C   0  0  0  0  0  0  0  0  0  0  0  0
    4.3092    1.9887    0.9443 C   0  0  2  0  0  0  0  0  0  0  0  0
    3.4417    3.2743    1.0284 C   0  0  0  0  0  0  0  0  0  0  0  0
    4.1577    4.4822    0.9152 O   0  0  0  0  0  0  0  0  0  0  0  0
    3.3274    5.5435    1.3766 C   0  0  0  0  0  0  0  0  0  0  0  0
    5.0595    1.8221   -0.4119 C   0  0  0  0  0  0  0  0  0  0  0  0
    6.0437    2.8279   -0.6153 O   0  0  0  0  0  0  0  0  0  0  0  0
    6.1106    3.4044   -2.2961 P   0  0  1  0  0  0  0  0  0  0  0  0
    4.9099    2.8529   -3.1145 O   0  0  0  0  0  0  0  0  0  0  0  0
    5.8821    5.1263   -2.2761 O   0  5  0  0  0  0  0  0  0  0  0  0
    7.5763    3.0217   -3.2220 O   0  0  0  0  0  0  0  0  0  0  0  0
    7.5817    3.7791   -4.4345 C   0  0  0  0  0  0  0  0  0  0  0  0
    8.7560    4.7947   -4.4728 C   0  0  0  0  0  0  0  0  0  0  0  0
   10.0367    4.3411   -5.1010 N   0  3  0  0  0  0  0  0  0  0  0  0
   10.4214    2.9606   -4.7140 C   0  0  0  0  0  0  0  0  0  0  0  0
   11.1198    5.2621   -4.6775 C   0  0  0  0  0  0  0  0  0  0  0  0
    9.9359    4.4130   -6.5834 C   0  0  0  0  0  0  0  0  0  0  0  0
  -10.5602   -8.7285    9.5160 H   0  0  0  0  0  0  0  0  0  0  0  0
   -9.9116   -9.2342   11.1248 H   0  0  0  0  0  0  0  0  0  0  0  0
   -8.8513   -9.3123    9.6828 H   0  0  0  0  0  0  0  0  0  0  0  0
  -10.0210   -6.7768   11.0062 H   0  0  0  0  0  0  0  0  0  0  0  0
   -8.3132   -7.3329   11.1152 H   0  0  0  0  0  0  0  0  0  0  0  0
   -8.5701   -5.4724    9.5347 H   0  0  0  0  0  0  0  0  0  0  0  0
   -9.7937   -6.3720    8.5661 H   0  0  0  0  0  0  0  0  0  0  0  0
   -8.1039   -8.0650    7.9164 H   0  0  0  0  0  0  0  0  0  0  0  0
   -6.8772   -7.2976    9.0053 H   0  0  0  0  0  0  0  0  0  0  0  0
   -8.1877   -5.8894    6.5846 H   0  0  0  0  0  0  0  0  0  0  0  0
   -6.9262   -5.2336    7.7001 H   0  0  0  0  0  0  0  0  0  0  0  0
   -5.4105   -7.1648    7.0246 H   0  0  0  0  0  0  0  0  0  0  0  0
   -6.6534   -7.6785    5.8139 H   0  0  0  0  0  0  0  0  0  0  0  0
   -5.2296   -4.9647    6.0165 H   0  0  0  0  0  0  0  0  0  0  0  0
   -6.4268   -5.3638    4.7278 H   0  0  0  0  0  0  0  0  0  0  0  0
   -3.7830   -6.8927    5.2181 H   0  0  0  0  0  0  0  0  0  0  0  0
   -4.9038   -7.1370    3.8190 H   0  0  0  0  0  0  0  0  0  0  0  0
   -3.4978   -4.5727    4.6420 H   0  0  0  0  0  0  0  0  0  0  0  0
   -4.4366   -4.7082    3.1364 H   0  0  0  0  0  0  0  0  0  0  0  0
   -2.8268   -6.2991    2.1749 H   0  0  0  0  0  0  0  0  0  0  0  0
   -1.8725   -6.3932    3.6975 H   0  0  0  0  0  0  0  0  0  0  0  0
   -2.2699   -3.8041    2.0771 H   0  0  0  0  0  0  0  0  0  0  0  0
   -0.8129   -4.8549    1.9340 H   0  0  0  0  0  0  0  0  0  0  0  0
   -0.2187   -4.5163    4.3275 H   0  0  0  0  0  0  0  0  0  0  0  0
   -1.7305   -3.6515    4.6046 H   0  0  0  0  0  0  0  0  0  0  0  0
   -1.1129   -1.8013    3.0704 H   0  0  0  0  0  0  0  0  0  0  0  0
   -0.3234   -2.0347    4.6594 H   0  0  0  0  0  0  0  0  0  0  0  0
    1.6598   -3.0359    3.6762 H   0  0  0  0  0  0  0  0  0  0  0  0
    1.1013   -2.6761    1.9954 H   0  0  0  0  0  0  0  0  0  0  0  0
    1.0354   -0.2267    2.5574 H   0  0  0  0  0  0  0  0  0  0  0  0
    1.2182   -0.5854    4.2834 H   0  0  0  0  0  0  0  0  0  0  0  0
    3.3081    0.2213    3.8157 H   0  0  0  0  0  0  0  0  0  0  0  0
    3.4941   -1.5083    4.0367 H   0  0  0  0  0  0  0  0  0  0  0  0
    2.6655    0.6675    0.2487 H   0  0  0  0  0  0  0  0  0  0  0  0
    2.5787    1.1527    1.9171 H   0  0  0  0  0  0  0  0  0  0  0  0
    5.0342    2.0109    1.7900 H   0  0  0  0  0  0  0  0  0  0  0  0
    2.9620    3.2429    2.0413 H   0  0  0  0  0  0  0  0  0  0  0  0
    2.6557    3.2338    0.2410 H   0  0  0  0  0  0  0  0  0  0  0  0
    3.4439    6.4219    0.7134 H   0  0  0  0  0  0  0  0  0  0  0  0
    2.2292    5.3178    1.3666 H   0  0  0  0  0  0  0  0  0  0  0  0
    3.6063    5.8157    2.4170 H   0  0  0  0  0  0  0  0  0  0  0  0
    4.2711    1.8050   -1.1873 H   0  0  0  0  0  0  0  0  0  0  0  0
    5.5766    0.8393   -0.4240 H   0  0  0  0  0  0  0  0  0  0  0  0
    6.6536    4.3784   -4.5593 H   0  0  0  0  0  0  0  0  0  0  0  0
    7.5687    3.1161   -5.3248 H   0  0  0  0  0  0  0  0  0  0  0  0
    8.9021    5.1586   -3.4298 H   0  0  0  0  0  0  0  0  0  0  0  0
    8.4014    5.6915   -5.0347 H   0  0  0  0  0  0  0  0  0  0  0  0
    9.6989    2.2139   -5.1065 H   0  0  0  0  0  0  0  0  0  0  0  0
   11.4134    2.6913   -5.1441 H   0  0  0  0  0  0  0  0  0  0  0  0
   10.4813    2.8588   -3.6104 H   0  0  0  0  0  0  0  0  0  0  0  0
   10.8749    6.3173   -4.9393 H   0  0  0  0  0  0  0  0  0  0  0  0
   11.2766    5.2125   -3.5764 H   0  0  0  0  0  0  0  0  0  0  0  0
   12.0889    5.0099   -5.1644 H   0  0  0  0  0  0  0  0  0  0  0  0
    9.1365    3.7485   -6.9728 H   0  0  0  0  0  0  0  0  0  0  0  0
   10.8927    4.1204   -7.0722 H   0  0  0  0  0  0  0  0  0  0  0  0
    9.7089    5.4518   -6.9199 H   0  0  0  0  0  0  0  0  0  0  0  0
  1 35  1  0  0  0  0
  1 36  1  0  0  0  0
  1 37  1  0  0  0  0
  2  1  1  0  0  0  0
  2 38  1  0  0  0  0
  2 39  1  0  0  0  0
  3  2  1  0  0  0  0
  3 40  1  0  0  0  0
  3 41  1  0  0  0  0
  4  3  1  0  0  0  0
  4 42  1  0  0  0  0
  4 43  1  0  0  0  0
  5  4  1  0  0  0  0
  5 44  1  0  0  0  0
  5 45  1  0  0  0  0
  6  5  1  0  0  0  0
  6 46  1  0  0  0  0
  6 47  1  0  0  0  0
  7  6  1  0  0  0  0
  7 48  1  0  0  0  0
  7 49  1  0  0  0  0
  8  7  1  0  0  0  0
  8 50  1  0  0  0  0
  8 51  1  0  0  0  0
  9  8  1  0  0  0  0
  9 52  1  0  0  0  0
  9 53  1  0  0  0  0
 10  9  1  0  0  0  0
 10 54  1  0  0  0  0
 10 55  1  0  0  0  0
 11 10  1  0  0  0  0
 11 56  1  0  0  0  0
 11 57  1  0  0  0  0
 12 11  1  0  0  0  0
 12 58  1  0  0  0  0
 12 59  1  0  0  0  0
 13 12  1  0  0  0  0
 13 60  1  0  0  0  0
 13 61  1  0  0  0  0
 14 13  1  0  0  0  0
 14 62  1  0  0  0  0
 14 63  1  0  0  0  0
 15 14  1  0  0  0  0
 15 64  1  0  0  0  0
 15 65  1  0  0  0  0
 16 15  1  0  0  0  0
 16 66  1  0  0  0  0
 16 67  1  0  0  0  0
 17 16  1  0  0  0  0
 18 17  1  0  0  0  0
 18 68  1  0  0  0  0
 18 69  1  0  0  0  0
 19 18  1  0  0  0  0
 19 70  1  1  0  0  0
 20 19  1  0  0  0  0
 20 71  1  0  0  0  0
 20 72  1  0  0  0  0
 21 20  1  0  0  0  0
 22 21  1  0  0  0  0
 22 73  1  0  0  0  0
 22 74  1  0  0  0  0
 22 75  1  0  0  0  0
 23 19  1  0  0  0  0
 23 76  1  0  0  0  0
 23 77  1  0  0  0  0
 24 23  1  0  0  0  0
 25 24  1  1  0  0  0
 26 25  2  0  0  0  0
 27 25  1  0  0  0  0
 28 25  1  0  0  0  0
 29 28  1  0  0  0  0
 29 78  1  0  0  0  0
 29 79  1  0  0  0  0
 30 29  1  0  0  0  0
 30 80  1  0  0  0  0
 30 81  1  0  0  0  0
 31 30  1  0  0  0  0
 32 31  1  0  0  0  0
 32 82  1  0  0  0  0
 32 83  1  0  0  0  0
 32 84  1  0  0  0  0
 33 31  1  0  0  0  0
 33 85  1  0  0  0  0
 33 86  1  0  0  0  0
 33 87  1  0  0  0  0
 34 31  1  0  0  0  0
 34 88  1  0  0  0  0
 34 89  1  0  0  0  0
 34 90  1  0  0  0  0
M  CHG  2  27  -1  31   1
M  END
>  <MOL Chiral Flag>
0

>  <energy>
-103.79570289020018

$$$$
> 677_AKC_jac/30.6.827
>658.sdf
 OpenBabel10062216223D

 50 52  0  0  0  0  0  0  0  0999 V2000
   -4.6558   -1.4428   -1.1065 C   0  0  0  0  0  0  0  0  0  0  0  0
   -4.0436   -0.0320   -0.9288 C   0  0  0  0  0  0  0  0  0  0  0  0
   -5.0265    0.8164   -0.0913 C   0  0  0  0  0  0  0  0  0  0  0  0
   -3.9318    0.5889   -2.3437 C   0  0  0  0  0  0  0  0  0  0  0  0
   -2.6015   -0.1127   -0.2776 C   0  0  2  0  0  0  0  0  0  0  0  0
   -2.5130   -1.0136    0.9854 C   0  0  0  0  0  0  0  0  0  0  0  0
   -1.0483   -1.2031    1.4128 C   0  0  0  0  0  0  0  0  0  0  0  0
   -0.3783    0.1637    1.6836 C   0  0  2  0  0  0  0  0  0  0  0  0
   -0.5745    1.2105    0.5571 C   0  0  0  0  0  0  0  0  0  0  0  0
   -2.0350    1.2881    0.1079 C   0  0  0  0  0  0  0  0  0  0  0  0
    1.0863    0.0763    2.2099 C   0  0  0  0  0  0  0  0  0  0  0  0
    2.4302   -0.0409    1.4357 C   0  0  0  0  0  0  0  0  0  0  0  0
    2.6351   -0.2706    0.0870 C   0  0  0  0  0  0  0  0  0  0  0  0
    4.0058   -0.1810   -0.5188 C   0  0  0  0  0  0  0  0  0  0  0  0
    4.1608   -0.3064   -1.9158 C   0  0  0  0  0  0  0  0  0  0  0  0
    5.4208   -0.1914   -2.5053 C   0  0  0  0  0  0  0  0  0  0  0  0
    6.5446    0.0407   -1.7147 C   0  0  0  0  0  0  0  0  0  0  0  0
    6.4122    0.1621   -0.3309 C   0  0  0  0  0  0  0  0  0  0  0  0
    5.1452    0.0590    0.2726 C   0  0  0  0  0  0  0  0  0  0  0  0
    4.9883    0.2127    1.7228 C   0  0  0  0  0  0  0  0  0  0  0  0
    5.9615    0.3888    2.4426 O   0  0  0  0  0  0  0  0  0  0  0  0
    3.6377    0.1846    2.3018 C   0  0  0  0  0  0  0  0  0  0  0  0
    3.5074    0.3466    3.5072 O   0  0  0  0  0  0  0  0  0  0  0  0
    1.6451   -0.5824   -0.7712 O   0  0  0  0  0  0  0  0  0  0  0  0
   -3.9755   -2.1011   -1.6881 H   0  0  0  0  0  0  0  0  0  0  0  0
   -5.6277   -1.3851   -1.6432 H   0  0  0  0  0  0  0  0  0  0  0  0
   -4.8746   -1.9200   -0.1290 H   0  0  0  0  0  0  0  0  0  0  0  0
   -6.0289    0.8375   -0.5714 H   0  0  0  0  0  0  0  0  0  0  0  0
   -4.6875    1.8709   -0.0179 H   0  0  0  0  0  0  0  0  0  0  0  0
   -5.1398    0.4038    0.9322 H   0  0  0  0  0  0  0  0  0  0  0  0
   -3.2540   -0.0197   -2.9825 H   0  0  0  0  0  0  0  0  0  0  0  0
   -3.5464    1.6265   -2.3219 H   0  0  0  0  0  0  0  0  0  0  0  0
   -4.9250    0.6203   -2.8415 H   0  0  0  0  0  0  0  0  0  0  0  0
   -1.9418   -0.5810   -1.0440 H   0  0  0  0  0  0  0  0  0  0  0  0
   -3.1025   -0.5628    1.8138 H   0  0  0  0  0  0  0  0  0  0  0  0
   -2.9054   -2.0317    0.7945 H   0  0  0  0  0  0  0  0  0  0  0  0
   -0.5493   -1.8154    0.6495 H   0  0  0  0  0  0  0  0  0  0  0  0
   -1.0235   -1.8134    2.3425 H   0  0  0  0  0  0  0  0  0  0  0  0
   -0.9704    0.5518    2.5467 H   0  0  0  0  0  0  0  0  0  0  0  0
   -0.2426    2.2106    0.9115 H   0  0  0  0  0  0  0  0  0  0  0  0
    0.0103    1.0114   -0.3452 H   0  0  0  0  0  0  0  0  0  0  0  0
   -2.0777    2.0006   -0.7396 H   0  0  0  0  0  0  0  0  0  0  0  0
   -2.6328    1.7110    0.9436 H   0  0  0  0  0  0  0  0  0  0  0  0
    1.1978    1.0678    2.7044 H   0  0  0  0  0  0  0  0  0  0  0  0
    1.0978   -0.6810    3.0246 H   0  0  0  0  0  0  0  0  0  0  0  0
    3.3050   -0.4782   -2.5561 H   0  0  0  0  0  0  0  0  0  0  0  0
    5.5239   -0.2776   -3.5794 H   0  0  0  0  0  0  0  0  0  0  0  0
    7.5194    0.1323   -2.1757 H   0  0  0  0  0  0  0  0  0  0  0  0
    7.2950    0.3482    0.2677 H   0  0  0  0  0  0  0  0  0  0  0  0
    0.7833   -0.8867   -0.5172 H   0  0  0  0  0  0  0  0  0  0  0  0
  1 25  1  0  0  0  0
  1 26  1  0  0  0  0
  1 27  1  0  0  0  0
  2  1  1  0  0  0  0
  3  2  1  0  0  0  0
  3 28  1  0  0  0  0
  3 29  1  0  0  0  0
  3 30  1  0  0  0  0
  4  2  1  0  0  0  0
  4 31  1  0  0  0  0
  4 32  1  0  0  0  0
  4 33  1  0  0  0  0
  5  2  1  0  0  0  0
  5 34  1  6  0  0  0
  6  5  1  0  0  0  0
  6 35  1  0  0  0  0
  6 36  1  0  0  0  0
  7  6  1  0  0  0  0
  7 37  1  0  0  0  0
  7 38  1  0  0  0  0
  8  7  1  0  0  0  0
  8 39  1  1  0  0  0
  9  8  1  0  0  0  0
  9 40  1  0  0  0  0
  9 41  1  0  0  0  0
 10  9  1  0  0  0  0
 10  5  1  0  0  0  0
 10 42  1  0  0  0  0
 10 43  1  0  0  0  0
 11  8  1  0  0  0  0
 11 44  1  0  0  0  0
 11 45  1  0  0  0  0
 12 11  1  0  0  0  0
 13 12  2  0  0  0  0
 14 13  1  0  0  0  0
 15 14  2  0  0  0  0
 15 46  1  0  0  0  0
 16 15  1  0  0  0  0
 16 47  1  0  0  0  0
 17 16  2  0  0  0  0
 17 48  1  0  0  0  0
 18 17  1  0  0  0  0
 18 49  1  0  0  0  0
 19 18  2  0  0  0  0
 19 14  1  0  0  0  0
 20 19  1  0  0  0  0
 21 20  2  0  0  0  0
 22 20  1  0  0  0  0
 22 12  1  0  0  0  0
 23 22  2  0  0  0  0
 24 13  1  0  0  0  0
 24 50  1  0  0  0  0
M  END
>  <MOL Chiral Flag>
0

>  <energy>
108.3929205572106

$$$$
> 678_AKC_1306154
>659.sdf
 OpenBabel10062216223D

 46 49  0  0  0  0  0  0  0  0999 V2000
    0.6551   -4.6693   -4.8099 C   0  0  0  0  0  0  0  0  0  0  0  0
    0.9869   -5.3503   -5.9855 C   0  0  0  0  0  0  0  0  0  0  0  0
    1.6808   -6.5733   -5.9313 C   0  0  0  0  0  0  0  0  0  0  0  0
    2.0357   -7.0996   -4.6743 C   0  0  0  0  0  0  0  0  0  0  0  0
    1.7002   -6.4187   -3.5001 C   0  0  0  0  0  0  0  0  0  0  0  0
    1.0090   -5.1982   -3.5588 C   0  0  0  0  0  0  0  0  0  0  0  0
    0.6375   -4.4753   -2.2899 C   0  0  0  0  0  0  0  0  0  0  0  0
    2.1307   -4.0674   -1.3099 S   0  0  0  0  0  0  0  0  0  0  0  0
    1.8927   -2.2880   -1.2967 C   0  0  0  0  0  0  0  0  0  0  0  0
    2.5298   -1.4972   -2.2117 N   0  0  0  0  0  0  0  0  0  0  0  0
    2.3670   -0.1324   -2.2072 C   0  0  0  0  0  0  0  0  0  0  0  0
    1.5619    0.4672   -1.2771 N   0  0  0  0  0  0  0  0  0  0  0  0
    0.9364   -0.3223   -0.3729 C   0  0  0  0  0  0  0  0  0  0  0  0
    1.0769   -1.6653   -0.3626 C   0  0  0  0  0  0  0  0  0  0  0  0
    0.3332   -2.1958    0.6268 N   0  0  0  0  0  0  0  0  0  0  0  0
   -0.2644   -1.1165    1.2038 C   0  0  0  0  0  0  0  0  0  0  0  0
    0.0978    0.0474    0.6057 N   0  0  0  0  0  0  0  0  0  0  0  0
   -0.3602    1.3935    0.9627 C   0  0  1  0  0  0  0  0  0  0  0  0
    0.7735    2.2750    1.4859 C   0  0  1  0  0  0  0  0  0  0  0  0
    0.1376    3.6310    1.3065 C   0  0  1  0  0  0  0  0  0  0  0  0
   -0.4891    3.4185   -0.0823 C   0  0  2  0  0  0  0  0  0  0  0  0
   -0.9139    2.0606   -0.1597 O   0  0  0  0  0  0  0  0  0  0  0  0
    0.5020    3.7259   -1.2229 C   0  0  0  0  0  0  0  0  0  0  0  0
   -0.1158    3.5461   -2.4681 O   0  0  0  0  0  0  0  0  0  0  0  0
   -0.8808    3.8053    2.2631 O   0  0  0  0  0  0  0  0  0  0  0  0
    1.1827    1.9881    2.8009 O   0  0  0  0  0  0  0  0  0  0  0  0
    2.0154   -7.2686   -7.1335 N   0  3  0  0  0  0  0  0  0  0  0  0
    2.6044   -8.3069   -7.0881 O   0  0  0  0  0  0  0  0  0  0  0  0
    1.6722   -6.7758   -8.3049 O   0  5  0  0  0  0  0  0  0  0  0  0
    0.1178   -3.7315   -4.8761 H   0  0  0  0  0  0  0  0  0  0  0  0
    0.6996   -4.9230   -6.9376 H   0  0  0  0  0  0  0  0  0  0  0  0
    2.5694   -8.0388   -4.6019 H   0  0  0  0  0  0  0  0  0  0  0  0
    1.9777   -6.8429   -2.5431 H   0  0  0  0  0  0  0  0  0  0  0  0
   -0.0250   -5.1150   -1.6701 H   0  0  0  0  0  0  0  0  0  0  0  0
    0.0585   -3.5556   -2.5226 H   0  0  0  0  0  0  0  0  0  0  0  0
    2.8781    0.4721   -2.9437 H   0  0  0  0  0  0  0  0  0  0  0  0
   -0.9445   -1.1832    2.0433 H   0  0  0  0  0  0  0  0  0  0  0  0
   -1.1576    1.3233    1.7388 H   0  0  0  0  0  0  0  0  0  0  0  0
    1.6559    2.1931    0.8181 H   0  0  0  0  0  0  0  0  0  0  0  0
    0.8543    4.4804    1.3858 H   0  0  0  0  0  0  0  0  0  0  0  0
   -1.3511    4.1098   -0.2100 H   0  0  0  0  0  0  0  0  0  0  0  0
    0.8252    4.7862   -1.1485 H   0  0  0  0  0  0  0  0  0  0  0  0
    1.4307    3.1192   -1.1695 H   0  0  0  0  0  0  0  0  0  0  0  0
   -0.0405    2.5807   -2.6875 H   0  0  0  0  0  0  0  0  0  0  0  0
   -1.2491    4.7169    2.1239 H   0  0  0  0  0  0  0  0  0  0  0  0
    0.3759    1.9456    3.3771 H   0  0  0  0  0  0  0  0  0  0  0  0
  1 30  1  0  0  0  0
  2  1  2  0  0  0  0
  2 31  1  0  0  0  0
  3  2  1  0  0  0  0
  4  3  2  0  0  0  0
  4 32  1  0  0  0  0
  5  4  1  0  0  0  0
  5 33  1  0  0  0  0
  6  5  2  0  0  0  0
  6  1  1  0  0  0  0
  7  6  1  0  0  0  0
  7 34  1  0  0  0  0
  7 35  1  0  0  0  0
  8  7  1  0  0  0  0
  9  8  1  0  0  0  0
 10  9  2  0  0  0  0
 11 10  1  0  0  0  0
 11 36  1  0  0  0  0
 12 11  2  0  0  0  0
 13 12  1  0  0  0  0
 14 13  2  0  0  0  0
 14  9  1  0  0  0  0
 15 14  1  0  0  0  0
 16 15  2  0  0  0  0
 16 37  1  0  0  0  0
 17 16  1  0  0  0  0
 17 13  1  0  0  0  0
 18 17  1  0  0  0  0
 18 38  1  1  0  0  0
 19 18  1  0  0  0  0
 19 39  1  6  0  0  0
 20 19  1  0  0  0  0
 20 40  1  1  0  0  0
 21 20  1  0  0  0  0
 21 41  1  6  0  0  0
 22 21  1  0  0  0  0
 22 18  1  0  0  0  0
 23 21  1  0  0  0  0
 23 42  1  0  0  0  0
 23 43  1  0  0  0  0
 24 23  1  0  0  0  0
 24 44  1  0  0  0  0
 25 20  1  0  0  0  0
 25 45  1  0  0  0  0
 26 19  1  0  0  0  0
 26 46  1  0  0  0  0
 27  3  1  0  0  0  0
 28 27  2  0  0  0  0
 29 27  1  0  0  0  0
M  CHG  2  27   1  29  -1
M  END
>  <MOL Chiral Flag>
0

>  <energy>
155.75669664798522

$$$$
> 679_AKC_3283487
>660.sdf
 OpenBabel10062216233D

 69 73  0  0  0  0  0  0  0  0999 V2000
   -2.3850   -6.2415    1.7909 C   0  0  0  0  0  0  0  0  0  0  0  0
   -1.6142   -5.2627    1.1978 O   0  0  0  0  0  0  0  0  0  0  0  0
   -0.8092   -5.4277    0.1107 C   0  0  0  0  0  0  0  0  0  0  0  0
   -0.6547   -6.6914   -0.4936 C   0  0  0  0  0  0  0  0  0  0  0  0
    0.1633   -6.8449   -1.6077 C   0  0  0  0  0  0  0  0  0  0  0  0
    0.8360   -5.7495   -2.1395 C   0  0  0  0  0  0  0  0  0  0  0  0
    0.6986   -4.4747   -1.5605 C   0  0  0  0  0  0  0  0  0  0  0  0
   -0.1202   -4.3050   -0.4307 C   0  0  0  0  0  0  0  0  0  0  0  0
   -0.2658   -2.9471    0.1684 C   0  0  0  0  0  0  0  0  0  0  0  0
   -0.9916   -2.8220    1.1376 O   0  0  0  0  0  0  0  0  0  0  0  0
    0.4082   -1.7420   -0.4452 C   0  0  0  0  0  0  0  0  0  0  0  0
    0.2379   -0.4147    0.0712 C   0  0  0  0  0  0  0  0  0  0  0  0
   -0.4497   -0.1638    1.2064 O   0  0  0  0  0  0  0  0  0  0  0  0
    0.8107    0.6905   -0.6022 C   0  0  0  0  0  0  0  0  0  0  0  0
    1.6339    0.4805   -1.7248 C   0  0  0  0  0  0  0  0  0  0  0  0
    2.2511    1.7238   -2.3425 C   0  0  0  0  0  0  0  0  0  0  0  0
    2.9274    2.6342   -1.2579 C   0  0  2  0  0  0  0  0  0  0  0  0
    4.2132    2.1610   -0.9332 O   0  0  0  0  0  0  0  0  0  0  0  0
    2.0685    2.6903    0.0696 C   0  0  0  0  0  0  0  0  0  0  0  0
    0.6413    2.1584   -0.1408 C   0  0  2  0  0  0  0  0  0  0  0  0
   -0.1182    2.3284    1.0498 O   0  0  0  0  0  0  0  0  0  0  0  0
   -1.5120    2.4249    0.7563 C   0  0  1  0  0  0  0  0  0  0  0  0
   -2.3595    2.1575    2.0174 C   0  0  0  0  0  0  0  0  0  0  0  0
   -2.1794    3.2998    3.0246 C   0  0  2  0  0  0  0  0  0  0  0  0
   -3.0049    3.0821    4.2189 N   0  3  0  0  0  0  0  0  0  0  0  0
   -2.5267    4.6273    2.3217 C   0  0  2  0  0  0  0  0  0  0  0  0
   -3.8808    4.6443    1.9353 O   0  0  0  0  0  0  0  0  0  0  0  0
   -1.6306    4.7578    1.0678 C   0  0  2  0  0  0  0  0  0  0  0  0
   -1.9209    6.0643    0.3274 C   0  0  0  0  0  0  0  0  0  0  0  0
   -1.8485    3.6780    0.1712 O   0  0  0  0  0  0  0  0  0  0  0  0
    3.1049    4.0173   -1.8867 C   0  0  0  0  0  0  0  0  0  0  0  0
    2.5360    4.9920   -1.4164 O   0  0  0  0  0  0  0  0  0  0  0  0
    3.9873    4.2120   -3.0953 C   0  0  0  0  0  0  0  0  0  0  0  0
    5.0271    5.1027   -2.7945 O   0  0  0  0  0  0  0  0  0  0  0  0
    1.8497   -0.8271   -2.2187 C   0  0  0  0  0  0  0  0  0  0  0  0
    2.6311   -1.0492   -3.3036 O   0  0  0  0  0  0  0  0  0  0  0  0
    1.2193   -1.9341   -1.5946 C   0  0  0  0  0  0  0  0  0  0  0  0
    1.4021   -3.3147   -2.1521 C   0  0  0  0  0  0  0  0  0  0  0  0
    2.1174   -3.4956   -3.1276 O   0  0  0  0  0  0  0  0  0  0  0  0
   -2.9288   -5.7986    2.6507 H   0  0  0  0  0  0  0  0  0  0  0  0
   -1.7432   -7.0654    2.1677 H   0  0  0  0  0  0  0  0  0  0  0  0
   -3.1319   -6.6315    1.0669 H   0  0  0  0  0  0  0  0  0  0  0  0
   -1.1678   -7.5613   -0.1073 H   0  0  0  0  0  0  0  0  0  0  0  0
    0.2728   -7.8195   -2.0656 H   0  0  0  0  0  0  0  0  0  0  0  0
    1.4605   -5.8961   -3.0118 H   0  0  0  0  0  0  0  0  0  0  0  0
   -0.7830   -0.7865    1.8541 H   0  0  0  0  0  0  0  0  0  0  0  0
    1.3913    2.2832   -2.7734 H   0  0  0  0  0  0  0  0  0  0  0  0
    2.9358    1.5630   -3.1895 H   0  0  0  0  0  0  0  0  0  0  0  0
    4.1363    1.1980   -0.7034 H   0  0  0  0  0  0  0  0  0  0  0  0
    2.0920    3.6941    0.5441 H   0  0  0  0  0  0  0  0  0  0  0  0
    2.5206    2.0112    0.8286 H   0  0  0  0  0  0  0  0  0  0  0  0
    0.1960    2.7761   -0.9556 H   0  0  0  0  0  0  0  0  0  0  0  0
   -1.8049    1.6242    0.0388 H   0  0  0  0  0  0  0  0  0  0  0  0
   -2.0861    1.1906    2.4856 H   0  0  0  0  0  0  0  0  0  0  0  0
   -3.4292    2.0959    1.7185 H   0  0  0  0  0  0  0  0  0  0  0  0
   -1.1104    3.3349    3.3386 H   0  0  0  0  0  0  0  0  0  0  0  0
   -2.7048    2.2007    4.6958 H   0  0  0  0  0  0  0  0  0  0  0  0
   -2.8783    3.8766    4.8869 H   0  0  0  0  0  0  0  0  0  0  0  0
   -4.0167    2.9987    3.9677 H   0  0  0  0  0  0  0  0  0  0  0  0
   -2.3108    5.4833    3.0044 H   0  0  0  0  0  0  0  0  0  0  0  0
   -4.3974    5.0267    2.6916 H   0  0  0  0  0  0  0  0  0  0  0  0
   -0.5586    4.7957    1.3702 H   0  0  0  0  0  0  0  0  0  0  0  0
   -2.9733    6.0888   -0.0288 H   0  0  0  0  0  0  0  0  0  0  0  0
   -1.2517    6.1520   -0.5547 H   0  0  0  0  0  0  0  0  0  0  0  0
   -1.7449    6.9348    0.9942 H   0  0  0  0  0  0  0  0  0  0  0  0
    3.3835    4.5875   -3.9528 H   0  0  0  0  0  0  0  0  0  0  0  0
    4.4445    3.2557   -3.4212 H   0  0  0  0  0  0  0  0  0  0  0  0
    4.6686    6.0194   -2.9250 H   0  0  0  0  0  0  0  0  0  0  0  0
    3.0930   -0.3783   -3.8151 H   0  0  0  0  0  0  0  0  0  0  0  0
  1 40  1  0  0  0  0
  1 41  1  0  0  0  0
  1 42  1  0  0  0  0
  2  1  1  0  0  0  0
  3  2  1  0  0  0  0
  4  3  2  0  0  0  0
  4 43  1  0  0  0  0
  5  4  1  0  0  0  0
  5 44  1  0  0  0  0
  6  5  2  0  0  0  0
  6 45  1  0  0  0  0
  7  6  1  0  0  0  0
  8  7  2  0  0  0  0
  8  3  1  0  0  0  0
  9  8  1  0  0  0  0
 10  9  2  0  0  0  0
 11  9  1  0  0  0  0
 12 11  2  0  0  0  0
 13 12  1  0  0  0  0
 13 46  1  0  0  0  0
 14 12  1  0  0  0  0
 15 14  2  0  0  0  0
 16 15  1  0  0  0  0
 16 47  1  0  0  0  0
 16 48  1  0  0  0  0
 17 16  1  0  0  0  0
 17 18  1  1  0  0  0
 18 49  1  0  0  0  0
 19 17  1  0  0  0  0
 19 50  1  0  0  0  0
 19 51  1  0  0  0  0
 20 19  1  0  0  0  0
 20 14  1  0  0  0  0
 20 52  1  6  0  0  0
 21 20  1  0  0  0  0
 22 21  1  0  0  0  0
 22 53  1  6  0  0  0
 23 22  1  0  0  0  0
 23 54  1  0  0  0  0
 23 55  1  0  0  0  0
 24 23  1  0  0  0  0
 24 56  1  1  0  0  0
 25 24  1  0  0  0  0
 25 57  1  0  0  0  0
 25 58  1  0  0  0  0
 25 59  1  0  0  0  0
 26 24  1  0  0  0  0
 26 60  1  1  0  0  0
 27 26  1  0  0  0  0
 27 61  1  0  0  0  0
 28 26  1  0  0  0  0
 28 62  1  1  0  0  0
 29 28  1  0  0  0  0
 29 63  1  0  0  0  0
 29 64  1  0  0  0  0
 29 65  1  0  0  0  0
 30 28  1  0  0  0  0
 30 22  1  0  0  0  0
 31 17  1  0  0  0  0
 32 31  2  0  0  0  0
 33 31  1  0  0  0  0
 33 66  1  0  0  0  0
 33 67  1  0  0  0  0
 34 33  1  0  0  0  0
 34 68  1  0  0  0  0
 35 15  1  0  0  0  0
 36 35  1  0  0  0  0
 36 69  1  0  0  0  0
 37 35  2  0  0  0  0
 37 11  1  0  0  0  0
 38 37  1  0  0  0  0
 38  7  1  0  0  0  0
 39 38  2  0  0  0  0
M  CHG  1  25   1
M  END
>  <MOL Chiral Flag>
0

>  <energy>
187.83282177334644

$$$$
> 680_AKC_s-2006-960086
>661.sdf
 OpenBabel10062216243D

 81 85  0  0  0  0  0  0  0  0999 V2000
    5.6967    1.1834    1.9815 C   0  0  0  0  0  0  0  0  0  0  0  0
    5.3149    0.7532    0.5419 C   0  0  0  0  0  0  0  0  0  0  0  0
    6.1315    1.6320   -0.4314 C   0  0  0  0  0  0  0  0  0  0  0  0
    5.6531   -0.7361    0.2718 C   0  0  0  0  0  0  0  0  0  0  0  0
    4.8012   -1.6792    1.1344 C   0  0  0  0  0  0  0  0  0  0  0  0
    3.2615   -1.4948    0.9500 C   0  0  2  0  0  0  0  0  0  0  0  0
    2.7943   -1.9860   -0.4631 C   0  0  0  0  0  0  0  0  0  0  0  0
    1.2580   -1.8517   -0.6427 C   0  0  0  0  0  0  0  0  0  0  0  0
    0.6847   -0.4033   -0.4338 C   0  0  2  0  0  0  0  0  0  0  0  0
    1.0790    0.4027   -1.7191 C   0  0  0  0  0  0  0  0  0  0  0  0
    1.3886    0.2598    0.7883 C   0  0  0  0  0  0  0  0  0  0  0  0
    0.7174    1.0829    1.6294 C   0  0  0  0  0  0  0  0  0  0  0  0
   -0.7271    1.4779    1.4858 C   0  0  0  0  0  0  0  0  0  0  0  0
   -1.4044    1.0254    0.1670 C   0  0  2  0  0  0  0  0  0  0  0  0
   -2.9739    1.3659    0.0920 C   0  0  1  0  0  0  0  0  0  0  0  0
   -3.7746    0.7941    1.3119 C   0  0  0  0  0  0  0  0  0  0  0  0
   -3.1495    2.9183    0.1211 C   0  0  0  0  0  0  0  0  0  0  0  0
   -4.5832    3.3781   -0.2109 C   0  0  0  0  0  0  0  0  0  0  0  0
   -5.0004    2.8947   -1.6085 C   0  0  2  0  0  0  0  0  0  0  0  0
   -6.2868    3.3827   -1.8995 O   0  0  0  0  0  0  0  0  0  0  0  0
   -4.9419    1.3348   -1.7743 C   0  0  1  0  0  0  0  0  0  0  0  0
   -6.1049    0.6262   -1.0283 C   0  0  0  0  0  0  0  0  0  0  0  0
   -5.1308    1.0089   -3.2976 C   0  0  0  0  0  0  0  0  0  0  0  0
   -6.3568    1.4864   -3.7942 O   0  0  0  0  0  0  0  0  0  0  0  0
   -3.4927    0.8589   -1.3163 C   0  0  2  0  0  0  0  0  0  0  0  0
   -3.2110   -0.6658   -1.4626 C   0  0  0  0  0  0  0  0  0  0  0  0
   -1.6919   -0.9076   -1.4806 C   0  0  0  0  0  0  0  0  0  0  0  0
   -0.9361   -0.4357   -0.1980 C   0  0  1  0  0  0  0  0  0  0  0  0
   -1.2950   -1.4380    0.9525 C   0  0  0  0  0  0  0  0  0  0  0  0
    2.8813    0.0129    1.0925 C   0  0  2  0  0  0  0  0  0  0  0  0
    3.8037    0.9599    0.2665 C   0  0  0  0  0  0  0  0  0  0  0  0
    2.6287   -2.3071    2.0919 C   0  0  0  0  0  0  0  0  0  0  0  0
    2.8541   -1.9427    3.3706 O   0  0  0  0  0  0  0  0  0  0  0  0
    1.9906   -3.3251    1.8772 O   0  0  0  0  0  0  0  0  0  0  0  0
    6.7856    1.0391    2.1500 H   0  0  0  0  0  0  0  0  0  0  0  0
    5.4627    2.2589    2.1352 H   0  0  0  0  0  0  0  0  0  0  0  0
    5.1657    0.6207    2.7710 H   0  0  0  0  0  0  0  0  0  0  0  0
    7.2221    1.4895   -0.2696 H   0  0  0  0  0  0  0  0  0  0  0  0
    5.8937    2.7078   -0.2842 H   0  0  0  0  0  0  0  0  0  0  0  0
    5.9059    1.3716   -1.4883 H   0  0  0  0  0  0  0  0  0  0  0  0
    5.4765   -0.9751   -0.7986 H   0  0  0  0  0  0  0  0  0  0  0  0
    6.7302   -0.9258    0.4742 H   0  0  0  0  0  0  0  0  0  0  0  0
    5.0825   -1.4939    2.1915 H   0  0  0  0  0  0  0  0  0  0  0  0
    5.0812   -2.7345    0.9219 H   0  0  0  0  0  0  0  0  0  0  0  0
    3.3053   -1.4278   -1.2689 H   0  0  0  0  0  0  0  0  0  0  0  0
    3.0735   -3.0543   -0.5966 H   0  0  0  0  0  0  0  0  0  0  0  0
    0.9495   -2.2519   -1.6326 H   0  0  0  0  0  0  0  0  0  0  0  0
    0.8392   -2.5438    0.0813 H   0  0  0  0  0  0  0  0  0  0  0  0
    2.1354    0.3353   -1.9786 H   0  0  0  0  0  0  0  0  0  0  0  0
    0.6357   -0.0113   -2.6402 H   0  0  0  0  0  0  0  0  0  0  0  0
    0.8446    1.4817   -1.6544 H   0  0  0  0  0  0  0  0  0  0  0  0
    1.2378    1.5007    2.4870 H   0  0  0  0  0  0  0  0  0  0  0  0
   -0.7903    2.5823    1.5585 H   0  0  0  0  0  0  0  0  0  0  0  0
   -1.2144    1.0430    2.3765 H   0  0  0  0  0  0  0  0  0  0  0  0
   -0.9780    1.6546   -0.6329 H   0  0  0  0  0  0  0  0  0  0  0  0
   -4.7723    1.2158    1.4323 H   0  0  0  0  0  0  0  0  0  0  0  0
   -3.9571   -0.2841    1.2911 H   0  0  0  0  0  0  0  0  0  0  0  0
   -3.3176    1.0744    2.2764 H   0  0  0  0  0  0  0  0  0  0  0  0
   -2.4809    3.3817   -0.6385 H   0  0  0  0  0  0  0  0  0  0  0  0
   -2.8644    3.3317    1.1115 H   0  0  0  0  0  0  0  0  0  0  0  0
   -5.3193    3.0482    0.5450 H   0  0  0  0  0  0  0  0  0  0  0  0
   -4.6024    4.4898   -0.1964 H   0  0  0  0  0  0  0  0  0  0  0  0
   -4.2656    3.3293   -2.3304 H   0  0  0  0  0  0  0  0  0  0  0  0
   -6.1802    4.3159   -2.2218 H   0  0  0  0  0  0  0  0  0  0  0  0
   -7.0848    0.9385   -1.4469 H   0  0  0  0  0  0  0  0  0  0  0  0
   -6.0316   -0.4751   -1.1474 H   0  0  0  0  0  0  0  0  0  0  0  0
   -6.1858    0.8548    0.0358 H   0  0  0  0  0  0  0  0  0  0  0  0
   -5.1217   -0.0800   -3.4913 H   0  0  0  0  0  0  0  0  0  0  0  0
   -4.2850    1.4309   -3.8917 H   0  0  0  0  0  0  0  0  0  0  0  0
   -6.1655    2.2995   -4.3310 H   0  0  0  0  0  0  0  0  0  0  0  0
   -2.8350    1.3628   -2.0635 H   0  0  0  0  0  0  0  0  0  0  0  0
   -3.7257   -1.2637   -0.6867 H   0  0  0  0  0  0  0  0  0  0  0  0
   -3.5662   -1.0459   -2.4370 H   0  0  0  0  0  0  0  0  0  0  0  0
   -1.3636   -0.3395   -2.3655 H   0  0  0  0  0  0  0  0  0  0  0  0
   -1.4757   -1.9785   -1.6848 H   0  0  0  0  0  0  0  0  0  0  0  0
   -1.1071   -2.4908    0.6763 H   0  0  0  0  0  0  0  0  0  0  0  0
   -0.7420   -1.2237    1.8885 H   0  0  0  0  0  0  0  0  0  0  0  0
   -2.3520   -1.4812    1.1968 H   0  0  0  0  0  0  0  0  0  0  0  0
    3.0808    0.3110    2.1430 H   0  0  0  0  0  0  0  0  0  0  0  0
    3.6850    0.7858   -0.8032 H   0  0  0  0  0  0  0  0  0  0  0  0
    3.5222    2.0186    0.4611 H   0  0  0  0  0  0  0  0  0  0  0  0
  1 35  1  0  0  0  0
  1 36  1  0  0  0  0
  1 37  1  0  0  0  0
  2  1  1  0  0  0  0
  3  2  1  0  0  0  0
  3 38  1  0  0  0  0
  3 39  1  0  0  0  0
  3 40  1  0  0  0  0
  4  2  1  0  0  0  0
  4 41  1  0  0  0  0
  4 42  1  0  0  0  0
  5  4  1  0  0  0  0
  5 43  1  0  0  0  0
  5 44  1  0  0  0  0
  6  5  1  0  0  0  0
  6 32  1  1  0  0  0
  7  6  1  0  0  0  0
  7 45  1  0  0  0  0
  7 46  1  0  0  0  0
  8  7  1  0  0  0  0
  8 47  1  0  0  0  0
  8 48  1  0  0  0  0
  9  8  1  0  0  0  0
  9 10  1  6  0  0  0
 10 49  1  0  0  0  0
 10 50  1  0  0  0  0
 10 51  1  0  0  0  0
 11  9  1  0  0  0  0
 12 11  2  0  0  0  0
 12 52  1  0  0  0  0
 13 12  1  0  0  0  0
 13 53  1  0  0  0  0
 13 54  1  0  0  0  0
 14 13  1  0  0  0  0
 14 55  1  6  0  0  0
 15 14  1  0  0  0  0
 15 16  1  1  0  0  0
 16 56  1  0  0  0  0
 16 57  1  0  0  0  0
 16 58  1  0  0  0  0
 17 15  1  0  0  0  0
 17 59  1  0  0  0  0
 17 60  1  0  0  0  0
 18 17  1  0  0  0  0
 18 61  1  0  0  0  0
 18 62  1  0  0  0  0
 19 18  1  0  0  0  0
 19 63  1  6  0  0  0
 20 19  1  0  0  0  0
 20 64  1  0  0  0  0
 21 19  1  0  0  0  0
 21 22  1  1  0  0  0
 22 65  1  0  0  0  0
 22 66  1  0  0  0  0
 22 67  1  0  0  0  0
 23 21  1  0  0  0  0
 23 68  1  0  0  0  0
 23 69  1  0  0  0  0
 24 23  1  0  0  0  0
 24 70  1  0  0  0  0
 25 21  1  0  0  0  0
 25 15  1  0  0  0  0
 25 71  1  6  0  0  0
 26 25  1  0  0  0  0
 26 72  1  0  0  0  0
 26 73  1  0  0  0  0
 27 26  1  0  0  0  0
 27 74  1  0  0  0  0
 27 75  1  0  0  0  0
 28 27  1  0  0  0  0
 28  9  1  0  0  0  0
 28 14  1  0  0  0  0
 28 29  1  1  0  0  0
 29 76  1  0  0  0  0
 29 77  1  0  0  0  0
 29 78  1  0  0  0  0
 30 11  1  0  0  0  0
 30  6  1  0  0  0  0
 30 79  1  1  0  0  0
 31 30  1  0  0  0  0
 31  2  1  0  0  0  0
 31 80  1  0  0  0  0
 31 81  1  0  0  0  0
 33 32  1  0  0  0  0
 34 32  2  0  0  0  0
M  END
>  <MOL Chiral Flag>
0

>  <energy>
171.76735856088987

$$$$
> 681_AKC_0006-291X(90)92109-D
>662.sdf
 OpenBabel10062216263D

 18 18  0  0  0  0  0  0  0  0999 V2000
   -1.3639   -0.6600   -0.4392 C   0  0  0  0  0  0  0  0  0  0  0  0
   -0.4800   -0.2774    0.7900 C   0  0  2  0  0  0  0  0  0  0  0  0
   -1.2199    0.6986    1.4335 O   0  0  0  0  0  0  0  0  0  0  0  0
   -2.3457    0.9705    0.8265 N   0  0  0  0  0  0  0  0  0  0  0  0
   -2.5045    0.2633   -0.2120 C   0  0  0  0  0  0  0  0  0  0  0  0
   -3.9211    0.3823   -1.2390 Cl  0  0  0  0  0  0  0  0  0  0  0  0
    0.9419    0.2505    0.4478 C   0  0  1  0  0  0  0  0  0  0  0  0
    1.8104   -0.7927   -0.2286 C   0  0  0  0  0  0  0  0  0  0  0  0
    1.3702   -1.8991   -0.5013 O   0  0  0  0  0  0  0  0  0  0  0  0
    3.0933   -0.5031   -0.5189 O   0  5  0  0  0  0  0  0  0  0  0  0
    0.8932    1.4763   -0.3652 N   0  3  0  0  0  0  0  0  0  0  0  0
   -1.7116   -1.7137   -0.3880 H   0  0  0  0  0  0  0  0  0  0  0  0
   -0.8949   -0.4470   -1.4207 H   0  0  0  0  0  0  0  0  0  0  0  0
   -0.3941   -1.1532    1.4710 H   0  0  0  0  0  0  0  0  0  0  0  0
    1.4318    0.4992    1.4160 H   0  0  0  0  0  0  0  0  0  0  0  0
    0.4850    1.2961   -1.3094 H   0  0  0  0  0  0  0  0  0  0  0  0
    1.8603    1.8542   -0.4921 H   0  0  0  0  0  0  0  0  0  0  0  0
    0.3298    2.2117    0.1193 H   0  0  0  0  0  0  0  0  0  0  0  0
  1 12  1  0  0  0  0
  1 13  1  0  0  0  0
  2  1  1  0  0  0  0
  2 14  1  1  0  0  0
  3  2  1  0  0  0  0
  4  3  1  0  0  0  0
  5  4  2  0  0  0  0
  5  1  1  0  0  0  0
  6  5  1  0  0  0  0
  7  2  1  0  0  0  0
  7 15  1  1  0  0  0
  8  7  1  0  0  0  0
  9  8  2  0  0  0  0
 10  8  1  0  0  0  0
 11  7  1  0  0  0  0
 11 16  1  0  0  0  0
 11 17  1  0  0  0  0
 11 18  1  0  0  0  0
M  CHG  2  10  -1  11   1
M  END
>  <MOL Chiral Flag>
0

>  <energy>
39.151871171533259

$$$$
> 682_AKC_S0031182000061205
>663.sdf
 OpenBabel10062216543D

 39 38  0  0  0  0  0  0  0  0999 V2000
    1.0765   -3.8302    0.9341 C   0  0  0  0  0  0  0  0  0  0  0  0
    0.9578   -2.5197    0.5211 O   0  0  0  0  0  0  0  0  0  0  0  0
    1.7554   -1.9638   -0.4288 C   0  0  0  0  0  0  0  0  0  0  0  0
    2.6128   -2.6358   -0.9877 O   0  0  0  0  0  0  0  0  0  0  0  0
    1.5918   -0.5075   -0.8038 C   0  0  1  0  0  0  0  0  0  0  0  0
    0.4875    0.0887   -0.0558 N   0  0  0  0  0  0  0  0  0  0  0  0
   -0.5825    0.6810   -0.6606 C   0  0  0  0  0  0  0  0  0  0  0  0
   -0.6542    0.7404   -1.8804 O   0  0  0  0  0  0  0  0  0  0  0  0
   -1.6861    1.3021    0.1802 C   0  0  1  0  0  0  0  0  0  0  0  0
   -1.6968    2.7538   -0.0552 N   0  3  0  0  0  0  0  0  0  0  0  0
   -3.0674    0.6480   -0.1427 C   0  0  0  0  0  0  0  0  0  0  0  0
   -4.2064    1.2521    0.6970 C   0  0  0  0  0  0  0  0  0  0  0  0
   -3.0320   -0.8719    0.0995 C   0  0  0  0  0  0  0  0  0  0  0  0
    2.9084    0.2876   -0.5703 C   0  0  0  0  0  0  0  0  0  0  0  0
    3.3490    0.3117    0.9040 C   0  0  0  0  0  0  0  0  0  0  0  0
    2.7733    1.7232   -1.0993 C   0  0  0  0  0  0  0  0  0  0  0  0
    0.3150   -4.0371    1.7136 H   0  0  0  0  0  0  0  0  0  0  0  0
    2.0855   -4.0051    1.3662 H   0  0  0  0  0  0  0  0  0  0  0  0
    0.9103   -4.5198    0.0789 H   0  0  0  0  0  0  0  0  0  0  0  0
    1.3843   -0.4857   -1.8964 H   0  0  0  0  0  0  0  0  0  0  0  0
    0.5296    0.0754    0.9738 H   0  0  0  0  0  0  0  0  0  0  0  0
   -1.4614    1.1314    1.2578 H   0  0  0  0  0  0  0  0  0  0  0  0
   -1.9809    2.9699   -1.0386 H   0  0  0  0  0  0  0  0  0  0  0  0
   -0.7407    3.1438    0.1161 H   0  0  0  0  0  0  0  0  0  0  0  0
   -2.3403    3.2349    0.6112 H   0  0  0  0  0  0  0  0  0  0  0  0
   -3.3082    0.8187   -1.2157 H   0  0  0  0  0  0  0  0  0  0  0  0
   -4.0087    1.1163    1.7821 H   0  0  0  0  0  0  0  0  0  0  0  0
   -5.1696    0.7581    0.4463 H   0  0  0  0  0  0  0  0  0  0  0  0
   -4.3404    2.3313    0.4834 H   0  0  0  0  0  0  0  0  0  0  0  0
   -2.8013   -1.0945    1.1633 H   0  0  0  0  0  0  0  0  0  0  0  0
   -2.2690   -1.3611   -0.5412 H   0  0  0  0  0  0  0  0  0  0  0  0
   -4.0150   -1.3234   -0.1550 H   0  0  0  0  0  0  0  0  0  0  0  0
    3.7159   -0.2045   -1.1575 H   0  0  0  0  0  0  0  0  0  0  0  0
    2.6069    0.8369    1.5406 H   0  0  0  0  0  0  0  0  0  0  0  0
    4.3186    0.8451    1.0001 H   0  0  0  0  0  0  0  0  0  0  0  0
    3.4889   -0.7200    1.2889 H   0  0  0  0  0  0  0  0  0  0  0  0
    1.9880    2.2806   -0.5454 H   0  0  0  0  0  0  0  0  0  0  0  0
    2.5078    1.7101   -2.1781 H   0  0  0  0  0  0  0  0  0  0  0  0
    3.7361    2.2660   -0.9890 H   0  0  0  0  0  0  0  0  0  0  0  0
  1 17  1  0  0  0  0
  1 18  1  0  0  0  0
  1 19  1  0  0  0  0
  2  1  1  0  0  0  0
  3  2  1  0  0  0  0
  4  3  2  0  0  0  0
  5  3  1  0  0  0  0
  5 20  1  6  0  0  0
  6  5  1  0  0  0  0
  6 21  1  0  0  0  0
  7  6  1  0  0  0  0
  8  7  2  0  0  0  0
  9  7  1  0  0  0  0
  9 22  1  1  0  0  0
 10  9  1  0  0  0  0
 10 23  1  0  0  0  0
 10 24  1  0  0  0  0
 10 25  1  0  0  0  0
 11  9  1  0  0  0  0
 11 26  1  0  0  0  0
 12 11  1  0  0  0  0
 12 27  1  0  0  0  0
 12 28  1  0  0  0  0
 12 29  1  0  0  0  0
 13 11  1  0  0  0  0
 13 30  1  0  0  0  0
 13 31  1  0  0  0  0
 13 32  1  0  0  0  0
 14  5  1  0  0  0  0
 14 33  1  0  0  0  0
 15 14  1  0  0  0  0
 15 34  1  0  0  0  0
 15 35  1  0  0  0  0
 15 36  1  0  0  0  0
 16 14  1  0  0  0  0
 16 37  1  0  0  0  0
 16 38  1  0  0  0  0
 16 39  1  0  0  0  0
M  CHG  1  10   1
M  END
>  <MOL Chiral Flag>
0

>  <energy>
51.974127060778734

$$$$
> 683_AKC_0166-6851(88)90147-8
>664.sdf
 OpenBabel10062216553D

 52 53  0  0  0  0  0  0  0  0999 V2000
   -1.7865  -13.6083    6.4928 C   0  0  0  0  0  0  0  0  0  0  0  0
   -1.1563  -13.0760    5.2092 C   0  0  0  0  0  0  0  0  0  0  0  0
   -1.3784  -11.5642    5.0509 C   0  0  0  0  0  0  0  0  0  0  0  0
   -0.6411  -11.0426    3.8109 C   0  0  0  0  0  0  0  0  0  0  0  0
   -0.8653   -9.5384    3.5831 C   0  0  0  0  0  0  0  0  0  0  0  0
    0.0277   -9.0442    2.4358 C   0  0  0  0  0  0  0  0  0  0  0  0
   -0.1966   -7.5617    2.0925 C   0  0  0  0  0  0  0  0  0  0  0  0
    0.8363   -7.1118    1.0515 C   0  0  0  0  0  0  0  0  0  0  0  0
    0.6045   -5.8167    0.6116 O   0  0  0  0  0  0  0  0  0  0  0  0
    1.4364   -4.7730    0.8637 C   0  0  0  0  0  0  0  0  0  0  0  0
    1.9691   -4.5635    2.1476 C   0  0  0  0  0  0  0  0  0  0  0  0
    2.8357   -3.4944    2.3828 C   0  0  0  0  0  0  0  0  0  0  0  0
    3.1986   -2.6411    1.3389 C   0  0  0  0  0  0  0  0  0  0  0  0
    2.6821   -2.8395    0.0483 C   0  0  0  0  0  0  0  0  0  0  0  0
    3.1610   -1.9721   -1.0907 C   0  0  0  0  0  0  0  0  0  0  0  0
    2.8976   -0.4902   -0.8980 C   0  0  0  0  0  0  0  0  0  0  0  0
    3.9105    0.4512   -0.5674 C   0  0  0  0  0  0  0  0  0  0  0  0
    5.2510    0.0700   -0.2913 N   0  0  0  0  0  0  0  0  0  0  0  0
    3.5886    1.7693   -0.4868 N   0  0  0  0  0  0  0  0  0  0  0  0
    2.3268    2.2122   -0.7122 C   0  0  0  0  0  0  0  0  0  0  0  0
    2.0447    3.5948   -0.6488 N   0  0  0  0  0  0  0  0  0  0  0  0
    1.3408    1.3273   -1.0097 N   0  0  0  0  0  0  0  0  0  0  0  0
    1.5982   -0.0030   -1.1009 C   0  0  0  0  0  0  0  0  0  0  0  0
    1.7819   -3.8979   -0.1794 C   0  0  0  0  0  0  0  0  0  0  0  0
   -1.6136  -14.7035    6.5633 H   0  0  0  0  0  0  0  0  0  0  0  0
   -1.3214  -13.1219    7.3769 H   0  0  0  0  0  0  0  0  0  0  0  0
   -2.8801  -13.4178    6.5014 H   0  0  0  0  0  0  0  0  0  0  0  0
   -0.0670  -13.2967    5.2412 H   0  0  0  0  0  0  0  0  0  0  0  0
   -1.6002  -13.6068    4.3383 H   0  0  0  0  0  0  0  0  0  0  0  0
   -0.9829  -11.0361    5.9466 H   0  0  0  0  0  0  0  0  0  0  0  0
   -2.4681  -11.3591    4.9658 H   0  0  0  0  0  0  0  0  0  0  0  0
   -0.9845  -11.5953    2.9082 H   0  0  0  0  0  0  0  0  0  0  0  0
    0.4452  -11.2357    3.9529 H   0  0  0  0  0  0  0  0  0  0  0  0
   -1.9376   -9.3604    3.3484 H   0  0  0  0  0  0  0  0  0  0  0  0
   -0.6007   -8.9729    4.5036 H   0  0  0  0  0  0  0  0  0  0  0  0
   -0.1658   -9.6501    1.5228 H   0  0  0  0  0  0  0  0  0  0  0  0
    1.0871   -9.1949    2.7416 H   0  0  0  0  0  0  0  0  0  0  0  0
   -0.0823   -6.9346    3.0027 H   0  0  0  0  0  0  0  0  0  0  0  0
   -1.2260   -7.4320    1.6936 H   0  0  0  0  0  0  0  0  0  0  0  0
    0.7895   -7.7793    0.1645 H   0  0  0  0  0  0  0  0  0  0  0  0
    1.8567   -7.2152    1.4871 H   0  0  0  0  0  0  0  0  0  0  0  0
    1.7099   -5.2243    2.9640 H   0  0  0  0  0  0  0  0  0  0  0  0
    3.2418   -3.3370    3.3735 H   0  0  0  0  0  0  0  0  0  0  0  0
    3.8950   -1.8350    1.5313 H   0  0  0  0  0  0  0  0  0  0  0  0
    4.2367   -2.1839   -1.2042 H   0  0  0  0  0  0  0  0  0  0  0  0
    2.7182   -2.2832   -2.0624 H   0  0  0  0  0  0  0  0  0  0  0  0
    5.5577   -0.9082   -0.2542 H   0  0  0  0  0  0  0  0  0  0  0  0
    5.9402    0.7949   -0.0442 H   0  0  0  0  0  0  0  0  0  0  0  0
    2.7950    4.2677   -0.4317 H   0  0  0  0  0  0  0  0  0  0  0  0
    1.0942    3.9427   -0.8393 H   0  0  0  0  0  0  0  0  0  0  0  0
    0.7959   -0.6805   -1.3639 H   0  0  0  0  0  0  0  0  0  0  0  0
    1.3863   -4.0714   -1.1728 H   0  0  0  0  0  0  0  0  0  0  0  0
  1 25  1  0  0  0  0
  1 26  1  0  0  0  0
  1 27  1  0  0  0  0
  2  1  1  0  0  0  0
  2 28  1  0  0  0  0
  2 29  1  0  0  0  0
  3  2  1  0  0  0  0
  3 30  1  0  0  0  0
  3 31  1  0  0  0  0
  4  3  1  0  0  0  0
  4 32  1  0  0  0  0
  4 33  1  0  0  0  0
  5  4  1  0  0  0  0
  5 34  1  0  0  0  0
  5 35  1  0  0  0  0
  6  5  1  0  0  0  0
  6 36  1  0  0  0  0
  6 37  1  0  0  0  0
  7  6  1  0  0  0  0
  7 38  1  0  0  0  0
  7 39  1  0  0  0  0
  8  7  1  0  0  0  0
  8 40  1  0  0  0  0
  8 41  1  0  0  0  0
  9  8  1  0  0  0  0
 10  9  1  0  0  0  0
 11 10  2  0  0  0  0
 11 42  1  0  0  0  0
 12 11  1  0  0  0  0
 12 43  1  0  0  0  0
 13 12  2  0  0  0  0
 13 44  1  0  0  0  0
 14 13  1  0  0  0  0
 15 14  1  0  0  0  0
 15 45  1  0  0  0  0
 15 46  1  0  0  0  0
 16 15  1  0  0  0  0
 17 16  2  0  0  0  0
 18 17  1  0  0  0  0
 18 47  1  0  0  0  0
 18 48  1  0  0  0  0
 19 17  1  0  0  0  0
 20 19  2  0  0  0  0
 21 20  1  0  0  0  0
 21 49  1  0  0  0  0
 21 50  1  0  0  0  0
 22 20  1  0  0  0  0
 23 22  2  0  0  0  0
 23 16  1  0  0  0  0
 23 51  1  0  0  0  0
 24 14  2  0  0  0  0
 24 10  1  0  0  0  0
 24 52  1  0  0  0  0
M  END
>  <MOL Chiral Flag>
0

>  <energy>
-97.451241331009498

$$$$
> 684_AKC_ajtmh.1986.35.1110
>665.sdf
 OpenBabel10062216573D

 75 76  0  0  0  0  0  0  0  0999 V2000
    2.4127   -2.9187    2.6435 C   0  0  0  0  0  0  0  0  0  0  0  0
    2.6119   -1.9778    1.4737 C   0  0  0  0  0  0  0  0  0  0  0  0
    1.9701   -2.1198    0.1963 C   0  0  0  0  0  0  0  0  0  0  0  0
    1.0808   -3.0938   -0.1405 O   0  0  0  0  0  0  0  0  0  0  0  0
    0.5395   -4.0647    0.6662 C   0  0  0  0  0  0  0  0  0  0  0  0
   -0.4599   -4.9049   -0.0977 C   0  0  0  0  0  0  0  0  0  0  0  0
   -0.9644   -5.8301    0.8309 O   0  0  0  0  0  0  0  0  0  0  0  0
   -1.9981   -6.5990    0.2755 C   0  0  0  0  0  0  0  0  0  0  0  0
   -2.5054   -7.5015    1.4175 C   0  0  0  0  0  0  0  0  0  0  0  0
   -3.6224   -8.4540    1.1080 N   0  3  0  0  0  0  0  0  0  0  0  0
   -3.9776   -9.0781    2.4138 C   0  0  0  0  0  0  0  0  0  0  0  0
   -4.8047   -7.7182    0.6027 C   0  0  0  0  0  0  0  0  0  0  0  0
   -3.1228   -9.4861    0.1327 C   0  0  0  0  0  0  0  0  0  0  0  0
   -4.0841  -10.5246   -0.4572 C   0  0  0  0  0  0  0  0  0  0  0  0
   -4.8728  -11.3827    0.3370 C   0  0  0  0  0  0  0  0  0  0  0  0
   -5.6755  -12.3631   -0.2546 C   0  0  0  0  0  0  0  0  0  0  0  0
   -5.6760  -12.5327   -1.6383 C   0  0  0  0  0  0  0  0  0  0  0  0
   -4.8850  -11.7114   -2.4393 C   0  0  0  0  0  0  0  0  0  0  0  0
   -4.1040  -10.7075   -1.8592 C   0  0  0  0  0  0  0  0  0  0  0  0
    2.2633   -1.1877   -0.8031 C   0  0  0  0  0  0  0  0  0  0  0  0
    3.1506   -0.1411   -0.5878 C   0  0  0  0  0  0  0  0  0  0  0  0
    3.7940    0.0226    0.6548 C   0  0  0  0  0  0  0  0  0  0  0  0
    3.5011   -0.9116    1.6735 C   0  0  0  0  0  0  0  0  0  0  0  0
    4.8053    1.1853    0.8559 C   0  0  0  0  0  0  0  0  0  0  0  0
    5.4759    1.1014    2.2534 C   0  0  0  0  0  0  0  0  0  0  0  0
    5.9221    0.9958   -0.1921 C   0  0  0  0  0  0  0  0  0  0  0  0
    4.0031    2.5392    0.6908 C   0  0  0  0  0  0  0  0  0  0  0  0
    4.6104    3.9959    0.6826 C   0  0  0  0  0  0  0  0  0  0  0  0
    5.5019    4.2574   -0.5504 C   0  0  0  0  0  0  0  0  0  0  0  0
    3.4175    4.9809    0.5946 C   0  0  0  0  0  0  0  0  0  0  0  0
    5.3937    4.3462    1.9615 C   0  0  0  0  0  0  0  0  0  0  0  0
    1.3638   -2.9181    2.9916 H   0  0  0  0  0  0  0  0  0  0  0  0
    3.0130   -2.6179    3.5283 H   0  0  0  0  0  0  0  0  0  0  0  0
    2.7645   -3.9366    2.3875 H   0  0  0  0  0  0  0  0  0  0  0  0
   -0.0171   -3.5853    1.4968 H   0  0  0  0  0  0  0  0  0  0  0  0
    1.3299   -4.7504    1.0289 H   0  0  0  0  0  0  0  0  0  0  0  0
   -1.2628   -4.2345   -0.4821 H   0  0  0  0  0  0  0  0  0  0  0  0
    0.0605   -5.4234   -0.9351 H   0  0  0  0  0  0  0  0  0  0  0  0
   -2.8235   -5.9385   -0.0703 H   0  0  0  0  0  0  0  0  0  0  0  0
   -1.5899   -7.1917   -0.5673 H   0  0  0  0  0  0  0  0  0  0  0  0
   -1.6284   -8.0713    1.8060 H   0  0  0  0  0  0  0  0  0  0  0  0
   -2.8152   -6.7978    2.2265 H   0  0  0  0  0  0  0  0  0  0  0  0
   -3.2132   -9.8252    2.7285 H   0  0  0  0  0  0  0  0  0  0  0  0
   -4.0472   -8.3257    3.2319 H   0  0  0  0  0  0  0  0  0  0  0  0
   -4.9845   -9.5323    2.4113 H   0  0  0  0  0  0  0  0  0  0  0  0
   -5.6741   -8.3991    0.4748 H   0  0  0  0  0  0  0  0  0  0  0  0
   -4.6099   -7.2486   -0.3826 H   0  0  0  0  0  0  0  0  0  0  0  0
   -5.1098   -6.9224    1.3226 H   0  0  0  0  0  0  0  0  0  0  0  0
   -2.6763   -8.9742   -0.7397 H   0  0  0  0  0  0  0  0  0  0  0  0
   -2.2894  -10.0529    0.6009 H   0  0  0  0  0  0  0  0  0  0  0  0
   -4.8705  -11.3278    1.4054 H   0  0  0  0  0  0  0  0  0  0  0  0
   -6.2831  -13.0081    0.3665 H   0  0  0  0  0  0  0  0  0  0  0  0
   -6.2784  -13.3114   -2.0882 H   0  0  0  0  0  0  0  0  0  0  0  0
   -4.8661  -11.8606   -3.5116 H   0  0  0  0  0  0  0  0  0  0  0  0
   -3.4829  -10.0988   -2.5051 H   0  0  0  0  0  0  0  0  0  0  0  0
    1.7884   -1.2833   -1.7733 H   0  0  0  0  0  0  0  0  0  0  0  0
    3.3409    0.5413   -1.4046 H   0  0  0  0  0  0  0  0  0  0  0  0
    3.9665   -0.8290    2.6417 H   0  0  0  0  0  0  0  0  0  0  0  0
    5.9611    0.1109    2.3933 H   0  0  0  0  0  0  0  0  0  0  0  0
    4.7342    1.2681    3.0645 H   0  0  0  0  0  0  0  0  0  0  0  0
    6.2997    1.8119    2.3853 H   0  0  0  0  0  0  0  0  0  0  0  0
    6.3430   -0.0308   -0.1144 H   0  0  0  0  0  0  0  0  0  0  0  0
    5.5479    1.1387   -1.2270 H   0  0  0  0  0  0  0  0  0  0  0  0
    6.7708    1.6781   -0.0139 H   0  0  0  0  0  0  0  0  0  0  0  0
    3.2366    2.5175    1.4993 H   0  0  0  0  0  0  0  0  0  0  0  0
    3.4395    2.4753   -0.2638 H   0  0  0  0  0  0  0  0  0  0  0  0
    5.8187    5.3222   -0.5818 H   0  0  0  0  0  0  0  0  0  0  0  0
    6.4326    3.6719   -0.5357 H   0  0  0  0  0  0  0  0  0  0  0  0
    4.9517    4.0321   -1.4892 H   0  0  0  0  0  0  0  0  0  0  0  0
    3.7723    6.0352    0.5751 H   0  0  0  0  0  0  0  0  0  0  0  0
    2.8235    4.8087   -0.3291 H   0  0  0  0  0  0  0  0  0  0  0  0
    2.7414    4.8686    1.4697 H   0  0  0  0  0  0  0  0  0  0  0  0
    6.3626    3.8239    2.0046 H   0  0  0  0  0  0  0  0  0  0  0  0
    4.7899    4.1261    2.8685 H   0  0  0  0  0  0  0  0  0  0  0  0
    5.6574    5.4255    1.9736 H   0  0  0  0  0  0  0  0  0  0  0  0
  1 32  1  0  0  0  0
  1 33  1  0  0  0  0
  1 34  1  0  0  0  0
  2  1  1  0  0  0  0
  3  2  2  0  0  0  0
  4  3  1  0  0  0  0
  5  4  1  0  0  0  0
  5 35  1  0  0  0  0
  5 36  1  0  0  0  0
  6  5  1  0  0  0  0
  6 37  1  0  0  0  0
  6 38  1  0  0  0  0
  7  6  1  0  0  0  0
  8  7  1  0  0  0  0
  8 39  1  0  0  0  0
  8 40  1  0  0  0  0
  9  8  1  0  0  0  0
  9 41  1  0  0  0  0
  9 42  1  0  0  0  0
 10  9  1  0  0  0  0
 11 10  1  0  0  0  0
 11 43  1  0  0  0  0
 11 44  1  0  0  0  0
 11 45  1  0  0  0  0
 12 10  1  0  0  0  0
 12 46  1  0  0  0  0
 12 47  1  0  0  0  0
 12 48  1  0  0  0  0
 13 10  1  0  0  0  0
 13 49  1  0  0  0  0
 13 50  1  0  0  0  0
 14 13  1  0  0  0  0
 15 14  2  0  0  0  0
 15 51  1  0  0  0  0
 16 15  1  0  0  0  0
 16 52  1  0  0  0  0
 17 16  2  0  0  0  0
 17 53  1  0  0  0  0
 18 17  1  0  0  0  0
 18 54  1  0  0  0  0
 19 18  2  0  0  0  0
 19 14  1  0  0  0  0
 19 55  1  0  0  0  0
 20  3  1  0  0  0  0
 20 56  1  0  0  0  0
 21 20  2  0  0  0  0
 21 57  1  0  0  0  0
 22 21  1  0  0  0  0
 23 22  2  0  0  0  0
 23  2  1  0  0  0  0
 23 58  1  0  0  0  0
 24 22  1  0  0  0  0
 25 24  1  0  0  0  0
 25 59  1  0  0  0  0
 25 60  1  0  0  0  0
 25 61  1  0  0  0  0
 26 24  1  0  0  0  0
 26 62  1  0  0  0  0
 26 63  1  0  0  0  0
 26 64  1  0  0  0  0
 27 24  1  0  0  0  0
 27 65  1  0  0  0  0
 27 66  1  0  0  0  0
 28 27  1  0  0  0  0
 29 28  1  0  0  0  0
 29 67  1  0  0  0  0
 29 68  1  0  0  0  0
 29 69  1  0  0  0  0
 30 28  1  0  0  0  0
 30 70  1  0  0  0  0
 30 71  1  0  0  0  0
 30 72  1  0  0  0  0
 31 28  1  0  0  0  0
 31 73  1  0  0  0  0
 31 74  1  0  0  0  0
 31 75  1  0  0  0  0
M  CHG  1  10   1
M  END
>  <MOL Chiral Flag>
0

>  <energy>
146.65040272434584

$$$$
> 685_AKC_0035-9203(85)90255-X
>666.sdf
 OpenBabel10062216573D

 31 33  0  0  0  0  0  0  0  0999 V2000
   -3.6545    1.9613    1.2369 O   0  0  0  0  0  0  0  0  0  0  0  0
   -3.4174    0.6057    0.9666 C   0  0  0  0  0  0  0  0  0  0  0  0
   -3.4179    0.3588   -0.5566 C   0  0  1  0  0  0  0  0  0  0  0  0
   -2.4167    1.1597   -1.1601 O   0  0  0  0  0  0  0  0  0  0  0  0
   -1.3725    0.2900   -1.5604 C   0  0  2  0  0  0  0  0  0  0  0  0
   -1.6108   -1.0534   -0.8763 C   0  0  2  0  0  0  0  0  0  0  0  0
   -0.9850   -2.1171   -1.5478 O   0  0  0  0  0  0  0  0  0  0  0  0
   -3.1196   -1.0963   -0.9402 C   0  0  2  0  0  0  0  0  0  0  0  0
   -3.5482   -1.3026   -2.2659 O   0  0  0  0  0  0  0  0  0  0  0  0
   -0.0822    0.8744   -1.1937 N   0  0  0  0  0  0  0  0  0  0  0  0
    0.2485    1.1898    0.0568 N   0  0  0  0  0  0  0  0  0  0  0  0
    1.4751    1.7683    0.0409 C   0  0  0  0  0  0  0  0  0  0  0  0
    1.9110    1.8145   -1.2666 C   0  0  0  0  0  0  0  0  0  0  0  0
    0.9266    1.2469   -2.0043 C   0  0  0  0  0  0  0  0  0  0  0  0
    1.0130    1.1271   -3.3551 N   0  0  0  0  0  0  0  0  0  0  0  0
    2.1381    1.6007   -3.9757 C   0  0  0  0  0  0  0  0  0  0  0  0
    3.1440    2.1834   -3.2442 N   0  0  0  0  0  0  0  0  0  0  0  0
    3.0505    2.3007   -1.8868 C   0  0  0  0  0  0  0  0  0  0  0  0
    3.9429    2.8269   -1.2469 O   0  0  0  0  0  0  0  0  0  0  0  0
   -2.7704    2.4156    1.2144 H   0  0  0  0  0  0  0  0  0  0  0  0
   -4.2272    0.0087    1.4360 H   0  0  0  0  0  0  0  0  0  0  0  0
   -2.4725    0.2903    1.4595 H   0  0  0  0  0  0  0  0  0  0  0  0
   -4.4246    0.6433   -0.9352 H   0  0  0  0  0  0  0  0  0  0  0  0
   -1.4642    0.1583   -2.6597 H   0  0  0  0  0  0  0  0  0  0  0  0
   -1.2867   -0.9996    0.1888 H   0  0  0  0  0  0  0  0  0  0  0  0
   -0.6098   -2.7224   -0.8562 H   0  0  0  0  0  0  0  0  0  0  0  0
   -3.6178   -1.8411   -0.2781 H   0  0  0  0  0  0  0  0  0  0  0  0
   -3.4282   -2.2684   -2.4604 H   0  0  0  0  0  0  0  0  0  0  0  0
    1.9942    2.1351    0.9162 H   0  0  0  0  0  0  0  0  0  0  0  0
    0.2538    0.6889   -3.9194 H   0  0  0  0  0  0  0  0  0  0  0  0
    2.2356    1.5198   -5.0502 H   0  0  0  0  0  0  0  0  0  0  0  0
  1 20  1  0  0  0  0
  2  1  1  0  0  0  0
  2 21  1  0  0  0  0
  2 22  1  0  0  0  0
  3  2  1  0  0  0  0
  3 23  1  6  0  0  0
  4  3  1  0  0  0  0
  5  4  1  0  0  0  0
  5 24  1  6  0  0  0
  6  5  1  0  0  0  0
  6 25  1  1  0  0  0
  7  6  1  0  0  0  0
  7 26  1  0  0  0  0
  8  6  1  0  0  0  0
  8  3  1  0  0  0  0
  8 27  1  1  0  0  0
  9  8  1  0  0  0  0
  9 28  1  0  0  0  0
 10  5  1  0  0  0  0
 11 10  1  0  0  0  0
 12 11  2  0  0  0  0
 12 29  1  0  0  0  0
 13 12  1  0  0  0  0
 14 13  2  0  0  0  0
 14 10  1  0  0  0  0
 15 14  1  0  0  0  0
 15 30  1  0  0  0  0
 16 15  1  0  0  0  0
 16 31  1  0  0  0  0
 17 16  2  0  0  0  0
 18 17  1  0  0  0  0
 18 13  1  0  0  0  0
 19 18  2  0  0  0  0
M  END
>  <MOL Chiral Flag>
0

>  <energy>
103.3392004069603

$$$$
> 686_AKC_jm00375a006
>667.sdf
 OpenBabel10062216573D

 31 33  0  0  0  0  0  0  0  0999 V2000
   -2.7615   -2.1766    0.6248 O   0  0  0  0  0  0  0  0  0  0  0  0
   -2.5968   -1.1823   -0.3523 C   0  0  0  0  0  0  0  0  0  0  0  0
   -2.1516    0.1659    0.2553 C   0  0  1  0  0  0  0  0  0  0  0  0
   -1.0393   -0.0288    1.1116 O   0  0  0  0  0  0  0  0  0  0  0  0
    0.0048    0.8021    0.6551 C   0  0  2  0  0  0  0  0  0  0  0  0
   -0.6165    1.9070   -0.2012 C   0  0  2  0  0  0  0  0  0  0  0  0
   -1.1384    2.8992    0.6504 O   0  0  0  0  0  0  0  0  0  0  0  0
   -1.7389    1.1515   -0.8537 C   0  0  2  0  0  0  0  0  0  0  0  0
   -2.7854    1.9612   -1.3357 O   0  0  0  0  0  0  0  0  0  0  0  0
    0.9761   -0.0366   -0.0584 N   0  0  0  0  0  0  0  0  0  0  0  0
    0.6743   -0.8214   -1.0910 N   0  0  0  0  0  0  0  0  0  0  0  0
    1.7897   -1.4996   -1.4500 C   0  0  0  0  0  0  0  0  0  0  0  0
    1.8554   -2.7736   -2.8695 Br  0  0  0  0  0  0  0  0  0  0  0  0
    2.8189   -1.1229   -0.6111 C   0  0  0  0  0  0  0  0  0  0  0  0
    2.2782   -0.2155    0.2385 C   0  0  0  0  0  0  0  0  0  0  0  0
    3.0046    0.3736    1.2262 N   0  0  0  0  0  0  0  0  0  0  0  0
    4.3237    0.0352    1.3488 C   0  0  0  0  0  0  0  0  0  0  0  0
    4.8896   -0.8808    0.4978 N   0  0  0  0  0  0  0  0  0  0  0  0
    4.1550   -1.4746   -0.4888 C   0  0  0  0  0  0  0  0  0  0  0  0
    4.6664   -2.2900   -1.2339 O   0  0  0  0  0  0  0  0  0  0  0  0
   -3.2482   -1.7788    1.3897 H   0  0  0  0  0  0  0  0  0  0  0  0
   -1.8048   -1.5461   -1.0408 H   0  0  0  0  0  0  0  0  0  0  0  0
   -3.5257   -1.0660   -0.9494 H   0  0  0  0  0  0  0  0  0  0  0  0
   -2.9538    0.6016    0.8916 H   0  0  0  0  0  0  0  0  0  0  0  0
    0.4973    1.2921    1.5162 H   0  0  0  0  0  0  0  0  0  0  0  0
    0.1026    2.3583   -0.9292 H   0  0  0  0  0  0  0  0  0  0  0  0
   -0.7315    3.7642    0.3750 H   0  0  0  0  0  0  0  0  0  0  0  0
   -1.2933    0.5975   -1.7052 H   0  0  0  0  0  0  0  0  0  0  0  0
   -3.2737    2.3326   -0.5526 H   0  0  0  0  0  0  0  0  0  0  0  0
    2.5897    1.0693    1.8812 H   0  0  0  0  0  0  0  0  0  0  0  0
    4.9258    0.4925    2.1228 H   0  0  0  0  0  0  0  0  0  0  0  0
  1 21  1  0  0  0  0
  2  1  1  0  0  0  0
  2 22  1  0  0  0  0
  2 23  1  0  0  0  0
  3  2  1  0  0  0  0
  3 24  1  1  0  0  0
  4  3  1  0  0  0  0
  5  4  1  0  0  0  0
  5 25  1  1  0  0  0
  6  5  1  0  0  0  0
  6 26  1  6  0  0  0
  7  6  1  0  0  0  0
  7 27  1  0  0  0  0
  8  6  1  0  0  0  0
  8  3  1  0  0  0  0
  8 28  1  6  0  0  0
  9  8  1  0  0  0  0
  9 29  1  0  0  0  0
 10  5  1  0  0  0  0
 11 10  1  0  0  0  0
 12 11  2  0  0  0  0
 13 12  1  0  0  0  0
 14 12  1  0  0  0  0
 15 14  2  0  0  0  0
 15 10  1  0  0  0  0
 16 15  1  0  0  0  0
 16 30  1  0  0  0  0
 17 16  1  0  0  0  0
 17 31  1  0  0  0  0
 18 17  2  0  0  0  0
 19 18  1  0  0  0  0
 19 14  1  0  0  0  0
 20 19  2  0  0  0  0
M  END
>  <MOL Chiral Flag>
0

>  <energy>
95.980894176454768

$$$$
> 687_AKC_0006-2952(82)90203-9
>668.sdf
 OpenBabel10062216583D

 24 26  0  0  0  0  0  0  0  0999 V2000
   -3.1798   -1.0515   -1.5731 N   0  0  0  0  0  0  0  0  0  0  0  0
   -3.5874   -0.1503   -0.6485 C   0  0  0  0  0  0  0  0  0  0  0  0
   -2.4773    0.4517   -0.1075 C   0  0  0  0  0  0  0  0  0  0  0  0
   -2.3935    1.4084    0.8468 N   0  0  0  0  0  0  0  0  0  0  0  0
   -1.1515    1.8445    1.2175 C   0  0  0  0  0  0  0  0  0  0  0  0
   -0.0256    1.3206    0.6315 N   0  0  0  0  0  0  0  0  0  0  0  0
   -0.1112    0.3552   -0.3359 C   0  0  0  0  0  0  0  0  0  0  0  0
   -1.3784   -0.0801   -0.7022 C   0  0  0  0  0  0  0  0  0  0  0  0
   -1.8263   -1.0147   -1.6128 C   0  0  0  0  0  0  0  0  0  0  0  0
    1.3605   -0.3347   -1.1235 S   0  0  2  0  0  0  0  0  0  0  0  0
    1.6135   -1.4320    0.0701 C   0  0  0  0  0  0  0  0  0  0  0  0
    2.7049   -1.3594    1.0615 C   0  0  0  0  0  0  0  0  0  0  0  0
    3.5177   -0.3068    1.1806 C   0  0  0  0  0  0  0  0  0  0  0  0
    3.3908    0.8934    0.3416 C   0  0  0  0  0  0  0  0  0  0  0  0
    2.4969    0.9944   -0.6469 C   0  0  0  0  0  0  0  0  0  0  0  0
   -3.7967   -1.6643   -2.1508 H   0  0  0  0  0  0  0  0  0  0  0  0
   -4.6206    0.0456   -0.3942 H   0  0  0  0  0  0  0  0  0  0  0  0
   -1.0560    2.6088    1.9766 H   0  0  0  0  0  0  0  0  0  0  0  0
   -1.2158   -1.6297   -2.2611 H   0  0  0  0  0  0  0  0  0  0  0  0
    0.9953   -2.3240    0.0722 H   0  0  0  0  0  0  0  0  0  0  0  0
    2.8423   -2.2017    1.7326 H   0  0  0  0  0  0  0  0  0  0  0  0
    4.2913   -0.3250    1.9423 H   0  0  0  0  0  0  0  0  0  0  0  0
    4.0505    1.7325    0.5404 H   0  0  0  0  0  0  0  0  0  0  0  0
    2.4606    1.9154   -1.2199 H   0  0  0  0  0  0  0  0  0  0  0  0
  1 16  1  0  0  0  0
  2  1  1  0  0  0  0
  2 17  1  0  0  0  0
  3  2  2  0  0  0  0
  4  3  1  0  0  0  0
  5  4  2  0  0  0  0
  5 18  1  0  0  0  0
  6  5  1  0  0  0  0
  7  6  2  0  0  0  0
  8  7  1  0  0  0  0
  8  3  1  0  0  0  0
  9  8  2  0  0  0  0
  9  1  1  0  0  0  0
  9 19  1  0  0  0  0
 10  7  1  1  0  0  0
 11 10  2  0  0  0  0
 11 20  1  0  0  0  0
 12 11  1  0  0  0  0
 12 21  1  0  0  0  0
 13 12  2  0  0  0  0
 13 22  1  0  0  0  0
 14 13  1  0  0  0  0
 14 23  1  0  0  0  0
 15 14  2  0  0  0  0
 15 10  1  0  0  0  0
 15 24  1  0  0  0  0
M  END
>  <MOL Chiral Flag>
0

>  <energy>
29.284242009673328

$$$$
> 688_AKC_0024-3205(81)90062-X
>669.sdf
 OpenBabel10062216583D

 32 34  0  0  0  0  0  0  0  0999 V2000
   -4.8705    0.0960    0.7415 C   0  0  0  0  0  0  0  0  0  0  0  0
   -3.3883    0.2869    0.8133 C   0  0  0  0  0  0  0  0  0  0  0  0
   -2.5241   -0.4188   -0.0119 C   0  0  0  0  0  0  0  0  0  0  0  0
   -1.1878   -0.2284    0.0728 C   0  0  0  0  0  0  0  0  0  0  0  0
   -0.6377    0.6308    0.9614 N   0  0  0  0  0  0  0  0  0  0  0  0
   -1.4752    1.3347    1.7849 C   0  0  0  0  0  0  0  0  0  0  0  0
   -2.8365    1.1624    1.7068 N   0  0  0  0  0  0  0  0  0  0  0  0
   -0.5667   -1.0335   -0.8075 N   0  0  0  0  0  0  0  0  0  0  0  0
   -1.5765   -1.7131   -1.4132 C   0  0  0  0  0  0  0  0  0  0  0  0
   -2.7989   -1.3460   -0.9454 N   0  0  0  0  0  0  0  0  0  0  0  0
    0.8629   -1.2295   -1.0982 C   0  0  1  0  0  0  0  0  0  0  0  0
    1.4961   -0.0660   -1.8623 C   0  0  0  0  0  0  0  0  0  0  0  0
    2.1306    0.7130   -0.7543 C   0  0  1  0  0  0  0  0  0  0  0  0
    2.6331   -0.4564    0.0919 C   0  0  2  0  0  0  0  0  0  0  0  0
    1.5934   -1.4191    0.1048 O   0  0  0  0  0  0  0  0  0  0  0  0
    3.0190   -0.0381    1.5159 C   0  0  0  0  0  0  0  0  0  0  0  0
    4.1520    0.7892    1.5053 O   0  0  0  0  0  0  0  0  0  0  0  0
    3.1716    1.5424   -1.1976 O   0  0  0  0  0  0  0  0  0  0  0  0
   -5.3838    0.7405    1.4859 H   0  0  0  0  0  0  0  0  0  0  0  0
   -5.1242   -0.9645    0.9521 H   0  0  0  0  0  0  0  0  0  0  0  0
   -5.2340    0.3631   -0.2732 H   0  0  0  0  0  0  0  0  0  0  0  0
   -1.0628    2.0278    2.5048 H   0  0  0  0  0  0  0  0  0  0  0  0
   -1.4311   -2.4591   -2.1841 H   0  0  0  0  0  0  0  0  0  0  0  0
    0.9552   -2.1224   -1.7568 H   0  0  0  0  0  0  0  0  0  0  0  0
    0.8269    0.4876   -2.5549 H   0  0  0  0  0  0  0  0  0  0  0  0
    2.3338   -0.4872   -2.4682 H   0  0  0  0  0  0  0  0  0  0  0  0
    1.3722    1.2974   -0.1981 H   0  0  0  0  0  0  0  0  0  0  0  0
    3.5172   -0.9369   -0.3903 H   0  0  0  0  0  0  0  0  0  0  0  0
    2.1689    0.4567    2.0395 H   0  0  0  0  0  0  0  0  0  0  0  0
    3.2703   -0.9468    2.1022 H   0  0  0  0  0  0  0  0  0  0  0  0
    3.8387    1.7112    1.3176 H   0  0  0  0  0  0  0  0  0  0  0  0
    2.7559    2.2263   -1.7848 H   0  0  0  0  0  0  0  0  0  0  0  0
  1 19  1  0  0  0  0
  1 20  1  0  0  0  0
  1 21  1  0  0  0  0
  2  1  1  0  0  0  0
  3  2  2  0  0  0  0
  4  3  1  0  0  0  0
  5  4  2  0  0  0  0
  6  5  1  0  0  0  0
  6 22  1  0  0  0  0
  7  6  2  0  0  0  0
  7  2  1  0  0  0  0
  8  4  1  0  0  0  0
  9  8  1  0  0  0  0
  9 23  1  0  0  0  0
 10  9  2  0  0  0  0
 10  3  1  0  0  0  0
 11  8  1  0  0  0  0
 11 24  1  6  0  0  0
 12 11  1  0  0  0  0
 12 25  1  0  0  0  0
 12 26  1  0  0  0  0
 13 12  1  0  0  0  0
 13 27  1  1  0  0  0
 14 13  1  0  0  0  0
 14 28  1  6  0  0  0
 15 14  1  0  0  0  0
 15 11  1  0  0  0  0
 16 14  1  0  0  0  0
 16 29  1  0  0  0  0
 16 30  1  0  0  0  0
 17 16  1  0  0  0  0
 17 31  1  0  0  0  0
 18 13  1  0  0  0  0
 18 32  1  0  0  0  0
M  END
>  <MOL Chiral Flag>
0

>  <energy>
71.448590952248892

$$$$
> 689_AKC_0014-5793(80)80364-4
>670.sdf
 OpenBabel10062216593D

 48 50  0  0  0  0  0  0  0  0999 V2000
    0.1186   -5.0677    1.7432 C   0  0  0  0  0  0  0  0  0  0  0  0
   -1.1179   -5.8195    1.2416 C   0  0  0  0  0  0  0  0  0  0  0  0
   -0.7298   -6.8819    0.2039 C   0  0  0  0  0  0  0  0  0  0  0  0
   -2.2138   -4.8665    0.7138 C   0  0  0  0  0  0  0  0  0  0  0  0
   -1.8292   -3.9588   -0.4689 C   0  0  0  0  0  0  0  0  0  0  0  0
   -3.3520   -3.1019   -0.9847 S   0  0  0  0  0  0  0  0  0  0  0  0
   -2.6952   -1.5125   -1.6124 C   0  0  0  0  0  0  0  0  0  0  0  0
   -2.8925   -0.3945   -0.5767 C   0  0  1  0  0  0  0  0  0  0  0  0
   -1.7958   -0.2795    0.3145 O   0  0  0  0  0  0  0  0  0  0  0  0
   -1.9212    1.0239    0.8766 C   0  0  2  0  0  0  0  0  0  0  0  0
   -2.9170    1.8489    0.0269 C   0  0  2  0  0  0  0  0  0  0  0  0
   -4.1636    1.8863    0.6803 O   0  0  0  0  0  0  0  0  0  0  0  0
   -3.0364    0.9856   -1.2042 C   0  0  2  0  0  0  0  0  0  0  0  0
   -4.2229    1.1959   -1.9331 O   0  0  0  0  0  0  0  0  0  0  0  0
   -0.6303    1.7232    1.0588 N   0  0  0  0  0  0  0  0  0  0  0  0
   -0.2338    2.2416    2.2545 C   0  0  0  0  0  0  0  0  0  0  0  0
    0.9436    2.9119    2.1669 N   0  0  0  0  0  0  0  0  0  0  0  0
    1.2909    2.7951    0.8755 C   0  0  0  0  0  0  0  0  0  0  0  0
    2.3997    3.3069    0.2149 C   0  0  0  0  0  0  0  0  0  0  0  0
    3.3701    4.0879    0.8857 N   0  0  0  0  0  0  0  0  0  0  0  0
    2.5229    3.0433   -1.1189 N   0  0  0  0  0  0  0  0  0  0  0  0
    1.5860    2.2902   -1.7805 C   0  0  0  0  0  0  0  0  0  0  0  0
    0.4951    1.7953   -1.1158 N   0  0  0  0  0  0  0  0  0  0  0  0
    0.3603    2.0712    0.2066 C   0  0  0  0  0  0  0  0  0  0  0  0
   -0.1720   -4.3332    2.5239 H   0  0  0  0  0  0  0  0  0  0  0  0
    0.8386   -5.7848    2.1927 H   0  0  0  0  0  0  0  0  0  0  0  0
    0.6268   -4.5361    0.9122 H   0  0  0  0  0  0  0  0  0  0  0  0
   -1.5584   -6.3596    2.1099 H   0  0  0  0  0  0  0  0  0  0  0  0
   -0.2540   -6.4253   -0.6877 H   0  0  0  0  0  0  0  0  0  0  0  0
   -0.0146   -7.6051    0.6511 H   0  0  0  0  0  0  0  0  0  0  0  0
   -1.6304   -7.4490   -0.1169 H   0  0  0  0  0  0  0  0  0  0  0  0
   -2.5533   -4.2153    1.5495 H   0  0  0  0  0  0  0  0  0  0  0  0
   -3.0794   -5.4981    0.4119 H   0  0  0  0  0  0  0  0  0  0  0  0
   -1.4648   -4.5567   -1.3292 H   0  0  0  0  0  0  0  0  0  0  0  0
   -1.0546   -3.2321   -0.1471 H   0  0  0  0  0  0  0  0  0  0  0  0
   -3.3466   -1.3129   -2.4892 H   0  0  0  0  0  0  0  0  0  0  0  0
   -1.6599   -1.5591   -2.0140 H   0  0  0  0  0  0  0  0  0  0  0  0
   -3.8221   -0.6101    0.0036 H   0  0  0  0  0  0  0  0  0  0  0  0
   -2.3706    0.9063    1.8899 H   0  0  0  0  0  0  0  0  0  0  0  0
   -2.6064    2.8902   -0.2194 H   0  0  0  0  0  0  0  0  0  0  0  0
   -4.0753    2.5405    1.4220 H   0  0  0  0  0  0  0  0  0  0  0  0
   -2.1938    1.1552   -1.8849 H   0  0  0  0  0  0  0  0  0  0  0  0
   -4.9697    0.7498   -1.4554 H   0  0  0  0  0  0  0  0  0  0  0  0
   -0.8035    2.1616    3.1715 H   0  0  0  0  0  0  0  0  0  0  0  0
    4.1757    4.4677    0.3678 H   0  0  0  0  0  0  0  0  0  0  0  0
    3.2754    4.2973    1.8902 H   0  0  0  0  0  0  0  0  0  0  0  0
    1.7134    2.0862   -2.8356 H   0  0  0  0  0  0  0  0  0  0  0  0
   -0.1864    1.2131   -1.6280 H   0  0  0  0  0  0  0  0  0  0  0  0
  1 25  1  0  0  0  0
  1 26  1  0  0  0  0
  1 27  1  0  0  0  0
  2  1  1  0  0  0  0
  2 28  1  0  0  0  0
  3  2  1  0  0  0  0
  3 29  1  0  0  0  0
  3 30  1  0  0  0  0
  3 31  1  0  0  0  0
  4  2  1  0  0  0  0
  4 32  1  0  0  0  0
  4 33  1  0  0  0  0
  5  4  1  0  0  0  0
  5 34  1  0  0  0  0
  5 35  1  0  0  0  0
  6  5  1  0  0  0  0
  7  6  1  0  0  0  0
  7 36  1  0  0  0  0
  7 37  1  0  0  0  0
  8  7  1  0  0  0  0
  8 38  1  1  0  0  0
  9  8  1  0  0  0  0
 10  9  1  0  0  0  0
 10 39  1  1  0  0  0
 11 10  1  0  0  0  0
 11 40  1  6  0  0  0
 12 11  1  0  0  0  0
 12 41  1  0  0  0  0
 13 11  1  0  0  0  0
 13  8  1  0  0  0  0
 13 42  1  6  0  0  0
 14 13  1  0  0  0  0
 14 43  1  0  0  0  0
 15 10  1  0  0  0  0
 16 15  1  0  0  0  0
 16 44  1  0  0  0  0
 17 16  2  0  0  0  0
 18 17  1  0  0  0  0
 19 18  2  0  0  0  0
 20 19  1  0  0  0  0
 20 45  1  0  0  0  0
 20 46  1  0  0  0  0
 21 19  1  0  0  0  0
 22 21  2  0  0  0  0
 22 47  1  0  0  0  0
 23 22  1  0  0  0  0
 23 48  1  0  0  0  0
 24 23  1  0  0  0  0
 24 15  2  0  0  0  0
 24 18  1  0  0  0  0
M  END
>  <MOL Chiral Flag>
0

>  <energy>
63.585608236337237

$$$$
> 690_AKC_j.prmcm.2022.100176
>671.sdf
  Mrv1816 10102220143D              56.86000

 45 47  0  0  0  0            999 V2000
   -6.6606   -3.5493   12.1064 C   0  0  0  0  0  0  0  0  0  0  0  0
   -7.9366   -3.0608   12.4445 C   0  0  0  0  0  0  0  0  0  0  0  0
   -8.3511   -1.8015   11.9656 C   0  0  0  0  0  0  0  0  0  0  0  0
   -7.4984   -1.0532   11.1269 C   0  0  0  0  0  0  0  0  0  0  0  0
   -6.2335   -1.5497   10.7311 C   0  0  0  0  0  0  0  0  0  0  0  0
   -5.8152   -2.7878   11.2781 C   0  0  0  0  0  0  0  0  0  0  0  0
   -2.3566   -3.9277    5.5597 C   0  0  0  0  0  0  0  0  0  0  0  0
   -3.4373   -3.6156    6.4056 C   0  0  0  0  0  0  0  0  0  0  0  0
   -3.3464   -2.5710    7.3552 C   0  0  0  0  0  0  0  0  0  0  0  0
   -2.1403   -1.8337    7.4271 C   0  0  0  0  0  0  0  0  0  0  0  0
   -1.0491   -2.1458    6.5929 C   0  0  0  0  0  0  0  0  0  0  0  0
   -1.1550   -3.1943    5.6566 C   0  0  0  0  0  0  0  0  0  0  0  0
   -4.1799   -1.4455    9.3639 O   0  0  0  0  0  0  0  0  0  0  0  0
   -5.3698   -0.7610    9.7845 C   0  0  1  0  0  0  0  0  0  0  0  0
   -6.0152   -0.3739    8.4207 C   0  0  2  0  0  0  0  0  0  0  0  0
   -5.7006   -1.5905    7.5051 C   0  0  1  0  0  0  0  0  0  0  0  0
   -4.5138   -2.2845    8.2393 C   0  0  1  0  0  0  0  0  0  0  0  0
   -5.4257    0.9514    7.8538 C   0  0  0  0  0  0  0  0  0  0  0  0
   -6.9209   -2.5263    7.2740 C   0  0  0  0  0  0  0  0  0  0  0  0
   -2.4723   -4.9355    4.6569 O   0  0  0  0  0  0  0  0  0  0  0  0
   -0.0932   -3.4878    4.8592 O   0  0  0  0  0  0  0  0  0  0  0  0
    0.1073   -1.4384    6.6888 O   0  0  0  0  0  0  0  0  0  0  0  0
   -6.2237   -4.7512   12.5620 O   0  0  0  0  0  0  0  0  0  0  0  0
   -8.7449   -3.8135   13.2354 O   0  0  0  0  0  0  0  0  0  0  0  0
   -9.5720   -1.3176   12.3107 O   0  0  0  0  0  0  0  0  0  0  0  0
   -7.8117   -0.1368   10.8005 H   0  0  0  0  0  0  0  0  0  0  0  0
   -4.8830   -3.1569   11.0816 H   0  0  0  0  0  0  0  0  0  0  0  0
   -4.2972   -4.1633    6.3302 H   0  0  0  0  0  0  0  0  0  0  0  0
   -2.0466   -1.0605    8.0889 H   0  0  0  0  0  0  0  0  0  0  0  0
   -5.0571    0.1338   10.3295 H   0  0  0  0  0  0  0  0  0  0  0  0
   -7.0916   -0.2164    8.5159 H   0  0  0  0  0  0  0  0  0  0  0  0
   -5.3897   -1.2478    6.5118 H   0  0  0  0  0  0  0  0  0  0  0  0
   -4.8330   -3.2431    8.6617 H   0  0  0  0  0  0  0  0  0  0  0  0
   -4.3446    0.8728    7.7144 H   0  0  0  0  0  0  0  0  0  0  0  0
   -5.8823    1.1877    6.8900 H   0  0  0  0  0  0  0  0  0  0  0  0
   -5.6290    1.7793    8.5355 H   0  0  0  0  0  0  0  0  0  0  0  0
   -6.6395   -3.3608    6.6291 H   0  0  0  0  0  0  0  0  0  0  0  0
   -7.7264   -1.9780    6.7818 H   0  0  0  0  0  0  0  0  0  0  0  0
   -7.2995   -2.9286    8.2155 H   0  0  0  0  0  0  0  0  0  0  0  0
   -3.3837   -5.2850    4.7608 H   0  0  0  0  0  0  0  0  0  0  0  0
   -0.3975   -4.1852    4.2416 H   0  0  0  0  0  0  0  0  0  0  0  0
   -0.0235   -0.8064    7.4277 H   0  0  0  0  0  0  0  0  0  0  0  0
   -6.9910   -5.1619   13.0151 H   0  0  0  0  0  0  0  0  0  0  0  0
   -9.5583   -3.2855   13.3759 H   0  0  0  0  0  0  0  0  0  0  0  0
   -9.6436   -0.4349   11.8921 H   0  0  0  0  0  0  0  0  0  0  0  0
  1  2  1  0  0  0  0
  2  3  2  0  0  0  0
  3  4  1  0  0  0  0
  4  5  2  0  0  0  0
  5  6  1  0  0  0  0
  1  6  2  0  0  0  0
  7  8  1  0  0  0  0
  8  9  2  0  0  0  0
  9 10  1  0  0  0  0
 10 11  2  0  0  0  0
 11 12  1  0  0  0  0
  7 12  2  0  0  0  0
 13 14  1  0  0  0  0
 14 15  1  0  0  0  0
 15 16  1  0  0  0  0
 16 17  1  0  0  0  0
 13 17  1  0  0  0  0
 14  5  1  0  0  0  0
 17  9  1  0  0  0  0
 15 18  1  0  0  0  0
 16 19  1  0  0  0  0
  7 20  1  0  0  0  0
 12 21  1  0  0  0  0
 11 22  1  0  0  0  0
  1 23  1  0  0  0  0
  2 24  1  0  0  0  0
  3 25  1  0  0  0  0
  4 26  1  0  0  0  0
  6 27  1  0  0  0  0
  8 28  1  0  0  0  0
 10 29  1  0  0  0  0
 14 30  1  0  0  0  0
 15 31  1  0  0  0  0
 16 32  1  0  0  0  0
 17 33  1  0  0  0  0
 18 34  1  0  0  0  0
 18 35  1  0  0  0  0
 18 36  1  0  0  0  0
 19 37  1  0  0  0  0
 19 38  1  0  0  0  0
 19 39  1  0  0  0  0
 20 40  1  0  0  0  0
 21 41  1  0  0  0  0
 22 42  1  0  0  0  0
 23 43  1  0  0  0  0
 24 44  1  0  0  0  0
 25 45  1  0  0  0  0
M  END
$$$$
> 691_AKC_fmb-2020-0263
>672.sdf
  Mrv1816 10102220183D             152.87000

 76 80  0  0  0  0            999 V2000
   -7.6851   -1.6466    8.7766 C   0  0  0  0  0  0  0  0  0  0  0  0
   -7.3875   -0.4191    9.4125 C   0  0  0  0  0  0  0  0  0  0  0  0
   -6.2731    0.3484    9.0082 C   0  0  0  0  0  0  0  0  0  0  0  0
   -5.4719   -0.1393    7.9603 C   0  0  0  0  0  0  0  0  0  0  0  0
   -5.7685   -1.3477    7.3242 C   0  0  0  0  0  0  0  0  0  0  0  0
   -6.8753   -2.1205    7.7209 C   0  0  0  0  0  0  0  0  0  0  0  0
   -4.8553   -1.5732    6.3625 N   0  0  0  0  0  0  0  0  0  0  0  0
   -3.9651   -0.5612    6.3594 C   0  0  0  0  0  0  0  0  0  0  0  0
   -2.8207   -0.3286    5.5626 C   0  0  0  0  0  0  0  0  0  0  0  0
   -2.1215    0.8169    5.8184 N   0  0  0  0  0  0  0  0  0  0  0  0
   -2.4119    1.7371    6.7857 C   0  0  0  0  0  0  0  0  0  0  0  0
   -3.5620    1.5147    7.5865 C   0  0  0  0  0  0  0  0  0  0  0  0
   -4.3234    0.3574    7.3505 C   0  0  0  0  0  0  0  0  0  0  0  0
   -1.5319    2.8344    7.0139 C   0  0  0  0  0  0  0  0  0  0  0  0
   -1.4884    3.3449    8.1574 O   0  0  0  0  0  0  0  0  0  0  0  0
   -0.6761    3.4147    6.1236 N   0  0  0  0  0  0  0  0  0  0  0  0
   -2.3313   -1.2168    4.5657 C   0  0  0  0  0  0  0  0  0  0  0  0
   -1.8275   -0.7118    3.3417 C   0  0  0  0  0  0  0  0  0  0  0  0
   -1.2930   -1.5742    2.3661 C   0  0  0  0  0  0  0  0  0  0  0  0
   -1.2503   -2.9633    2.5933 C   0  0  0  0  0  0  0  0  0  0  0  0
   -1.7456   -3.4795    3.8062 C   0  0  0  0  0  0  0  0  0  0  0  0
   -2.2821   -2.6161    4.7799 C   0  0  0  0  0  0  0  0  0  0  0  0
   -0.6959   -3.8017    1.6648 O   0  0  0  0  0  0  0  0  0  0  0  0
   -1.6438   -4.2921    0.7003 C   0  0  0  0  0  0  0  0  0  0  0  0
   -0.5584    3.1519    4.7261 C   0  0  1  0  0  0  0  0  0  0  0  0
    0.4543    4.1199    4.0720 C   0  0  1  0  0  0  0  0  0  0  0  0
    1.8026    3.8567    4.4773 N   0  0  0  0  0  0  0  0  0  0  0  0
    4.1264    4.1807    4.4256 N   0  0  0  0  0  0  0  0  0  0  0  0
    2.8745    4.6154    4.1204 C   0  0  0  0  0  0  0  0  0  0  0  0
    2.7369    5.8063    3.4765 N   0  0  0  0  0  0  0  0  0  0  0  0
    3.8187    6.5498    3.1276 C   0  0  0  0  0  0  0  0  0  0  0  0
    5.0525    6.0811    3.4260 N   0  0  0  0  0  0  0  0  0  0  0  0
    5.2259    4.9031    4.0817 C   0  0  0  0  0  0  0  0  0  0  0  0
    3.7401    7.7618    2.5298 N   0  0  0  0  0  0  0  0  0  0  0  0
    2.4436    9.1762    0.9240 C   0  0  0  0  0  0  0  0  0  0  0  0
    2.5747    8.5809    2.4447 C   0  0  2  0  0  0  0  0  0  0  0  0
    2.7356    9.8099    3.5188 C   0  0  0  0  0  0  0  0  0  0  0  0
    6.4623    4.4402    4.4167 N   0  0  0  0  0  0  0  0  0  0  0  0
    8.8563    4.1120    3.9744 C   0  0  0  0  0  0  0  0  0  0  0  0
    7.6984    5.1254    4.1564 C   0  0  2  0  0  0  0  0  0  0  0  0
    7.9973    6.1440    5.2866 C   0  0  0  0  0  0  0  0  0  0  0  0
   -8.4915   -2.1951    9.0845 H   0  0  0  0  0  0  0  0  0  0  0  0
   -7.9855   -0.0847   10.1729 H   0  0  0  0  0  0  0  0  0  0  0  0
   -6.0551    1.2336    9.4707 H   0  0  0  0  0  0  0  0  0  0  0  0
   -7.0882   -3.0077    7.2593 H   0  0  0  0  0  0  0  0  0  0  0  0
   -4.8386   -2.3413    5.7708 H   0  0  0  0  0  0  0  0  0  0  0  0
   -3.8345    2.1697    8.3227 H   0  0  0  0  0  0  0  0  0  0  0  0
   -0.0987    4.1109    6.4784 H   0  0  0  0  0  0  0  0  0  0  0  0
   -1.8424    0.2929    3.1489 H   0  0  0  0  0  0  0  0  0  0  0  0
   -0.9273   -1.1872    1.4923 H   0  0  0  0  0  0  0  0  0  0  0  0
   -1.7041   -4.4861    3.9866 H   0  0  0  0  0  0  0  0  0  0  0  0
   -2.6120   -3.0235    5.6573 H   0  0  0  0  0  0  0  0  0  0  0  0
   -1.1254   -4.9779    0.0293 H   0  0  0  0  0  0  0  0  0  0  0  0
   -2.4568   -4.8430    1.1803 H   0  0  0  0  0  0  0  0  0  0  0  0
   -2.0575   -3.4791    0.0983 H   0  0  0  0  0  0  0  0  0  0  0  0
   -0.2292    2.1262    4.5528 H   0  0  0  0  0  0  0  0  0  0  0  0
   -1.5352    3.2971    4.2549 H   0  0  0  0  0  0  0  0  0  0  0  0
    0.3870    4.0003    2.9871 H   0  0  0  0  0  0  0  0  0  0  0  0
    0.1833    5.1504    4.3249 H   0  0  0  0  0  0  0  0  0  0  0  0
    1.9680    3.0709    5.0240 H   0  0  0  0  0  0  0  0  0  0  0  0
    4.5654    8.1254    2.1710 H   0  0  0  0  0  0  0  0  0  0  0  0
    1.5527    9.8357    0.7614 H   0  0  0  0  0  0  0  0  0  0  0  0
    3.3126    9.7999    0.5907 H   0  0  0  0  0  0  0  0  0  0  0  0
    2.3481    8.3986    0.1239 H   0  0  0  0  0  0  0  0  0  0  0  0
    1.6555    8.0389    2.6829 H   0  0  0  0  0  0  0  0  0  0  0  0
    2.8797    9.4845    4.5805 H   0  0  0  0  0  0  0  0  0  0  0  0
    3.6055   10.4880    3.3288 H   0  0  0  0  0  0  0  0  0  0  0  0
    1.8569   10.5016    3.5673 H   0  0  0  0  0  0  0  0  0  0  0  0
    6.5043    3.5938    4.8886 H   0  0  0  0  0  0  0  0  0  0  0  0
    8.6008    3.3774    3.2080 H   0  0  0  0  0  0  0  0  0  0  0  0
    9.0690    3.5842    4.9059 H   0  0  0  0  0  0  0  0  0  0  0  0
    9.7602    4.6348    3.6546 H   0  0  0  0  0  0  0  0  0  0  0  0
    7.6177    5.6793    3.2155 H   0  0  0  0  0  0  0  0  0  0  0  0
    8.8426    6.7767    5.0074 H   0  0  0  0  0  0  0  0  0  0  0  0
    8.2324    5.6284    6.2211 H   0  0  0  0  0  0  0  0  0  0  0  0
    7.1321    6.7898    5.4552 H   0  0  0  0  0  0  0  0  0  0  0  0
  1  2  1  0  0  0  0
  2  3  2  0  0  0  0
  3  4  1  0  0  0  0
  4  5  2  0  0  0  0
  5  6  1  0  0  0  0
  1  6  2  0  0  0  0
  5  7  1  0  0  0  0
  7  8  1  0  0  0  0
  8  9  1  0  0  0  0
  9 10  2  0  0  0  0
 10 11  1  0  0  0  0
 11 12  2  0  0  0  0
 12 13  1  0  0  0  0
  4 13  1  0  0  0  0
  8 13  2  0  0  0  0
 14 15  2  0  0  0  0
 14 16  1  0  0  0  0
 11 14  1  0  0  0  0
 17 18  2  0  0  0  0
 18 19  1  0  0  0  0
 19 20  2  0  0  0  0
 20 21  1  0  0  0  0
 21 22  2  0  0  0  0
 17 22  1  0  0  0  0
 23 24  1  0  0  0  0
 20 23  1  0  0  0  0
  9 17  1  0  0  0  0
 25 26  1  0  0  0  0
 28 29  2  0  0  0  0
 29 30  1  0  0  0  0
 30 31  2  0  0  0  0
 31 32  1  0  0  0  0
 32 33  2  0  0  0  0
 28 33  1  0  0  0  0
 35 36  1  0  0  0  0
 36 37  1  0  0  0  0
 34 36  1  0  0  0  0
 31 34  1  0  0  0  0
 39 40  1  0  0  0  0
 40 41  1  0  0  0  0
 38 40  1  0  0  0  0
 33 38  1  0  0  0  0
 27 29  1  0  0  0  0
 26 27  1  0  0  0  0
 16 25  1  0  0  0  0
  1 42  1  0  0  0  0
  2 43  1  0  0  0  0
  3 44  1  0  0  0  0
  6 45  1  0  0  0  0
  7 46  1  0  0  0  0
 12 47  1  0  0  0  0
 16 48  1  0  0  0  0
 18 49  1  0  0  0  0
 19 50  1  0  0  0  0
 21 51  1  0  0  0  0
 22 52  1  0  0  0  0
 24 53  1  0  0  0  0
 24 54  1  0  0  0  0
 24 55  1  0  0  0  0
 25 56  1  0  0  0  0
 25 57  1  0  0  0  0
 26 58  1  0  0  0  0
 26 59  1  0  0  0  0
 27 60  1  0  0  0  0
 34 61  1  0  0  0  0
 35 62  1  0  0  0  0
 35 63  1  0  0  0  0
 35 64  1  0  0  0  0
 36 65  1  0  0  0  0
 37 66  1  0  0  0  0
 37 67  1  0  0  0  0
 37 68  1  0  0  0  0
 38 69  1  0  0  0  0
 39 70  1  0  0  0  0
 39 71  1  0  0  0  0
 39 72  1  0  0  0  0
 40 73  1  0  0  0  0
 41 74  1  0  0  0  0
 41 75  1  0  0  0  0
 41 76  1  0  0  0  0
M  END
>  <type>
systematic

$$$$
> 692_AKC_fmb-2020-0263
>673.sdf
  Mrv1816 10102220193D              92.40000

 52 56  0  0  0  0            999 V2000
   -8.1661   -7.3384   -2.0979 C   0  0  0  0  0  0  0  0  0  0  0  0
   -7.5060   -6.7066   -3.1776 C   0  0  0  0  0  0  0  0  0  0  0  0
   -6.4223   -5.8328   -2.9428 C   0  0  0  0  0  0  0  0  0  0  0  0
   -6.0216   -5.6145   -1.6120 C   0  0  0  0  0  0  0  0  0  0  0  0
   -6.6794   -6.2280   -0.5431 C   0  0  0  0  0  0  0  0  0  0  0  0
   -7.7576   -7.0994   -0.7683 C   0  0  0  0  0  0  0  0  0  0  0  0
   -6.0996   -5.8523    0.6115 N   0  0  0  0  0  0  0  0  0  0  0  0
   -5.0714   -5.0289    0.3272 C   0  0  0  0  0  0  0  0  0  0  0  0
   -4.1303   -4.3991    1.1675 C   0  0  0  0  0  0  0  0  0  0  0  0
   -3.1447   -3.6683    0.5613 N   0  0  0  0  0  0  0  0  0  0  0  0
   -3.0215   -3.4900   -0.7905 C   0  0  0  0  0  0  0  0  0  0  0  0
   -3.9843   -4.0858   -1.6431 C   0  0  0  0  0  0  0  0  0  0  0  0
   -4.9927   -4.8641   -1.0565 C   0  0  0  0  0  0  0  0  0  0  0  0
   -1.9293   -2.7618   -1.3201 C   0  0  0  0  0  0  0  0  0  0  0  0
   -1.5839   -2.9854   -2.5058 O   0  0  0  0  0  0  0  0  0  0  0  0
   -1.2294   -1.8497   -0.5793 N   0  0  0  0  0  0  0  0  0  0  0  0
   -4.1714   -4.5251    2.5760 C   0  0  0  0  0  0  0  0  0  0  0  0
   -5.3532   -4.2386    3.2995 C   0  0  0  0  0  0  0  0  0  0  0  0
   -5.3894   -4.3807    4.6993 C   0  0  0  0  0  0  0  0  0  0  0  0
   -4.2442   -4.8104    5.4002 C   0  0  0  0  0  0  0  0  0  0  0  0
   -3.0659   -5.1058    4.6841 C   0  0  0  0  0  0  0  0  0  0  0  0
   -3.0270   -4.9541    3.2852 C   0  0  0  0  0  0  0  0  0  0  0  0
   -4.2970   -4.9953    6.7565 O   0  0  0  0  0  0  0  0  0  0  0  0
   -3.8892   -3.8496    7.5258 C   0  0  0  0  0  0  0  0  0  0  0  0
   -0.0893   -1.1251   -1.0608 C   0  0  1  0  0  0  0  0  0  0  0  0
   -0.4546   -0.1543   -2.1284 C   0  0  0  0  0  0  0  0  0  0  0  0
   -1.1779    1.6910   -4.1524 C   0  0  0  0  0  0  0  0  0  0  0  0
   -0.5190    0.4972   -4.4930 C   0  0  0  0  0  0  0  0  0  0  0  0
   -0.1363   -0.4066   -3.4848 C   0  0  0  0  0  0  0  0  0  0  0  0
   -1.1462    1.0359   -1.8041 C   0  0  0  0  0  0  0  0  0  0  0  0
   -1.4912    1.9601   -2.8086 C   0  0  0  0  0  0  0  0  0  0  0  0
   -8.9454   -7.9739   -2.2834 H   0  0  0  0  0  0  0  0  0  0  0  0
   -7.8158   -6.8873   -4.1358 H   0  0  0  0  0  0  0  0  0  0  0  0
   -5.9422   -5.3802   -3.7236 H   0  0  0  0  0  0  0  0  0  0  0  0
   -8.2311   -7.5542    0.0141 H   0  0  0  0  0  0  0  0  0  0  0  0
   -6.3665   -6.1391    1.4993 H   0  0  0  0  0  0  0  0  0  0  0  0
   -3.9467   -3.9720   -2.6598 H   0  0  0  0  0  0  0  0  0  0  0  0
   -1.5218   -1.6772    0.3306 H   0  0  0  0  0  0  0  0  0  0  0  0
   -6.1965   -3.9231    2.8135 H   0  0  0  0  0  0  0  0  0  0  0  0
   -6.2540   -4.1773    5.2077 H   0  0  0  0  0  0  0  0  0  0  0  0
   -2.2369   -5.4418    5.1803 H   0  0  0  0  0  0  0  0  0  0  0  0
   -2.1633   -5.1786    2.7852 H   0  0  0  0  0  0  0  0  0  0  0  0
   -3.9818   -4.1055    8.5819 H   0  0  0  0  0  0  0  0  0  0  0  0
   -2.8467   -3.5856    7.3337 H   0  0  0  0  0  0  0  0  0  0  0  0
   -4.5277   -2.9846    7.3318 H   0  0  0  0  0  0  0  0  0  0  0  0
    0.3723   -0.5906   -0.2268 H   0  0  0  0  0  0  0  0  0  0  0  0
    0.6550   -1.8439   -1.4149 H   0  0  0  0  0  0  0  0  0  0  0  0
   -1.4291    2.3602   -4.8826 H   0  0  0  0  0  0  0  0  0  0  0  0
   -0.3161    0.2861   -5.4718 H   0  0  0  0  0  0  0  0  0  0  0  0
    0.3638   -1.2575   -3.7504 H   0  0  0  0  0  0  0  0  0  0  0  0
   -1.3964    1.2369   -0.8319 H   0  0  0  0  0  0  0  0  0  0  0  0
   -1.9748    2.8247   -2.5636 H   0  0  0  0  0  0  0  0  0  0  0  0
  1  2  1  0  0  0  0
  2  3  2  0  0  0  0
  3  4  1  0  0  0  0
  4  5  2  0  0  0  0
  5  6  1  0  0  0  0
  1  6  2  0  0  0  0
  5  7  1  0  0  0  0
  7  8  1  0  0  0  0
  8  9  1  0  0  0  0
  9 10  2  0  0  0  0
 10 11  1  0  0  0  0
 11 12  2  0  0  0  0
 12 13  1  0  0  0  0
  4 13  1  0  0  0  0
  8 13  2  0  0  0  0
 14 15  2  0  0  0  0
 14 16  1  0  0  0  0
 11 14  1  0  0  0  0
 17 18  2  0  0  0  0
 18 19  1  0  0  0  0
 19 20  2  0  0  0  0
 20 21  1  0  0  0  0
 21 22  2  0  0  0  0
 17 22  1  0  0  0  0
 23 24  1  0  0  0  0
 20 23  1  0  0  0  0
  9 17  1  0  0  0  0
 25 26  1  0  0  0  0
 16 25  1  0  0  0  0
 27 28  1  0  0  0  0
 28 29  2  0  0  0  0
 30 31  1  0  0  0  0
 27 31  2  0  0  0  0
 29 26  1  0  0  0  0
 26 30  2  0  0  0  0
  1 32  1  0  0  0  0
  2 33  1  0  0  0  0
  3 34  1  0  0  0  0
  6 35  1  0  0  0  0
  7 36  1  0  0  0  0
 12 37  1  0  0  0  0
 16 38  1  0  0  0  0
 18 39  1  0  0  0  0
 19 40  1  0  0  0  0
 21 41  1  0  0  0  0
 22 42  1  0  0  0  0
 24 43  1  0  0  0  0
 24 44  1  0  0  0  0
 24 45  1  0  0  0  0
 25 46  1  0  0  0  0
 25 47  1  0  0  0  0
 27 48  1  0  0  0  0
 28 49  1  0  0  0  0
 29 50  1  0  0  0  0
 30 51  1  0  0  0  0
 31 52  1  0  0  0  0
M  END
>  <type>
systematic

$$$$
> 693_AKC_j.exppara.2022.108383
>674.sdf
  Mrv1816 10102220213D              58.56000

 35 37  0  0  1  0            999 V2000
    0.7557   -0.7805   -0.6125 C   0  0  0  0  0  0  0  0  0  0  0  0
    0.7913   -0.2119    0.7106 O   0  0  0  0  0  0  0  0  0  0  0  0
   -0.3412    0.4230    1.0629 C   0  0  0  0  0  0  0  0  0  0  0  0
   -1.2835   -0.2301    1.7729 C   0  0  0  0  0  0  0  0  0  0  0  0
   -2.4513    0.4223    2.1784 C   0  0  0  0  0  0  0  0  0  0  0  0
   -3.2837   -0.2493    2.8331 O   0  0  0  0  0  0  0  0  0  0  0  0
   -2.6680    1.7855    1.8563 C   0  0  0  0  0  0  0  0  0  0  0  0
   -1.7026    2.4190    1.1441 C   0  0  0  0  0  0  0  0  0  0  0  0
   -0.5345    1.7704    0.7435 C   0  0  0  0  0  0  0  0  0  0  0  0
    0.3399    2.4046    0.1063 O   0  0  0  0  0  0  0  0  0  0  0  0
   -3.8955    2.5074    2.2686 C   0  0  1  0  0  0  0  0  0  0  0  0
   -3.6221    3.7167    3.2247 C   0  0  1  0  0  0  0  0  0  0  0  0
   -4.7404    4.6939    3.3104 C   0  0  0  0  0  0  0  0  0  0  0  0
   -5.8701    4.5781    2.4579 C   0  0  0  0  0  0  0  0  0  0  0  0
   -6.9232    5.5100    2.5651 C   0  0  0  0  0  0  0  0  0  0  0  0
   -6.8585    6.5588    3.5018 C   0  0  0  0  0  0  0  0  0  0  0  0
   -5.7256    6.6921    4.3240 C   0  0  0  0  0  0  0  0  0  0  0  0
   -4.6730    5.7672    4.2261 C   0  0  0  0  0  0  0  0  0  0  0  0
   -7.8933    7.4281    3.5999 O   0  0  0  0  0  0  0  0  0  0  0  0
   -6.0003    3.5651    1.5310 O   0  0  0  0  0  0  0  0  0  0  0  0
   -4.7658    2.9772    1.0659 C   0  0  2  0  0  0  0  0  0  0  0  0
    0.5862   -0.0169   -1.3759 H   0  0  0  0  0  0  0  0  0  0  0  0
    1.7232   -1.2417   -0.8091 H   0  0  0  0  0  0  0  0  0  0  0  0
   -0.0114   -1.5544   -0.6937 H   0  0  0  0  0  0  0  0  0  0  0  0
   -1.1395   -1.1858    2.0131 H   0  0  0  0  0  0  0  0  0  0  0  0
   -1.8119    3.3739    0.8944 H   0  0  0  0  0  0  0  0  0  0  0  0
   -4.5480    1.8312    2.8311 H   0  0  0  0  0  0  0  0  0  0  0  0
   -3.4176    3.3243    4.2245 H   0  0  0  0  0  0  0  0  0  0  0  0
   -2.7399    4.2749    2.9053 H   0  0  0  0  0  0  0  0  0  0  0  0
   -7.7460    5.4231    1.9620 H   0  0  0  0  0  0  0  0  0  0  0  0
   -5.6651    7.4578    4.9967 H   0  0  0  0  0  0  0  0  0  0  0  0
   -3.8540    5.8805    4.8257 H   0  0  0  0  0  0  0  0  0  0  0  0
   -7.6550    8.0456    4.3247 H   0  0  0  0  0  0  0  0  0  0  0  0
   -5.0207    2.1226    0.4338 H   0  0  0  0  0  0  0  0  0  0  0  0
   -4.2288    3.7063    0.4528 H   0  0  0  0  0  0  0  0  0  0  0  0
  1  2  1  0  0  0  0
  2  3  1  0  0  0  0
  3  4  2  0  0  0  0
  4  5  1  0  0  0  0
  5  6  2  0  0  0  0
  5  7  1  0  0  0  0
  7  8  2  0  0  0  0
  8  9  1  0  0  0  0
  3  9  1  0  0  0  0
  9 10  2  0  0  0  0
 11  7  1  0  0  0  0
 11 12  1  0  0  0  0
 12 13  1  0  0  0  0
 13 14  2  0  0  0  0
 14 15  1  0  0  0  0
 15 16  2  0  0  0  0
 16 17  1  0  0  0  0
 17 18  2  0  0  0  0
 13 18  1  0  0  0  0
 16 19  1  0  0  0  0
 14 20  1  0  0  0  0
 20 21  1  0  0  0  0
 11 21  1  0  0  0  0
  1 22  1  0  0  0  0
  1 23  1  0  0  0  0
  1 24  1  0  0  0  0
  4 25  1  0  0  0  0
  8 26  1  0  0  0  0
 11 27  1  0  0  0  0
 12 28  1  0  0  0  0
 12 29  1  0  0  0  0
 15 30  1  0  0  0  0
 17 31  1  0  0  0  0
 18 32  1  0  0  0  0
 19 33  1  0  0  0  0
 21 34  1  0  0  0  0
 21 35  1  0  0  0  0
M  END
$$$$
> 694_AKC_fmc-2017-0120
>675.sdf
  Mrv1816 10102220253D              71.21000

 38 41  0  0  0  0            999 V2000
    7.3448    2.2729    1.0071 C   0  0  0  0  0  0  0  0  0  0  0  0
    4.7300    2.9309    0.2780 C   0  0  0  0  0  0  0  0  0  0  0  0
    5.6792    2.6879   -0.6593 N   0  0  0  0  0  0  0  0  0  0  0  0
    6.9658    2.3425   -0.3575 C   0  0  0  0  0  0  0  0  0  0  0  0
    5.0690    2.7850    1.5829 N   0  0  0  0  0  0  0  0  0  0  0  0
    4.2997    2.8941    2.6183 N   0  0  0  0  0  0  0  0  0  0  0  0
    5.0301    2.6883    3.7349 C   0  0  0  0  0  0  0  0  0  0  0  0
    6.3481    2.4527    3.3376 C   0  0  0  0  0  0  0  0  0  0  0  0
    6.3300    2.4937    1.9532 C   0  0  0  0  0  0  0  0  0  0  0  0
    4.4973    2.7155    5.0494 C   0  0  0  0  0  0  0  0  0  0  0  0
    3.1222    2.4451    5.2644 C   0  0  0  0  0  0  0  0  0  0  0  0
    2.5741    2.4714    6.5599 C   0  0  0  0  0  0  0  0  0  0  0  0
    3.3910    2.7748    7.6625 C   0  0  0  0  0  0  0  0  0  0  0  0
    4.7535    3.0592    7.4656 C   0  0  0  0  0  0  0  0  0  0  0  0
    5.3040    3.0226    6.1711 C   0  0  0  0  0  0  0  0  0  0  0  0
    7.8412    2.0459   -1.4373 C   0  0  0  0  0  0  0  0  0  0  0  0
    7.3228    1.4379   -2.6094 C   0  0  0  0  0  0  0  0  0  0  0  0
    8.1524    1.1422   -3.7040 C   0  0  0  0  0  0  0  0  0  0  0  0
    9.5225    1.4432   -3.6453 C   0  0  0  0  0  0  0  0  0  0  0  0
   10.0593    2.0411   -2.4920 C   0  0  0  0  0  0  0  0  0  0  0  0
    9.2278    2.3371   -1.3956 C   0  0  0  0  0  0  0  0  0  0  0  0
    3.4842    3.3136   -0.1172 O   0  0  0  0  0  0  0  0  0  0  0  0
    3.3861    4.7453   -0.2386 C   0  0  0  0  0  0  0  0  0  0  0  0
    8.2967    2.0458    1.3047 H   0  0  0  0  0  0  0  0  0  0  0  0
    7.1570    2.2664    3.9347 H   0  0  0  0  0  0  0  0  0  0  0  0
    2.5011    2.2183    4.4827 H   0  0  0  0  0  0  0  0  0  0  0  0
    1.5804    2.2706    6.7015 H   0  0  0  0  0  0  0  0  0  0  0  0
    2.9942    2.7905    8.6061 H   0  0  0  0  0  0  0  0  0  0  0  0
    5.3454    3.2953    8.2643 H   0  0  0  0  0  0  0  0  0  0  0  0
    6.2971    3.2363    6.0598 H   0  0  0  0  0  0  0  0  0  0  0  0
    6.3312    1.1934   -2.6797 H   0  0  0  0  0  0  0  0  0  0  0  0
    7.7568    0.7059   -4.5407 H   0  0  0  0  0  0  0  0  0  0  0  0
   10.1263    1.2228   -4.4394 H   0  0  0  0  0  0  0  0  0  0  0  0
   11.0566    2.2617   -2.4513 H   0  0  0  0  0  0  0  0  0  0  0  0
    9.6476    2.7770   -0.5741 H   0  0  0  0  0  0  0  0  0  0  0  0
    2.3902    4.9888   -0.6129 H   0  0  0  0  0  0  0  0  0  0  0  0
    3.5149    5.2324    0.7332 H   0  0  0  0  0  0  0  0  0  0  0  0
    4.1208    5.1470   -0.9451 H   0  0  0  0  0  0  0  0  0  0  0  0
  1  9  1  0  0  0  0
  5  2  1  0  0  0  0
  2  3  2  0  0  0  0
  3  4  1  0  0  0  0
  1  4  2  0  0  0  0
  5  6  1  0  0  0  0
  6  7  2  0  0  0  0
  7  8  1  0  0  0  0
  8  9  2  0  0  0  0
  5  9  1  0  0  0  0
 10 11  2  0  0  0  0
 11 12  1  0  0  0  0
 12 13  2  0  0  0  0
 13 14  1  0  0  0  0
 14 15  2  0  0  0  0
 10 15  1  0  0  0  0
  7 10  1  0  0  0  0
 16 17  2  0  0  0  0
 17 18  1  0  0  0  0
 18 19  2  0  0  0  0
 19 20  1  0  0  0  0
 20 21  2  0  0  0  0
 16 21  1  0  0  0  0
  4 16  1  0  0  0  0
 22 23  1  0  0  0  0
  2 22  1  0  0  0  0
  1 24  1  0  0  0  0
  8 25  1  0  0  0  0
 11 26  1  0  0  0  0
 12 27  1  0  0  0  0
 13 28  1  0  0  0  0
 14 29  1  0  0  0  0
 15 30  1  0  0  0  0
 17 31  1  0  0  0  0
 18 32  1  0  0  0  0
 19 33  1  0  0  0  0
 20 34  1  0  0  0  0
 21 35  1  0  0  0  0
 23 36  1  0  0  0  0
 23 37  1  0  0  0  0
 23 38  1  0  0  0  0
M  END
>  <type>
systematic

$$$$
> 695_AKC_j.cimid.2022.101797
>676.sdf
  Mrv1816 10102220313D              41.93000

 36 36  0  0  0  0            999 V2000
   -0.0513    1.9326    1.6989 C   0  0  0  0  0  0  0  0  0  0  0  0
   -0.2829    3.3083    1.5118 C   0  0  0  0  0  0  0  0  0  0  0  0
   -1.5989    3.8236    1.5011 C   0  0  0  0  0  0  0  0  0  0  0  0
   -2.6750    2.9253    1.6703 C   0  0  0  0  0  0  0  0  0  0  0  0
   -2.4425    1.5525    1.8570 C   0  0  0  0  0  0  0  0  0  0  0  0
   -1.1269    1.0312    1.8813 C   0  0  0  0  0  0  0  0  0  0  0  0
   -1.8537    5.2739    1.3358 C   0  0  0  0  0  0  0  0  0  0  0  0
   -0.8817   -0.4378    2.0574 C   0  0  2  0  0  0  0  0  0  0  0  0
   -1.4808   -1.2769    0.8817 C   0  0  1  0  0  0  0  0  0  0  0  0
   -1.3787   -0.9441    3.4413 C   0  0  0  0  0  0  0  0  0  0  0  0
   -1.0589   -0.8101   -0.4680 C   0  0  0  0  0  0  0  0  0  0  0  0
   -1.9597   -0.3546   -1.2120 O   0  0  0  0  0  0  0  0  0  0  0  0
    0.2789   -0.8636   -0.8624 C   0  0  0  0  0  0  0  0  0  0  0  0
    0.8468   -0.4062   -2.0050 C   0  0  0  0  0  0  0  0  0  0  0  0
    0.0890    0.2353   -3.0814 C   0  0  0  0  0  0  0  0  0  0  0  0
    2.2915   -0.5337   -2.2009 C   0  0  0  0  0  0  0  0  0  0  0  0
    0.9146    1.5941    1.6957 H   0  0  0  0  0  0  0  0  0  0  0  0
    0.5189    3.9313    1.3851 H   0  0  0  0  0  0  0  0  0  0  0  0
   -3.6402    3.2631    1.6602 H   0  0  0  0  0  0  0  0  0  0  0  0
   -3.2479    0.9342    1.9710 H   0  0  0  0  0  0  0  0  0  0  0  0
   -1.8760    5.7483    2.3175 H   0  0  0  0  0  0  0  0  0  0  0  0
   -2.8111    5.4514    0.8420 H   0  0  0  0  0  0  0  0  0  0  0  0
   -1.0770    5.7489    0.7342 H   0  0  0  0  0  0  0  0  0  0  0  0
    0.1968   -0.6267    2.0599 H   0  0  0  0  0  0  0  0  0  0  0  0
   -1.1783   -2.3217    0.9884 H   0  0  0  0  0  0  0  0  0  0  0  0
   -2.5719   -1.2608    0.9512 H   0  0  0  0  0  0  0  0  0  0  0  0
   -1.1316   -2.0003    3.5716 H   0  0  0  0  0  0  0  0  0  0  0  0
   -2.4597   -0.8330    3.5430 H   0  0  0  0  0  0  0  0  0  0  0  0
   -0.8947   -0.3830    4.2439 H   0  0  0  0  0  0  0  0  0  0  0  0
    0.8869   -1.2937   -0.2037 H   0  0  0  0  0  0  0  0  0  0  0  0
    0.7180    0.5154   -3.9314 H   0  0  0  0  0  0  0  0  0  0  0  0
   -0.3856    1.1479   -2.7130 H   0  0  0  0  0  0  0  0  0  0  0  0
   -0.6765   -0.4457   -3.4610 H   0  0  0  0  0  0  0  0  0  0  0  0
    2.4855   -1.1567   -3.0766 H   0  0  0  0  0  0  0  0  0  0  0  0
    2.8114   -0.9823   -1.3503 H   0  0  0  0  0  0  0  0  0  0  0  0
    2.7228    0.4568   -2.3631 H   0  0  0  0  0  0  0  0  0  0  0  0
  1  2  1  0  0  0  0
  2  3  2  0  0  0  0
  3  4  1  0  0  0  0
  4  5  2  0  0  0  0
  5  6  1  0  0  0  0
  1  6  2  0  0  0  0
  3  7  1  0  0  0  0
  6  8  1  0  0  0  0
  8  9  1  0  0  0  0
  8 10  1  0  0  0  0
  9 11  1  0  0  0  0
 11 12  2  0  0  0  0
 11 13  1  0  0  0  0
 13 14  2  0  0  0  0
 14 15  1  0  0  0  0
 14 16  1  0  0  0  0
  1 17  1  0  0  0  0
  2 18  1  0  0  0  0
  4 19  1  0  0  0  0
  5 20  1  0  0  0  0
  7 21  1  0  0  0  0
  7 22  1  0  0  0  0
  7 23  1  0  0  0  0
  8 24  1  0  0  0  0
  9 25  1  0  0  0  0
  9 26  1  0  0  0  0
 10 27  1  0  0  0  0
 10 28  1  0  0  0  0
 10 29  1  0  0  0  0
 13 30  1  0  0  0  0
 15 31  1  0  0  0  0
 15 32  1  0  0  0  0
 15 33  1  0  0  0  0
 16 34  1  0  0  0  0
 16 35  1  0  0  0  0
 16 36  1  0  0  0  0
M  END
>  <type>
systematic

$$$$
> 696_AKC_BRIAC132.135
>677.sdf
  Mrv1816 10112207353D             122.72000

 63 66  0  0  0  0            999 V2000
    2.0548    1.4625   -2.0937 C   0  0  0  0  0  0  0  0  0  0  0  0
    1.8461    2.3938   -1.0584 C   0  0  0  0  0  0  0  0  0  0  0  0
    1.1200    3.6010   -1.3744 C   0  0  0  0  0  0  0  0  0  0  0  0
    0.6083    3.8589   -2.7018 C   0  0  0  0  0  0  0  0  0  0  0  0
    0.8752    2.8939   -3.6933 C   0  0  0  0  0  0  0  0  0  0  0  0
    1.5937    1.7324   -3.3972 C   0  0  0  0  0  0  0  0  0  0  0  0
    0.5789    2.8774   -5.0157 N   0  0  0  0  0  0  0  0  0  0  0  0
    1.1457    1.7508   -5.5083 C   0  0  0  0  0  0  0  0  0  0  0  0
    1.7551    1.0362   -4.5393 N   0  3  0  0  0  0  0  0  0  0  0  0
   -0.0959    3.8856   -5.8066 C   0  0  1  0  0  0  0  0  0  0  0  0
   -1.5415    4.1760   -5.4393 C   0  0  0  0  0  0  0  0  0  0  0  0
   -2.5525    3.1914   -5.7362 C   0  0  0  0  0  0  0  0  0  0  0  0
   -1.9428    5.4183   -4.8250 C   0  0  0  0  0  0  0  0  0  0  0  0
   -3.2613    5.5431   -4.2905 C   0  0  0  0  0  0  0  0  0  0  0  0
   -4.2088    4.5423   -4.5570 C   0  0  0  0  0  0  0  0  0  0  0  0
   -3.9047    3.4108   -5.3321 C   0  0  0  0  0  0  0  0  0  0  0  0
   -2.2059    1.9458   -6.4999 C   0  0  0  0  0  0  0  0  0  0  0  0
   -5.0457    2.5144   -5.6926 C   0  0  0  0  0  0  0  0  0  0  0  0
   -1.0734    6.6406   -4.7066 C   0  0  0  0  0  0  0  0  0  0  0  0
   -3.7161    6.7108   -3.4720 C   0  0  0  0  0  0  0  0  0  0  0  0
    2.4692   -0.1977   -4.7277 C   0  0  1  0  0  0  0  0  0  0  0  0
    1.5700   -1.4390   -4.5056 C   0  0  1  0  0  0  0  0  0  0  0  0
    0.3777   -1.4845   -5.4165 N   0  3  2  0  0  0  0  0  0  0  0  0
   -1.6579   -2.6718   -7.2206 C   0  0  2  0  0  0  0  0  0  0  0  0
   -1.9850   -2.3115   -5.7516 C   0  0  2  0  0  0  0  0  0  0  0  0
   -0.7147   -2.3511   -4.8673 C   0  0  2  0  0  0  0  0  0  0  0  0
    0.7261   -1.8360   -6.8353 C   0  0  1  0  0  0  0  0  0  0  0  0
   -0.5088   -1.7920   -7.7689 C   0  0  2  0  0  0  0  0  0  0  0  0
    2.5568    0.5956   -1.8926 H   0  0  0  0  0  0  0  0  0  0  0  0
    2.2589    2.1153   -0.1069 H   0  0  0  0  0  0  0  0  0  0  0  0
    0.9663    4.2901   -0.6371 H   0  0  0  0  0  0  0  0  0  0  0  0
    0.0553    4.7117   -3.0213 H   0  0  0  0  0  0  0  0  0  0  0  0
    1.1284    1.4751   -6.4941 H   0  0  0  0  0  0  0  0  0  0  0  0
    0.5586    4.7437   -5.7393 H   0  0  0  0  0  0  0  0  0  0  0  0
   -0.0593    3.6321   -6.8699 H   0  0  0  0  0  0  0  0  0  0  0  0
   -5.1610    4.6562   -4.1984 H   0  0  0  0  0  0  0  0  0  0  0  0
   -1.4885    1.3518   -5.9384 H   0  0  0  0  0  0  0  0  0  0  0  0
   -3.0440    1.2831   -6.7037 H   0  0  0  0  0  0  0  0  0  0  0  0
   -1.7872    2.2117   -7.4718 H   0  0  0  0  0  0  0  0  0  0  0  0
   -4.8928    1.5158   -5.2785 H   0  0  0  0  0  0  0  0  0  0  0  0
   -5.1287    2.4500   -6.7802 H   0  0  0  0  0  0  0  0  0  0  0  0
   -6.0105    2.8738   -5.3241 H   0  0  0  0  0  0  0  0  0  0  0  0
   -1.6081    7.5056   -5.1023 H   0  0  0  0  0  0  0  0  0  0  0  0
   -0.1474    6.6199   -5.2629 H   0  0  0  0  0  0  0  0  0  0  0  0
   -0.8247    6.8355   -3.6617 H   0  0  0  0  0  0  0  0  0  0  0  0
   -3.7679    7.6071   -4.0927 H   0  0  0  0  0  0  0  0  0  0  0  0
   -4.7038    6.5630   -3.0282 H   0  0  0  0  0  0  0  0  0  0  0  0
   -3.0220    6.8809   -2.6473 H   0  0  0  0  0  0  0  0  0  0  0  0
    2.9061   -0.2307   -5.7258 H   0  0  0  0  0  0  0  0  0  0  0  0
    3.3114   -0.2464   -4.0358 H   0  0  0  0  0  0  0  0  0  0  0  0
    2.1670   -2.3493   -4.6258 H   0  0  0  0  0  0  0  0  0  0  0  0
    1.2513   -1.4099   -3.4592 H   0  0  0  0  0  0  0  0  0  0  0  0
   -0.0090   -0.5379   -5.4415 H   0  0  0  0  0  0  0  0  0  0  0  0
   -2.5523   -2.5398   -7.8348 H   0  0  0  0  0  0  0  0  0  0  0  0
   -1.3631   -3.7234   -7.2760 H   0  0  0  0  0  0  0  0  0  0  0  0
   -2.7198   -3.0205   -5.3613 H   0  0  0  0  0  0  0  0  0  0  0  0
   -2.4218   -1.3085   -5.7077 H   0  0  0  0  0  0  0  0  0  0  0  0
   -1.0020   -1.9991   -3.8723 H   0  0  0  0  0  0  0  0  0  0  0  0
   -0.3700   -3.3856   -4.7691 H   0  0  0  0  0  0  0  0  0  0  0  0
    1.4471   -1.1247   -7.2412 H   0  0  0  0  0  0  0  0  0  0  0  0
    1.1817   -2.8303   -6.8869 H   0  0  0  0  0  0  0  0  0  0  0  0
   -0.8519   -0.7574   -7.8657 H   0  0  0  0  0  0  0  0  0  0  0  0
   -0.2248   -2.1471   -8.7631 H   0  0  0  0  0  0  0  0  0  0  0  0
  1  2  2  0  0  0  0
  2  3  1  0  0  0  0
  3  4  2  0  0  0  0
  4  5  1  0  0  0  0
  5  6  2  0  0  0  0
  1  6  1  0  0  0  0
  7  8  1  0  0  0  0
  8  9  2  0  0  0  0
  5  7  1  0  0  0  0
  6  9  1  0  0  0  0
  7 10  1  0  0  0  0
 10 11  1  0  0  0  0
 13 14  1  0  0  0  0
 14 15  2  0  0  0  0
 15 16  1  0  0  0  0
 12 16  2  0  0  0  0
 12 11  1  0  0  0  0
 11 13  2  0  0  0  0
 12 17  1  0  0  0  0
 16 18  1  0  0  0  0
 13 19  1  0  0  0  0
 14 20  1  0  0  0  0
  9 21  1  0  0  0  0
 21 22  1  0  0  0  0
 22 23  1  0  0  0  0
 24 25  1  0  0  0  0
 25 26  1  0  0  0  0
 27 28  1  0  0  0  0
 24 28  1  0  0  0  0
 26 23  1  0  0  0  0
 23 27  1  0  0  0  0
  1 29  1  0  0  0  0
  2 30  1  0  0  0  0
  3 31  1  0  0  0  0
  4 32  1  0  0  0  0
  8 33  1  0  0  0  0
 10 34  1  0  0  0  0
 10 35  1  0  0  0  0
 15 36  1  0  0  0  0
 17 37  1  0  0  0  0
 17 38  1  0  0  0  0
 17 39  1  0  0  0  0
 18 40  1  0  0  0  0
 18 41  1  0  0  0  0
 18 42  1  0  0  0  0
 19 43  1  0  0  0  0
 19 44  1  0  0  0  0
 19 45  1  0  0  0  0
 20 46  1  0  0  0  0
 20 47  1  0  0  0  0
 20 48  1  0  0  0  0
 21 49  1  0  0  0  0
 21 50  1  0  0  0  0
 22 51  1  0  0  0  0
 22 52  1  0  0  0  0
 23 53  1  0  0  0  0
 24 54  1  0  0  0  0
 24 55  1  0  0  0  0
 25 56  1  0  0  0  0
 25 57  1  0  0  0  0
 26 58  1  0  0  0  0
 26 59  1  0  0  0  0
 27 60  1  0  0  0  0
 27 61  1  0  0  0  0
 28 62  1  0  0  0  0
 28 63  1  0  0  0  0
M  CHG  2   9   1  23   1
M  END
>  <type>
systematic

$$$$
> 697_AKC_s00436-022-07532-5
>678.sdf
 OpenBabel10112207403D

 73 77  0  0  1  0  0  0  0  0999 V2000
    3.3960    0.1349    2.4561 O   0  0  0  0  0  0  0  0  0  0  0  0
    4.8691    1.8107    5.3793 O   0  0  0  0  0  0  0  0  0  0  0  0
    5.5238    3.9951    5.9962 O   0  0  0  0  0  0  0  0  0  0  0  0
    6.6360    0.1003    4.2377 O   0  0  0  0  0  0  0  0  0  0  0  0
    7.1863   -1.5275    1.9556 O   0  0  0  0  0  0  0  0  0  0  0  0
    2.6550   -1.1713    0.7078 O   0  0  0  0  0  0  0  0  0  0  0  0
    4.9490   -2.6700    0.6642 O   0  0  0  0  0  0  0  0  0  0  0  0
    3.3047    3.8506    7.9777 O   0  0  0  0  0  0  0  0  0  0  0  0
    4.6586    2.2082    9.7194 O   0  0  0  0  0  0  0  0  0  0  0  0
    7.2252    3.3978    9.2360 O   0  0  0  0  0  0  0  0  0  0  0  0
   -0.4695   -1.7263   -0.9863 O   0  0  0  0  0  0  0  0  0  0  0  0
    0.7692   -1.1069    2.7372 O   0  0  0  0  0  0  0  0  0  0  0  0
   -1.6599   -1.3183    3.6287 O   0  0  0  0  0  0  0  0  0  0  0  0
   -4.9669   -2.2516    0.3175 O   0  0  0  0  0  0  0  0  0  0  0  0
    4.9466   -0.2964   -3.2148 O   0  0  0  0  0  0  0  0  0  0  0  0
    3.9981   -1.7318   -5.5064 O   0  0  0  0  0  0  0  0  0  0  0  0
    4.2716    0.2217    3.5846 C   0  0  1  0  0  0  0  0  0  0  0  0
    5.7489    0.0061    3.1518 C   0  0  2  0  0  0  0  0  0  0  0  0
    5.8889   -1.3615    2.4669 C   0  0  1  0  0  0  0  0  0  0  0  0
    4.8817   -1.4281    1.3225 C   0  0  2  0  0  0  0  0  0  0  0  0
    3.9786    2.7198    7.4795 C   0  0  1  0  0  0  0  0  0  0  0  0
    4.4873    3.0130    6.0490 C   0  0  2  0  0  0  0  0  0  0  0  0
    5.1458    2.3829    8.4135 C   0  0  1  0  0  0  0  0  0  0  0  0
    6.1384    3.5594    8.3557 C   0  0  2  0  0  0  0  0  0  0  0  0
    3.4538   -1.1449    1.8372 C   0  0  1  0  0  0  0  0  0  0  0  0
    4.0708    1.6124    4.2174 C   0  0  0  0  0  0  0  0  0  0  0  0
    6.6111    3.7916    6.8999 C   0  0  1  0  0  0  0  0  0  0  0  0
    7.5963    2.7335    6.3773 C   0  0  0  0  0  0  0  0  0  0  0  0
    1.3123   -1.2904    0.5258 C   0  0  0  0  0  0  0  0  0  0  0  0
    0.8270   -1.4987   -0.7934 C   0  0  0  0  0  0  0  0  0  0  0  0
    0.3869   -1.2873    1.5951 C   0  0  0  0  0  0  0  0  0  0  0  0
   -0.9855   -1.5113    1.3243 C   0  0  0  0  0  0  0  0  0  0  0  0
    1.7088   -1.5222   -2.0108 C   0  0  0  0  0  0  0  0  0  0  0  0
   -1.3685   -1.7395   -0.0146 C   0  0  0  0  0  0  0  0  0  0  0  0
   -1.9823   -1.5318    2.3354 C   0  0  0  0  0  0  0  0  0  0  0  0
   -2.7062   -1.9858   -0.3395 C   0  0  0  0  0  0  0  0  0  0  0  0
    2.9692   -0.8846   -2.0698 C   0  0  0  0  0  0  0  0  0  0  0  0
    1.2499   -2.1935   -3.1589 C   0  0  0  0  0  0  0  0  0  0  0  0
   -3.3230   -1.7802    1.9879 C   0  0  0  0  0  0  0  0  0  0  0  0
   -3.6830   -2.0084    0.6544 C   0  0  0  0  0  0  0  0  0  0  0  0
    3.7547   -0.9353   -3.2276 C   0  0  0  0  0  0  0  0  0  0  0  0
    2.0318   -2.2560   -4.3129 C   0  0  0  0  0  0  0  0  0  0  0  0
    3.2833   -1.6378   -4.3628 C   0  0  0  0  0  0  0  0  0  0  0  0
    3.9811   -0.5392    4.3461 H   0  0  0  0  0  0  0  0  0  0  0  0
    6.0172    0.7986    2.4174 H   0  0  0  0  0  0  0  0  0  0  0  0
    5.6470   -2.1797    3.1878 H   0  0  0  0  0  0  0  0  0  0  0  0
    5.1406   -0.6377    0.5814 H   0  0  0  0  0  0  0  0  0  0  0  0
    3.2722    1.8559    7.4607 H   0  0  0  0  0  0  0  0  0  0  0  0
    3.6093    3.4941    5.5534 H   0  0  0  0  0  0  0  0  0  0  0  0
    5.6258    1.4397    8.0648 H   0  0  0  0  0  0  0  0  0  0  0  0
    5.5975    4.4746    8.6853 H   0  0  0  0  0  0  0  0  0  0  0  0
    3.1388   -1.9492    2.5410 H   0  0  0  0  0  0  0  0  0  0  0  0
    4.3183    2.3885    3.4580 H   0  0  0  0  0  0  0  0  0  0  0  0
    2.9879    1.6687    4.4781 H   0  0  0  0  0  0  0  0  0  0  0  0
    7.1881    4.7428    6.9190 H   0  0  0  0  0  0  0  0  0  0  0  0
    7.9283    3.0063    5.3539 H   0  0  0  0  0  0  0  0  0  0  0  0
    7.1527    1.7213    6.3543 H   0  0  0  0  0  0  0  0  0  0  0  0
    8.4997    2.6988    7.0231 H   0  0  0  0  0  0  0  0  0  0  0  0
    6.3948   -0.6124    4.8858 H   0  0  0  0  0  0  0  0  0  0  0  0
    7.7454   -1.8828    2.6943 H   0  0  0  0  0  0  0  0  0  0  0  0
    4.6461   -3.3680    1.3024 H   0  0  0  0  0  0  0  0  0  0  0  0
    2.3746    3.8096    7.6321 H   0  0  0  0  0  0  0  0  0  0  0  0
    5.3696    1.7452   10.2345 H   0  0  0  0  0  0  0  0  0  0  0  0
    7.5540    2.4653    9.1594 H   0  0  0  0  0  0  0  0  0  0  0  0
   -2.9857   -2.1624   -1.3715 H   0  0  0  0  0  0  0  0  0  0  0  0
    3.3551   -0.3150   -1.2437 H   0  0  0  0  0  0  0  0  0  0  0  0
    0.2875   -2.6902   -3.1585 H   0  0  0  0  0  0  0  0  0  0  0  0
   -4.0854   -1.7983    2.7574 H   0  0  0  0  0  0  0  0  0  0  0  0
    1.6618   -2.7922   -5.1779 H   0  0  0  0  0  0  0  0  0  0  0  0
   -2.3281   -1.3280    4.3293 H   0  0  0  0  0  0  0  0  0  0  0  0
   -5.6727   -2.2789    0.9791 H   0  0  0  0  0  0  0  0  0  0  0  0
    5.5541   -0.2631   -3.9626 H   0  0  0  0  0  0  0  0  0  0  0  0
    4.8722   -1.3445   -5.6329 H   0  0  0  0  0  0  0  0  0  0  0  0
  1 17  1  0  0  0  0
  1 25  1  0  0  0  0
  2 22  1  0  0  0  0
  2 26  1  0  0  0  0
  3 22  1  0  0  0  0
  3 27  1  0  0  0  0
  4 18  1  0  0  0  0
  4 59  1  0  0  0  0
  5 19  1  0  0  0  0
  5 60  1  0  0  0  0
  6 25  1  0  0  0  0
  6 29  1  0  0  0  0
  7 20  1  0  0  0  0
  7 61  1  0  0  0  0
  8 21  1  0  0  0  0
  8 62  1  0  0  0  0
  9 23  1  0  0  0  0
  9 63  1  0  0  0  0
 10 24  1  0  0  0  0
 10 64  1  0  0  0  0
 11 30  1  0  0  0  0
 11 34  1  0  0  0  0
 12 31  2  0  0  0  0
 13 35  1  0  0  0  0
 13 70  1  0  0  0  0
 14 40  1  0  0  0  0
 14 71  1  0  0  0  0
 15 41  1  0  0  0  0
 15 72  1  0  0  0  0
 16 43  1  0  0  0  0
 16 73  1  0  0  0  0
 17 18  1  0  0  0  0
 17 26  1  0  0  0  0
 17 44  1  1  0  0  0
 18 19  1  0  0  0  0
 18 45  1  6  0  0  0
 19 20  1  0  0  0  0
 19 46  1  1  0  0  0
 20 25  1  0  0  0  0
 20 47  1  6  0  0  0
 21 22  1  0  0  0  0
 21 23  1  0  0  0  0
 21 48  1  6  0  0  0
 22 49  1  6  0  0  0
 23 24  1  0  0  0  0
 23 50  1  6  0  0  0
 24 27  1  0  0  0  0
 24 51  1  1  0  0  0
 25 52  1  1  0  0  0
 26 53  1  0  0  0  0
 26 54  1  0  0  0  0
 27 28  1  0  0  0  0
 27 55  1  1  0  0  0
 28 56  1  0  0  0  0
 28 57  1  0  0  0  0
 28 58  1  0  0  0  0
 29 30  2  0  0  0  0
 29 31  1  0  0  0  0
 30 33  1  0  0  0  0
 31 32  1  0  0  0  0
 32 34  1  0  0  0  0
 32 35  2  0  0  0  0
 33 37  2  0  0  0  0
 33 38  1  0  0  0  0
 34 36  2  0  0  0  0
 35 39  1  0  0  0  0
 36 40  1  0  0  0  0
 36 65  1  0  0  0  0
 37 41  1  0  0  0  0
 37 66  1  0  0  0  0
 38 42  2  0  0  0  0
 38 67  1  0  0  0  0
 39 40  2  0  0  0  0
 39 68  1  0  0  0  0
 41 43  2  0  0  0  0
 42 43  1  0  0  0  0
 42 69  1  0  0  0  0
M  END
>  <MOL Chiral Flag>
1

>  <PUBCHEM_COMPOUND_CID>
5280805

>  <PUBCHEM_CONFORMER_RMSD>
1

>  <PUBCHEM_CONFORMER_DIVERSEORDER>
2
131
304
489
214
100
361
262
187
266
175
227
155
104
438
41
480
336
281
477
416
321
305
347
241
149
211
389
82
464
393
111
470
206
362
424
326
327
340
418
348
456
222
465
335
441
398
7
3
351
487
112
368
48
146
466
283
315
383
447
385
433
314
115
188
400
274
95
33
437
479
26
404
473
427
14
145
271
237
449
178
332
346
275
350
379
43
325
371
282
425
380
245
455
192
109
414
320
323
4
312
343
162
290
277
317
15
483
413
128
364
226
247
298
419
74
334
458
460
260
401
47
486
161
342
1
110
378
344
318
355
461
357
204
93
57
265
235
101
299
432
5
469
388
123
140
148
242
345
215
257
278
203
122
478
205
89
157
373
150
309
164
273
359
94
221
249
297
370
440
207
97
73
243
375
55
189
269
251
68
78
67
303
300
444
294
99
360
382
285
61
253
92
165
296
258
431
45
229
21
386
44
256
369
154
468
208
34
224
352
196
459
174
202
267
139
384
381
201
20
390
87
142
126
216
231
445
270
163
58
454
80
363
410
46
301
66
197
472
319
27
436
374
50
324
366
293
276
17
12
184
485
435
415
81
76
474
307
177
354
28
107
261
212
302
286
181
287
353
63
18
244
53
367
135
125
84
411
102
488
288
417
42
313
339
228
259
166
402
171
219
333
36
170
119
108
268
51
137
239
182
218
356
310
186
79
316
341
233
209
467
72
403
236
106
405
331
6
116
391
113
422
217
35
8
91
387
156
279
311
117
255
133
322
59
289
194
172
392
428
118
56
330
225
32
114
70
358
144
250
52
130
134
105
49
179
439
37
490
85
29
263
434
38
280
210
248
120
158
62
193
190
442
396
13
183
9
11
160
471
394
406
349
138
124
448
408
450
429
129
232
191
291
463
103
90
199
264
121
284
475
407
83
64
292
54
69
141
399
65
136
31
98
86
40
75
397
238
19
39
223
77
143
338
337
240
443
484
376
127
423
10
453
426
96
395
272
430
24
412
230
482
168
88
246
481
409
195
220
132
198
377
185
372
176
452
153
22
252
254
147
173
200
152
462
328
30
308
476
23
25
16
295
169
446
234
159
213
421
71
306
451
420
151
60
180
329
457
365
167

>  <PUBCHEM_MMFF94_PARTIAL_CHARGES>
57
1 -0.56
10 -0.68
11 -0.16
12 -0.57
13 -0.53
14 -0.53
15 -0.53
16 -0.53
17 0.28
18 0.28
19 0.28
2 -0.56
20 0.28
21 0.28
22 0.56
23 0.28
24 0.28
25 0.56
26 0.28
27 0.28
29 0.09
3 -0.56
30 0.05
31 0.47
32 0.09
33 0.03
34 0.08
35 0.08
36 -0.15
37 -0.15
38 -0.15
39 -0.15
4 -0.68
40 0.08
41 0.08
42 -0.15
43 0.08
5 -0.68
59 0.4
6 -0.36
60 0.4
61 0.4
62 0.4
63 0.4
64 0.4
65 0.15
66 0.15
67 0.15
68 0.15
69 0.15
7 -0.68
70 0.45
71 0.45
72 0.45
73 0.45
8 -0.68
9 -0.68

>  <PUBCHEM_EFFECTIVE_ROTOR_COUNT>
8.4

>  <PUBCHEM_PHARMACOPHORE_FEATURES>
27
1 1 acceptor
1 10 acceptor
1 10 donor
1 11 acceptor
1 12 acceptor
1 13 donor
1 14 donor
1 15 donor
1 16 donor
1 2 acceptor
1 3 acceptor
1 4 acceptor
1 4 donor
1 5 acceptor
1 5 donor
1 6 acceptor
1 7 acceptor
1 7 donor
1 8 acceptor
1 8 donor
1 9 acceptor
1 9 donor
6 1 17 18 19 20 25 rings
6 11 29 30 31 32 34 rings
6 3 21 22 23 24 27 rings
6 32 34 35 36 39 40 rings
6 33 37 38 41 42 43 rings

>  <PUBCHEM_HEAVY_ATOM_COUNT>
43

>  <PUBCHEM_ATOM_DEF_STEREO_COUNT>
10

>  <PUBCHEM_ATOM_UDEF_STEREO_COUNT>
0

>  <PUBCHEM_BOND_DEF_STEREO_COUNT>
0

>  <PUBCHEM_BOND_UDEF_STEREO_COUNT>
0

>  <PUBCHEM_ISOTOPIC_ATOM_COUNT>
0

>  <PUBCHEM_COMPONENT_COUNT>
1

>  <PUBCHEM_CACTVS_TAUTO_COUNT>
162

>  <PUBCHEM_CONFORMER_ID>
0050942500000002

>  <PUBCHEM_MMFF94_ENERGY>
136.1966

>  <PUBCHEM_FEATURE_SELFOVERLAP>
137.204

>  <PUBCHEM_SHAPE_FINGERPRINT>
10032420 55 16618722691837029128
11578080 2 17702109058163013238
11763715 3 18261095383836030923
12128747 34 17830706804582719010
12156800 1 18264493892630091420
12539773 59 16541837734788209111
14114207 22 16917072187542919862
15276724 80 18195220408896355960
16114785 44 17475453695688661424
18603816 31 14404615602411670896
20764821 26 18041559114480362497
25223398 141 17178842541083293593
25265897 201 16407044163570150168
3493558 16 16975116350754414899
35225 105 17325147011154151441
469060 322 17471915372670447110
46939830 39 16734080423712847612
57527358 35 16309142101817992987

>  <PUBCHEM_SHAPE_MULTIPOLES>
791.01
7.43
5.65
4.99
6.28
5.02
0.53
-4.78
-2.04
-1.61
4.22
-5.55
-0.17
4.43

>  <PUBCHEM_SHAPE_SELFOVERLAP>
1727.285

>  <PUBCHEM_SHAPE_VOLUME>
423.3

>  <PUBCHEM_COORDINATE_TYPE>
2
5
10

$$$$
> 698_AKC_acsomega.2c00467
>679.sdf
  Mrv1816 10112207423D              36.19000

 24 24  0  0  0  0            999 V2000
    2.0584    0.5105   -0.7902 C   0  0  0  0  0  0  0  0  0  0  0  0
    1.1344   -0.6389   -1.2762 C   0  0  1  0  0  0  0  0  0  0  0  0
    1.8950   -1.9985   -1.2965 C   0  0  0  0  0  0  0  0  0  0  0  0
   -0.1441   -0.6243   -0.5254 C   0  0  0  0  0  0  0  0  0  0  0  0
   -0.3030   -1.3066    0.6365 C   0  0  0  0  0  0  0  0  0  0  0  0
   -1.5044   -1.2821    1.3487 C   0  0  0  0  0  0  0  0  0  0  0  0
   -1.5764   -1.9588    2.4028 O   0  0  0  0  0  0  0  0  0  0  0  0
   -2.5912   -0.5167    0.8839 C   0  0  0  0  0  0  0  0  0  0  0  0
   -3.8536   -0.4659    1.6204 C   0  0  0  0  0  0  0  0  0  0  0  0
   -2.4343    0.1889   -0.2597 C   0  0  0  0  0  0  0  0  0  0  0  0
   -1.2362    0.1543   -0.9752 C   0  0  0  0  0  0  0  0  0  0  0  0
   -1.1622    0.8592   -2.0095 O   0  0  0  0  0  0  0  0  0  0  0  0
    2.3085    0.3854    0.2659 H   0  0  0  0  0  0  0  0  0  0  0  0
    2.9849    0.5249   -1.3689 H   0  0  0  0  0  0  0  0  0  0  0  0
    1.5635    1.4756   -0.9230 H   0  0  0  0  0  0  0  0  0  0  0  0
    0.9256   -0.4394   -2.3332 H   0  0  0  0  0  0  0  0  0  0  0  0
    1.2186   -2.8096   -1.5735 H   0  0  0  0  0  0  0  0  0  0  0  0
    2.7043   -1.9642   -2.0293 H   0  0  0  0  0  0  0  0  0  0  0  0
    2.3342   -2.2225   -0.3225 H   0  0  0  0  0  0  0  0  0  0  0  0
    0.4461   -1.8434    1.0086 H   0  0  0  0  0  0  0  0  0  0  0  0
   -4.6971   -0.2438    0.9632 H   0  0  0  0  0  0  0  0  0  0  0  0
   -4.0760   -1.4183    2.1070 H   0  0  0  0  0  0  0  0  0  0  0  0
   -3.7999    0.3091    2.3871 H   0  0  0  0  0  0  0  0  0  0  0  0
   -3.1801    0.7517   -0.6048 H   0  0  0  0  0  0  0  0  0  0  0  0
  1  2  1  0  0  0  0
  2  3  1  0  0  0  0
  2  4  1  0  0  0  0
  4  5  2  0  0  0  0
  5  6  1  0  0  0  0
  6  7  2  0  0  0  0
  6  8  1  0  0  0  0
  8  9  1  0  0  0  0
  8 10  2  0  0  0  0
 10 11  1  0  0  0  0
  4 11  1  0  0  0  0
 11 12  2  0  0  0  0
  1 13  1  0  0  0  0
  1 14  1  0  0  0  0
  1 15  1  0  0  0  0
  2 16  1  0  0  0  0
  3 17  1  0  0  0  0
  3 18  1  0  0  0  0
  3 19  1  0  0  0  0
  5 20  1  0  0  0  0
  9 21  1  0  0  0  0
  9 22  1  0  0  0  0
  9 23  1  0  0  0  0
 10 24  1  0  0  0  0
M  END
>  <type>
common

$$$$
> 699_AKC_j.parint.2021.102458
>680.sdf
  Mrv1816 10112207453D             113.47000

 58 63  0  0  0  0            999 V2000
   -2.3141   -2.5092    2.1881 O   0  0  0  0  0  0  0  0  0  0  0  0
   -2.1012   -2.3129    0.8649 C   0  0  0  0  0  0  0  0  0  0  0  0
   -2.0421   -3.4106   -0.0139 C   0  0  0  0  0  0  0  0  0  0  0  0
   -1.8092   -3.2094   -1.3888 C   0  0  0  0  0  0  0  0  0  0  0  0
   -1.6552   -1.9018   -1.9042 C   0  0  0  0  0  0  0  0  0  0  0  0
   -1.7162   -0.8034   -1.0131 C   0  0  0  0  0  0  0  0  0  0  0  0
   -1.9357   -1.0091    0.3624 C   0  0  0  0  0  0  0  0  0  0  0  0
   -1.4628   -1.6945   -3.2912 C   0  0  0  0  0  0  0  0  0  0  0  0
   -2.3361   -0.8948   -4.0511 C   0  0  0  0  0  0  0  0  0  0  0  0
   -2.0931   -0.7108   -5.4258 C   0  0  0  0  0  0  0  0  0  0  0  0
   -2.9099   -0.0013   -6.0596 O   0  0  0  0  0  0  0  0  0  0  0  0
   -0.9698   -1.3045   -6.0573 C   0  0  0  0  0  0  0  0  0  0  0  0
   -0.6687   -1.1422   -7.4344 C   0  0  0  0  0  0  0  0  0  0  0  0
   -1.4458   -0.4078   -8.2688 O   0  0  0  0  0  0  0  0  0  0  0  0
    0.4711   -1.7518   -7.9876 C   0  0  0  0  0  0  0  0  0  0  0  0
    1.3306   -2.5228   -7.1862 C   0  0  0  0  0  0  0  0  0  0  0  0
    2.4296   -3.0603   -7.7761 O   0  0  0  0  0  0  0  0  0  0  0  0
    1.0578   -2.7033   -5.8077 C   0  0  0  0  0  0  0  0  0  0  0  0
   -0.1023   -2.1002   -5.2550 C   0  0  0  0  0  0  0  0  0  0  0  0
   -0.3996   -2.2704   -3.9267 O   0  0  0  0  0  0  0  0  0  0  0  0
    1.9427   -3.4690   -4.9975 C   0  0  0  0  0  0  0  0  0  0  0  0
    2.1669   -4.8327   -5.3007 C   0  0  0  0  0  0  0  0  0  0  0  0
    3.0521   -5.6201   -4.5290 C   0  0  0  0  0  0  0  0  0  0  0  0
    3.7222   -5.0300   -3.4365 C   0  0  0  0  0  0  0  0  0  0  0  0
    3.4936   -3.6804   -3.1142 C   0  0  0  0  0  0  0  0  0  0  0  0
    2.6148   -2.8985   -3.8878 C   0  0  0  0  0  0  0  0  0  0  0  0
    2.4471   -1.5959   -3.5461 O   0  0  0  0  0  0  0  0  0  0  0  0
    3.2476   -6.9844   -4.8374 C   0  0  0  0  0  0  0  0  0  0  0  0
    2.1696   -7.8891   -4.8736 C   0  0  0  0  0  0  0  0  0  0  0  0
    2.4052   -9.2415   -5.1861 C   0  0  0  0  0  0  0  0  0  0  0  0
    1.4155  -10.0103   -5.1897 O   0  0  0  0  0  0  0  0  0  0  0  0
    3.7114   -9.7056   -5.4816 C   0  0  0  0  0  0  0  0  0  0  0  0
    4.0210  -11.0519   -5.8134 C   0  0  0  0  0  0  0  0  0  0  0  0
    3.0746  -12.0215   -5.8643 O   0  0  0  0  0  0  0  0  0  0  0  0
    5.3488  -11.4240   -6.1050 C   0  0  0  0  0  0  0  0  0  0  0  0
    6.3791  -10.4666   -6.0769 C   0  0  0  0  0  0  0  0  0  0  0  0
    7.6508  -10.8295   -6.3686 O   0  0  0  0  0  0  0  0  0  0  0  0
    6.0863   -9.1325   -5.7443 C   0  0  0  0  0  0  0  0  0  0  0  0
    4.7661   -8.7514   -5.4424 C   0  0  0  0  0  0  0  0  0  0  0  0
    4.5023   -7.4494   -5.1149 O   0  0  0  0  0  0  0  0  0  0  0  0
   -3.2871   -2.4665    2.2908 H   0  0  0  0  0  0  0  0  0  0  0  0
   -2.1735   -4.3574    0.3458 H   0  0  0  0  0  0  0  0  0  0  0  0
   -1.7725   -4.0219   -2.0122 H   0  0  0  0  0  0  0  0  0  0  0  0
   -1.5966    0.1540   -1.3585 H   0  0  0  0  0  0  0  0  0  0  0  0
   -1.9762   -0.2082    0.9961 H   0  0  0  0  0  0  0  0  0  0  0  0
   -3.1472   -0.4543   -3.6047 H   0  0  0  0  0  0  0  0  0  0  0  0
   -2.1764   -1.0122   -8.5164 H   0  0  0  0  0  0  0  0  0  0  0  0
    0.6793   -1.6296   -8.9828 H   0  0  0  0  0  0  0  0  0  0  0  0
    2.1583   -3.9665   -8.0321 H   0  0  0  0  0  0  0  0  0  0  0  0
    1.6801   -5.2595   -6.0973 H   0  0  0  0  0  0  0  0  0  0  0  0
    4.3628   -5.5810   -2.8566 H   0  0  0  0  0  0  0  0  0  0  0  0
    3.9691   -3.2680   -2.3091 H   0  0  0  0  0  0  0  0  0  0  0  0
    3.0586   -1.1073   -4.1355 H   0  0  0  0  0  0  0  0  0  0  0  0
    1.2209   -7.5634   -4.6645 H   0  0  0  0  0  0  0  0  0  0  0  0
    2.9389  -12.2808   -4.9291 H   0  0  0  0  0  0  0  0  0  0  0  0
    5.5689  -12.3959   -6.3387 H   0  0  0  0  0  0  0  0  0  0  0  0
    8.0233  -11.1318   -5.5141 H   0  0  0  0  0  0  0  0  0  0  0  0
    6.8337   -8.4374   -5.7223 H   0  0  0  0  0  0  0  0  0  0  0  0
  1  2  1  0  0  0  0
  2  3  2  0  0  0  0
  3  4  1  0  0  0  0
  4  5  2  0  0  0  0
  5  6  1  0  0  0  0
  6  7  2  0  0  0  0
  2  7  1  0  0  0  0
  5  8  1  0  0  0  0
  8  9  2  0  0  0  0
  9 10  1  0  0  0  0
 10 11  2  0  0  0  0
 10 12  1  0  0  0  0
 12 13  2  0  0  0  0
 13 14  1  0  0  0  0
 13 15  1  0  0  0  0
 15 16  2  0  0  0  0
 16 17  1  0  0  0  0
 16 18  1  0  0  0  0
 18 19  2  0  0  0  0
 12 19  1  0  0  0  0
 19 20  1  0  0  0  0
  8 20  1  0  0  0  0
 18 21  1  0  0  0  0
 21 22  2  0  0  0  0
 22 23  1  0  0  0  0
 23 24  2  0  0  0  0
 24 25  1  0  0  0  0
 25 26  2  0  0  0  0
 21 26  1  0  0  0  0
 26 27  1  0  0  0  0
 23 28  1  0  0  0  0
 28 29  2  0  0  0  0
 29 30  1  0  0  0  0
 30 31  2  0  0  0  0
 30 32  1  0  0  0  0
 32 33  2  0  0  0  0
 33 34  1  0  0  0  0
 33 35  1  0  0  0  0
 35 36  2  0  0  0  0
 36 37  1  0  0  0  0
 36 38  1  0  0  0  0
 38 39  2  0  0  0  0
 32 39  1  0  0  0  0
 39 40  1  0  0  0  0
 28 40  1  0  0  0  0
  1 41  1  0  0  0  0
  3 42  1  0  0  0  0
  4 43  1  0  0  0  0
  6 44  1  0  0  0  0
  7 45  1  0  0  0  0
  9 46  1  0  0  0  0
 14 47  1  0  0  0  0
 15 48  1  0  0  0  0
 17 49  1  0  0  0  0
 22 50  1  0  0  0  0
 24 51  1  0  0  0  0
 25 52  1  0  0  0  0
 27 53  1  0  0  0  0
 29 54  1  0  0  0  0
 34 55  1  0  0  0  0
 35 56  1  0  0  0  0
 37 57  1  0  0  0  0
 38 58  1  0  0  0  0
M  END
>  <type>
common

$$$$
> 700_AKC_j.intimp.2022.108952
>681.sdf
  Mrv1816 10112207483D              96.00000

 23 22  0  0  0  0            999 V2000
    0.1140    1.1918    1.8083 C   0  0  2  0  0  0  0  0  0  0  0  0
    1.5794    1.3519    1.3281 C   0  0  2  0  0  0  0  0  0  0  0  0
    1.8952    0.3809    0.2743 N   0  3  0  0  0  0  0  0  0  0  0  0
   -0.4021    2.2233    2.8731 C   0  0  1  0  0  0  0  0  0  0  0  0
   -0.2570    3.5460    2.3599 O   0  0  0  0  0  0  0  0  0  0  0  0
   -2.0863    1.9729    3.1571 P   0  0  2  0  0  0  0  0  0  0  0  0
   -2.3580    0.6533    3.7423 O   0  0  0  0  0  0  0  0  0  0  0  0
   -2.8838    2.1040    1.7881 O   0  0  0  0  0  0  0  0  0  0  0  0
   -2.6659    3.1035    4.1108 O   0  5  0  0  0  0  0  0  0  0  0  0
    0.4641    2.1866    4.3649 P   0  0  2  0  0  0  0  0  0  0  0  0
    0.5202    0.8348    4.9389 O   0  0  0  0  0  0  0  0  0  0  0  0
   -0.2005    3.1790    5.4164 O   0  0  0  0  0  0  0  0  0  0  0  0
    1.9426    2.7300    4.1520 O   0  5  0  0  0  0  0  0  0  0  0  0
   -0.0025    0.1746    2.1955 H   0  0  0  0  0  0  0  0  0  0  0  0
   -0.5107    1.2722    0.9140 H   0  0  0  0  0  0  0  0  0  0  0  0
    2.2733    1.1725    2.1478 H   0  0  0  0  0  0  0  0  0  0  0  0
    1.7418    2.3575    0.9360 H   0  0  0  0  0  0  0  0  0  0  0  0
    1.7590   -0.5682    0.6299 H   0  0  0  0  0  0  0  0  0  0  0  0
    1.2825    0.5314   -0.5290 H   0  0  0  0  0  0  0  0  0  0  0  0
    2.8682    0.4936   -0.0190 H   0  0  0  0  0  0  0  0  0  0  0  0
   -0.7830    3.5666    1.5343 H   0  0  0  0  0  0  0  0  0  0  0  0
   -3.8255    2.0141    2.0421 H   0  0  0  0  0  0  0  0  0  0  0  0
    0.3816    3.1437    6.2039 H   0  0  0  0  0  0  0  0  0  0  0  0
  1  2  1  0  0  0  0
  2  3  1  0  0  0  0
  1  4  1  0  0  0  0
  4  5  1  0  0  0  0
  4  6  1  0  0  0  0
  6  7  2  0  0  0  0
  6  8  1  0  0  0  0
  6  9  1  0  0  0  0
  4 10  1  0  0  0  0
 10 11  2  0  0  0  0
 10 12  1  0  0  0  0
 10 13  1  0  0  0  0
  1 14  1  0  0  0  0
  1 15  1  0  0  0  0
  2 16  1  0  0  0  0
  2 17  1  0  0  0  0
  3 18  1  0  0  0  0
  3 19  1  0  0  0  0
  3 20  1  0  0  0  0
  5 21  1  0  0  0  0
  8 22  1  0  0  0  0
 12 23  1  0  0  0  0
M  CHG  3   3   1   9  -1  13  -1
M  END
$$$$
> 701_AKC_s41598-022-15449-3
>682.sdf
  Mrv1816 10112207533D              66.62000

 53 55  0  0  0  0            999 V2000
    3.0460   -4.7554    2.0903 C   0  0  0  0  0  0  0  0  0  0  0  0
    3.8312   -3.7563    1.4883 C   0  0  0  0  0  0  0  0  0  0  0  0
    3.4966   -2.3952    1.6375 C   0  0  0  0  0  0  0  0  0  0  0  0
    2.3472   -2.0492    2.3768 C   0  0  0  0  0  0  0  0  0  0  0  0
    1.5659   -3.0514    2.9857 C   0  0  0  0  0  0  0  0  0  0  0  0
    1.9059   -4.4195    2.8584 C   0  0  0  0  0  0  0  0  0  0  0  0
   -2.1759   -7.8516    1.4783 C   0  0  0  0  0  0  0  0  0  0  0  0
   -0.8976   -8.2659    1.9219 C   0  0  0  0  0  0  0  0  0  0  0  0
   -0.2665   -9.3433    1.2558 C   0  0  0  0  0  0  0  0  0  0  0  0
   -0.8922   -9.9808    0.1677 C   0  0  0  0  0  0  0  0  0  0  0  0
   -2.1591   -9.5524   -0.2653 C   0  0  0  0  0  0  0  0  0  0  0  0
   -2.8034   -8.4906    0.3926 C   0  0  0  0  0  0  0  0  0  0  0  0
    0.5025   -6.3904    2.5088 N   0  3  1  0  0  0  0  0  0  0  0  0
    1.1016   -5.4852    3.5176 C   0  0  1  0  0  0  0  0  0  0  0  0
   -0.2264   -7.5635    3.0447 C   0  0  1  0  0  0  0  0  0  0  0  0
    4.2817   -1.4448    1.0289 O   0  0  0  0  0  0  0  0  0  0  0  0
    5.1523   -0.6859    1.9011 C   0  0  1  0  0  0  0  0  0  0  0  0
    6.0908   -1.5210    2.7039 C   0  0  0  0  0  0  0  0  0  0  0  0
    6.1631   -1.3903    4.1074 C   0  0  0  0  0  0  0  0  0  0  0  0
    6.9829   -2.2430    4.8675 C   0  0  0  0  0  0  0  0  0  0  0  0
    7.7344   -3.2571    4.2409 C   0  0  0  0  0  0  0  0  0  0  0  0
    7.7051   -3.3742    2.8333 C   0  0  0  0  0  0  0  0  0  0  0  0
    6.8983   -2.4962    2.0766 C   0  0  0  0  0  0  0  0  0  0  0  0
    8.4991   -4.1068    4.9971 O   0  0  0  0  0  0  0  0  0  0  0  0
    8.4047   -4.3772    2.2139 O   0  0  0  0  0  0  0  0  0  0  0  0
    7.7642   -5.2457    5.4828 C   0  0  0  0  0  0  0  0  0  0  0  0
    9.6240   -3.9454    1.5860 C   0  0  0  0  0  0  0  0  0  0  0  0
    3.3152   -5.7329    1.9586 H   0  0  0  0  0  0  0  0  0  0  0  0
    4.6450   -4.0257    0.9334 H   0  0  0  0  0  0  0  0  0  0  0  0
    2.0781   -1.0672    2.4739 H   0  0  0  0  0  0  0  0  0  0  0  0
    0.7390   -2.7725    3.5198 H   0  0  0  0  0  0  0  0  0  0  0  0
   -2.6570   -7.0790    1.9444 H   0  0  0  0  0  0  0  0  0  0  0  0
    0.6559   -9.6667    1.5565 H   0  0  0  0  0  0  0  0  0  0  0  0
   -0.4251  -10.7540   -0.3105 H   0  0  0  0  0  0  0  0  0  0  0  0
   -2.6107  -10.0108   -1.0593 H   0  0  0  0  0  0  0  0  0  0  0  0
   -3.7263   -8.1823    0.0796 H   0  0  0  0  0  0  0  0  0  0  0  0
   -0.1402   -5.8384    1.9355 H   0  0  0  0  0  0  0  0  0  0  0  0
    1.2461   -6.7409    1.9005 H   0  0  0  0  0  0  0  0  0  0  0  0
    1.7488   -6.0478    4.1945 H   0  0  0  0  0  0  0  0  0  0  0  0
    0.2995   -5.0507    4.1207 H   0  0  0  0  0  0  0  0  0  0  0  0
   -0.9671   -7.2497    3.7861 H   0  0  0  0  0  0  0  0  0  0  0  0
    0.4767   -8.2344    3.5481 H   0  0  0  0  0  0  0  0  0  0  0  0
    5.7460   -0.0251    1.2672 H   0  0  0  0  0  0  0  0  0  0  0  0
    4.5426   -0.0368    2.5360 H   0  0  0  0  0  0  0  0  0  0  0  0
    5.6122   -0.6758    4.5858 H   0  0  0  0  0  0  0  0  0  0  0  0
    7.0148   -2.1359    5.8832 H   0  0  0  0  0  0  0  0  0  0  0  0
    6.8733   -2.5899    1.0587 H   0  0  0  0  0  0  0  0  0  0  0  0
    8.4531   -5.8816    6.0380 H   0  0  0  0  0  0  0  0  0  0  0  0
    6.9586   -4.9452    6.1595 H   0  0  0  0  0  0  0  0  0  0  0  0
    7.3463   -5.8331    4.6603 H   0  0  0  0  0  0  0  0  0  0  0  0
   10.0867   -4.8174    1.1248 H   0  0  0  0  0  0  0  0  0  0  0  0
    9.4343   -3.2102    0.8020 H   0  0  0  0  0  0  0  0  0  0  0  0
   10.3227   -3.5309    2.3147 H   0  0  0  0  0  0  0  0  0  0  0  0
  1  2  1  0  0  0  0
  2  3  2  0  0  0  0
  3  4  1  0  0  0  0
  4  5  2  0  0  0  0
  5  6  1  0  0  0  0
  1  6  2  0  0  0  0
  7  8  1  0  0  0  0
  8  9  2  0  0  0  0
  9 10  1  0  0  0  0
 10 11  2  0  0  0  0
 11 12  1  0  0  0  0
  7 12  2  0  0  0  0
  6 14  1  0  0  0  0
 14 13  1  0  0  0  0
 13 15  1  0  0  0  0
 15  8  1  0  0  0  0
  3 16  1  0  0  0  0
 16 17  1  0  0  0  0
 17 18  1  0  0  0  0
 19 20  1  0  0  0  0
 20 21  2  0  0  0  0
 21 22  1  0  0  0  0
 22 23  2  0  0  0  0
 23 18  1  0  0  0  0
 19 18  2  0  0  0  0
 21 24  1  0  0  0  0
 22 25  1  0  0  0  0
 24 26  1  0  0  0  0
 25 27  1  0  0  0  0
  1 28  1  0  0  0  0
  2 29  1  0  0  0  0
  4 30  1  0  0  0  0
  5 31  1  0  0  0  0
  7 32  1  0  0  0  0
  9 33  1  0  0  0  0
 10 34  1  0  0  0  0
 11 35  1  0  0  0  0
 12 36  1  0  0  0  0
 13 37  1  0  0  0  0
 13 38  1  0  0  0  0
 14 39  1  0  0  0  0
 14 40  1  0  0  0  0
 15 41  1  0  0  0  0
 15 42  1  0  0  0  0
 17 43  1  0  0  0  0
 17 44  1  0  0  0  0
 19 45  1  0  0  0  0
 20 46  1  0  0  0  0
 23 47  1  0  0  0  0
 26 48  1  0  0  0  0
 26 49  1  0  0  0  0
 26 50  1  0  0  0  0
 27 51  1  0  0  0  0
 27 52  1  0  0  0  0
 27 53  1  0  0  0  0
M  CHG  1  13   1
M  END
$$$$
> 702_AKC_j.jpba.2021.114469
>683.sdf
  Mrv1816 10112207563D              61.76000

 46 48  0  0  1  0            999 V2000
    0.9738    5.5501    4.7977 C   0  0  0  0  0  0  0  0  0  0  0  0
    1.6797    4.4493    4.0797 N   0  3  1  0  0  0  0  0  0  0  0  0
    1.1497    3.1097    4.4839 C   0  0  0  0  0  0  0  0  0  0  0  0
    1.7063    4.6759    2.5952 C   0  0  2  0  0  0  0  0  0  0  0  0
    2.7325    3.7811    1.8487 C   0  0  1  0  0  0  0  0  0  0  0  0
    2.9039    4.0805    0.3287 C   0  0  2  0  0  0  0  0  0  0  0  0
    1.6562    3.7891   -0.5809 C   0  0  1  0  0  0  0  0  0  0  0  0
    0.7031    4.8537   -0.3113 O   0  0  0  0  0  0  0  0  0  0  0  0
    0.5018    5.6885   -1.4615 C   0  0  1  0  0  0  0  0  0  0  0  0
    1.2857    5.0747   -2.5179 C   0  0  0  0  0  0  0  0  0  0  0  0
    1.3908    5.4648   -3.8666 C   0  0  0  0  0  0  0  0  0  0  0  0
    2.2156    4.7081   -4.7318 C   0  0  0  0  0  0  0  0  0  0  0  0
    2.9358    3.5999   -4.2230 C   0  0  0  0  0  0  0  0  0  0  0  0
    2.8250    3.2389   -2.8638 C   0  0  0  0  0  0  0  0  0  0  0  0
    1.9741    3.9795   -2.0146 C   0  0  0  0  0  0  0  0  0  0  0  0
    2.3152    5.0289   -5.9926 C   0  0  0  0  0  0  0  0  0  0  0  0
    2.4045    5.3045   -7.1043 N   0  0  0  0  0  0  0  0  0  0  0  0
    1.0322    2.4299   -0.3714 C   0  0  0  0  0  0  0  0  0  0  0  0
   -0.3680    2.2625   -0.2046 C   0  0  0  0  0  0  0  0  0  0  0  0
   -0.9360    0.9932    0.0162 C   0  0  0  0  0  0  0  0  0  0  0  0
   -0.1135   -0.1457    0.0689 C   0  0  0  0  0  0  0  0  0  0  0  0
   -0.6293   -1.3264    0.2805 F   0  0  0  0  0  0  0  0  0  0  0  0
    1.2730   -0.0117   -0.1134 C   0  0  0  0  0  0  0  0  0  0  0  0
    1.8347    1.2594   -0.3329 C   0  0  0  0  0  0  0  0  0  0  0  0
    1.4521    6.5086    4.5913 H   0  0  0  0  0  0  0  0  0  0  0  0
    1.0201    5.3971    5.8760 H   0  0  0  0  0  0  0  0  0  0  0  0
   -0.0738    5.6064    4.4950 H   0  0  0  0  0  0  0  0  0  0  0  0
    2.6519    4.4845    4.3956 H   0  0  0  0  0  0  0  0  0  0  0  0
    0.1655    2.9241    4.0495 H   0  0  0  0  0  0  0  0  0  0  0  0
    1.0667    3.0303    5.5696 H   0  0  0  0  0  0  0  0  0  0  0  0
    1.8278    2.3166    4.1691 H   0  0  0  0  0  0  0  0  0  0  0  0
    1.9836    5.7143    2.3842 H   0  0  0  0  0  0  0  0  0  0  0  0
    0.7057    4.5130    2.1867 H   0  0  0  0  0  0  0  0  0  0  0  0
    3.7050    3.9095    2.3300 H   0  0  0  0  0  0  0  0  0  0  0  0
    2.4556    2.7354    1.9701 H   0  0  0  0  0  0  0  0  0  0  0  0
    3.7566    3.4941   -0.0224 H   0  0  0  0  0  0  0  0  0  0  0  0
    3.1910    5.1319    0.2164 H   0  0  0  0  0  0  0  0  0  0  0  0
   -0.5579    5.7075   -1.7236 H   0  0  0  0  0  0  0  0  0  0  0  0
    0.8578    6.6989   -1.2551 H   0  0  0  0  0  0  0  0  0  0  0  0
    0.8682    6.2788   -4.2037 H   0  0  0  0  0  0  0  0  0  0  0  0
    3.5429    3.0426   -4.8332 H   0  0  0  0  0  0  0  0  0  0  0  0
    3.3565    2.4425   -2.5084 H   0  0  0  0  0  0  0  0  0  0  0  0
   -0.9988    3.0662   -0.2456 H   0  0  0  0  0  0  0  0  0  0  0  0
   -1.9482    0.9002    0.1370 H   0  0  0  0  0  0  0  0  0  0  0  0
    1.8778   -0.8361   -0.0801 H   0  0  0  0  0  0  0  0  0  0  0  0
    2.8486    1.3233   -0.4492 H   0  0  0  0  0  0  0  0  0  0  0  0
  1  2  1  0  0  0  0
  2  3  1  0  0  0  0
  2  4  1  0  0  0  0
  4  5  1  0  0  0  0
  5  6  1  0  0  0  0
  7  6  1  0  0  0  0
  7  8  1  0  0  0  0
  8  9  1  0  0  0  0
  9 10  1  0  0  0  0
 10 11  2  0  0  0  0
 11 12  1  0  0  0  0
 12 13  2  0  0  0  0
 13 14  1  0  0  0  0
 14 15  2  0  0  0  0
  7 15  1  0  0  0  0
 10 15  1  0  0  0  0
 12 16  1  0  0  0  0
 16 17  3  0  0  0  0
  7 18  1  0  0  0  0
 18 19  2  0  0  0  0
 19 20  1  0  0  0  0
 20 21  2  0  0  0  0
 21 22  1  0  0  0  0
 21 23  1  0  0  0  0
 23 24  2  0  0  0  0
 18 24  1  0  0  0  0
  1 25  1  0  0  0  0
  1 26  1  0  0  0  0
  1 27  1  0  0  0  0
  2 28  1  0  0  0  0
  3 29  1  0  0  0  0
  3 30  1  0  0  0  0
  3 31  1  0  0  0  0
  4 32  1  0  0  0  0
  4 33  1  0  0  0  0
  5 34  1  0  0  0  0
  5 35  1  0  0  0  0
  6 36  1  0  0  0  0
  6 37  1  0  0  0  0
  9 38  1  0  0  0  0
  9 39  1  0  0  0  0
 11 40  1  0  0  0  0
 13 41  1  0  0  0  0
 14 42  1  0  0  0  0
 19 43  1  0  0  0  0
 20 44  1  0  0  0  0
 23 45  1  0  0  0  0
 24 46  1  0  0  0  0
M  CHG  1   2   1
M  END
>  <type>
common

$$$$
> 703_AKC_books978-3-0365-3766-5
>684.sdf
  Mrv1816 10112208023D              59.42000

 40 41  0  0  0  0            999 V2000
    1.9857   -1.9620    0.3787 C   0  0  0  0  0  0  0  0  0  0  0  0
    1.7590   -1.1847   -0.7619 N   0  0  0  0  0  0  0  0  0  0  0  0
    2.7927   -1.1568   -1.7898 C   0  0  1  0  0  0  0  0  0  0  0  0
    4.1994   -1.7219   -1.4170 C   0  0  1  0  0  0  0  0  0  0  0  0
    4.2306   -2.5085   -0.2068 C   0  0  0  0  0  0  0  0  0  0  0  0
    3.1849   -2.6123    0.6198 C   0  0  0  0  0  0  0  0  0  0  0  0
    0.5624   -0.4730   -0.9496 C   0  0  0  0  0  0  0  0  0  0  0  0
   -0.3527   -0.5311   -0.0908 O   0  0  0  0  0  0  0  0  0  0  0  0
    1.1161   -2.1273    1.2676 O   0  0  0  0  0  0  0  0  0  0  0  0
    0.2262    0.4218   -2.1025 C   0  0  2  0  0  0  0  0  0  0  0  0
   -0.1698   -0.2699   -3.4385 C   0  0  1  0  0  0  0  0  0  0  0  0
   -1.2854   -1.2484   -3.3101 C   0  0  0  0  0  0  0  0  0  0  0  0
   -2.6074   -0.9118   -3.6857 C   0  0  0  0  0  0  0  0  0  0  0  0
   -3.6461   -1.8530   -3.5762 C   0  0  0  0  0  0  0  0  0  0  0  0
   -3.3862   -3.1434   -3.0789 C   0  0  0  0  0  0  0  0  0  0  0  0
   -2.0791   -3.4833   -2.6673 C   0  0  0  0  0  0  0  0  0  0  0  0
   -1.0358   -2.5464   -2.8093 C   0  0  0  0  0  0  0  0  0  0  0  0
   -1.8153   -4.7195   -2.1441 O   0  0  0  0  0  0  0  0  0  0  0  0
   -1.9512   -4.7405   -0.7119 C   0  0  0  0  0  0  0  0  0  0  0  0
   -4.4096   -4.0444   -2.9624 O   0  0  0  0  0  0  0  0  0  0  0  0
   -4.5916   -4.8396   -4.1456 C   0  0  0  0  0  0  0  0  0  0  0  0
    2.4218   -1.7411   -2.6355 H   0  0  0  0  0  0  0  0  0  0  0  0
    2.9568   -0.1370   -2.1388 H   0  0  0  0  0  0  0  0  0  0  0  0
    4.5657   -2.3434   -2.2403 H   0  0  0  0  0  0  0  0  0  0  0  0
    4.9049   -0.8969   -1.2899 H   0  0  0  0  0  0  0  0  0  0  0  0
    5.0732   -2.9838    0.0254 H   0  0  0  0  0  0  0  0  0  0  0  0
    3.2880   -3.1686    1.4392 H   0  0  0  0  0  0  0  0  0  0  0  0
    1.0573    1.1029   -2.2887 H   0  0  0  0  0  0  0  0  0  0  0  0
   -0.6126    1.0712   -1.8258 H   0  0  0  0  0  0  0  0  0  0  0  0
   -0.4575    0.5227   -4.1376 H   0  0  0  0  0  0  0  0  0  0  0  0
    0.6952   -0.7603   -3.8882 H   0  0  0  0  0  0  0  0  0  0  0  0
   -2.8249    0.0224   -4.0418 H   0  0  0  0  0  0  0  0  0  0  0  0
   -4.5950   -1.5975   -3.8606 H   0  0  0  0  0  0  0  0  0  0  0  0
   -0.0889   -2.8191   -2.5355 H   0  0  0  0  0  0  0  0  0  0  0  0
   -1.7504   -5.7531   -0.3650 H   0  0  0  0  0  0  0  0  0  0  0  0
   -1.2332   -4.0678   -0.2358 H   0  0  0  0  0  0  0  0  0  0  0  0
   -2.9643   -4.4707   -0.4022 H   0  0  0  0  0  0  0  0  0  0  0  0
   -5.4360   -5.5083   -3.9788 H   0  0  0  0  0  0  0  0  0  0  0  0
   -4.8181   -4.2176   -5.0149 H   0  0  0  0  0  0  0  0  0  0  0  0
   -3.7095   -5.4497   -4.3531 H   0  0  0  0  0  0  0  0  0  0  0  0
  1  2  1  0  0  0  0
  2  3  1  0  0  0  0
  3  4  1  0  0  0  0
  4  5  1  0  0  0  0
  5  6  2  0  0  0  0
  1  6  1  0  0  0  0
  2  7  1  0  0  0  0
  7  8  2  0  0  0  0
  1  9  2  0  0  0  0
  7 10  1  0  0  0  0
 10 11  1  0  0  0  0
 11 12  1  0  0  0  0
 13 14  1  0  0  0  0
 14 15  2  0  0  0  0
 15 16  1  0  0  0  0
 16 17  2  0  0  0  0
 17 12  1  0  0  0  0
 13 12  2  0  0  0  0
 16 18  1  0  0  0  0
 18 19  1  0  0  0  0
 15 20  1  0  0  0  0
 20 21  1  0  0  0  0
  3 22  1  0  0  0  0
  3 23  1  0  0  0  0
  4 24  1  0  0  0  0
  4 25  1  0  0  0  0
  5 26  1  0  0  0  0
  6 27  1  0  0  0  0
 10 28  1  0  0  0  0
 10 29  1  0  0  0  0
 11 30  1  0  0  0  0
 11 31  1  0  0  0  0
 13 32  1  0  0  0  0
 14 33  1  0  0  0  0
 17 34  1  0  0  0  0
 19 35  1  0  0  0  0
 19 36  1  0  0  0  0
 19 37  1  0  0  0  0
 21 38  1  0  0  0  0
 21 39  1  0  0  0  0
 21 40  1  0  0  0  0
M  END
>  <type>
common

$$$$
> 704_AKC_biomedicines10051136
>685.sdf
  Mrv1816 10112208063D              47.15000

 26 27  0  0  0  0            999 V2000
    3.8219   -2.2037   -1.5614 C   0  0  0  0  0  0  0  0  0  0  0  0
    4.4772   -2.9886   -0.5957 C   0  0  0  0  0  0  0  0  0  0  0  0
    4.0483   -2.9620    0.7407 C   0  0  0  0  0  0  0  0  0  0  0  0
    2.9582   -2.1585    1.1111 C   0  0  0  0  0  0  0  0  0  0  0  0
    2.2828   -1.3656    0.1506 C   0  0  0  0  0  0  0  0  0  0  0  0
    2.7270   -1.3789   -1.2028 C   0  0  0  0  0  0  0  0  0  0  0  0
    2.0435   -0.5558   -2.1544 C   0  0  0  0  0  0  0  0  0  0  0  0
    1.1591   -0.5554    0.4947 C   0  0  0  0  0  0  0  0  0  0  0  0
    0.4795    0.1815   -0.4895 C   0  0  0  0  0  0  0  0  0  0  0  0
    0.9210    0.1963   -1.7719 C   0  0  0  0  0  0  0  0  0  0  0  0
    2.4493   -0.5166   -3.3422 O   0  0  0  0  0  0  0  0  0  0  0  0
    0.7761   -0.4965    1.6896 O   0  0  0  0  0  0  0  0  0  0  0  0
    0.1146    1.0923   -2.9379 Cl  0  0  0  0  0  0  0  0  0  0  0  0
   -0.6191    0.8645   -0.1387 N   0  0  0  0  0  0  0  0  0  0  0  0
   -1.8087    0.2822    0.1776 C   0  0  0  0  0  0  0  0  0  0  0  0
   -1.9658   -0.9630    0.1336 O   0  0  0  0  0  0  0  0  0  0  0  0
   -2.8421    1.0978    0.5332 O   0  0  0  0  0  0  0  0  0  0  0  0
   -4.1627    0.6749    0.8941 C   0  0  0  0  0  0  0  0  0  0  0  0
    4.1521   -2.2436   -2.5292 H   0  0  0  0  0  0  0  0  0  0  0  0
    5.2663   -3.5800   -0.8649 H   0  0  0  0  0  0  0  0  0  0  0  0
    4.5257   -3.5312    1.4447 H   0  0  0  0  0  0  0  0  0  0  0  0
    2.6619   -2.1638    2.0900 H   0  0  0  0  0  0  0  0  0  0  0  0
   -0.5716    1.8352   -0.1287 H   0  0  0  0  0  0  0  0  0  0  0  0
   -4.7540    1.5515    1.1615 H   0  0  0  0  0  0  0  0  0  0  0  0
   -4.1217    0.0009    1.7525 H   0  0  0  0  0  0  0  0  0  0  0  0
   -4.6421    0.1673    0.0543 H   0  0  0  0  0  0  0  0  0  0  0  0
  1  2  2  0  0  0  0
  2  3  1  0  0  0  0
  3  4  2  0  0  0  0
  4  5  1  0  0  0  0
  5  6  2  0  0  0  0
  1  6  1  0  0  0  0
  8  9  1  0  0  0  0
  9 10  2  0  0  0  0
  7 10  1  0  0  0  0
  5  8  1  0  0  0  0
  7  6  1  0  0  0  0
  7 11  2  0  0  0  0
  8 12  2  0  0  0  0
 10 13  1  0  0  0  0
  9 14  1  0  0  0  0
 14 15  1  0  0  0  0
 15 16  2  0  0  0  0
 15 17  1  0  0  0  0
 17 18  1  0  0  0  0
  1 19  1  0  0  0  0
  2 20  1  0  0  0  0
  3 21  1  0  0  0  0
  4 22  1  0  0  0  0
 14 23  1  0  0  0  0
 18 24  1  0  0  0  0
 18 25  1  0  0  0  0
 18 26  1  0  0  0  0
M  END
>  <type>
common

$$$$
> 705_AKC_j.parint.2022.102647
>686.sdf
 OpenBabel10112208153D

 62 66  0  0  0  0  0  0  0  0999 V2000
   13.4368    0.9879   -0.1586 C   0  0  0  0  0  0  0  0  0  0  0  0
   13.3326    1.7384   -1.3332 N   0  0  0  0  0  0  0  0  0  0  0  0
   14.4923    2.0392   -2.0483 C   0  0  0  0  0  0  0  0  0  0  0  0
   15.7656    1.6296   -1.5916 C   0  0  0  0  0  0  0  0  0  0  0  0
   15.8678    0.9146   -0.3860 C   0  0  0  0  0  0  0  0  0  0  0  0
   14.7031    0.5846    0.3313 C   0  0  0  0  0  0  0  0  0  0  0  0
   16.9448    1.9329   -2.3108 C   0  0  0  0  0  0  0  0  0  0  0  0
   18.1971    1.5394   -1.8253 C   0  0  0  0  0  0  0  0  0  0  0  0
   18.2990    0.8490   -0.6181 C   0  0  0  0  0  0  0  0  0  0  0  0
   17.1431    0.5296    0.1064 C   0  0  0  0  0  0  0  0  0  0  0  0
   14.8282   -0.1356    1.5402 C   0  0  0  0  0  0  0  0  0  0  0  0
   17.2415   -0.1667    1.3176 C   0  0  0  0  0  0  0  0  0  0  0  0
   16.0883   -0.4973    2.0275 C   0  0  0  0  0  0  0  0  0  0  0  0
   12.4381    0.6776    0.4662 O   0  0  0  0  0  0  0  0  0  0  0  0
   14.4133    2.6876   -3.0836 O   0  0  0  0  0  0  0  0  0  0  0  0
   12.0399    2.2815   -1.8754 C   0  0  0  0  0  0  0  0  0  0  0  0
   10.7273    2.1181   -1.0505 C   0  0  0  0  0  0  0  0  0  0  0  0
    9.5313    2.8760   -1.7014 C   0  0  0  0  0  0  0  0  0  0  0  0
    8.2116    2.7239   -0.8953 C   0  0  0  0  0  0  0  0  0  0  0  0
    6.9803    3.3825   -1.5890 C   0  0  0  0  0  0  0  0  0  0  0  0
    5.6842    3.1030   -0.8949 N   0  3  0  0  0  0  0  0  0  0  0  0
    4.5363    3.4503   -1.7845 C   0  0  0  0  0  0  0  0  0  0  0  0
    3.1703    3.1887   -1.1034 C   0  0  0  0  0  0  0  0  0  0  0  0
    3.1648    3.8955    0.1599 N   0  0  0  0  0  0  0  0  0  0  0  0
    4.2370    3.5840    1.0824 C   0  0  0  0  0  0  0  0  0  0  0  0
    5.5838    3.8410    0.3938 C   0  0  0  0  0  0  0  0  0  0  0  0
    2.1901    4.9019    0.4515 C   0  0  0  0  0  0  0  0  0  0  0  0
    2.5895    6.1435    0.9775 C   0  0  0  0  0  0  0  0  0  0  0  0
    1.6433    7.1394    1.2367 C   0  0  0  0  0  0  0  0  0  0  0  0
    0.2877    6.8967    1.0055 C   0  0  0  0  0  0  0  0  0  0  0  0
   -0.1254    5.6591    0.5026 C   0  0  0  0  0  0  0  0  0  0  0  0
    0.8223    4.6687    0.2105 C   0  0  0  0  0  0  0  0  0  0  0  0
   -1.8329    5.3483    0.2432 Cl  0  0  0  0  0  0  0  0  0  0  0  0
   16.9003    2.4746   -3.2476 H   0  0  0  0  0  0  0  0  0  0  0  0
   19.0947    1.7746   -2.3846 H   0  0  0  0  0  0  0  0  0  0  0  0
   19.2781    0.5590   -0.2511 H   0  0  0  0  0  0  0  0  0  0  0  0
   13.9533   -0.4074    2.1156 H   0  0  0  0  0  0  0  0  0  0  0  0
   18.2102   -0.4548    1.7120 H   0  0  0  0  0  0  0  0  0  0  0  0
   16.1718   -1.0361    2.9627 H   0  0  0  0  0  0  0  0  0  0  0  0
   12.1765    3.3788   -1.9903 H   0  0  0  0  0  0  0  0  0  0  0  0
   11.8703    1.8488   -2.8867 H   0  0  0  0  0  0  0  0  0  0  0  0
   10.4668    1.0396   -0.9782 H   0  0  0  0  0  0  0  0  0  0  0  0
   10.8788    2.5380   -0.0329 H   0  0  0  0  0  0  0  0  0  0  0  0
    9.7806    3.9579   -1.7819 H   0  0  0  0  0  0  0  0  0  0  0  0
    9.3780    2.4773   -2.7273 H   0  0  0  0  0  0  0  0  0  0  0  0
    8.3615    3.1646    0.1121 H   0  0  0  0  0  0  0  0  0  0  0  0
    7.9999    1.6404   -0.7870 H   0  0  0  0  0  0  0  0  0  0  0  0
    7.1393    4.4812   -1.6967 H   0  0  0  0  0  0  0  0  0  0  0  0
    6.9344    2.9575   -2.6164 H   0  0  0  0  0  0  0  0  0  0  0  0
    5.6271    2.0748   -0.7035 H   0  0  0  0  0  0  0  0  0  0  0  0
    4.5715    2.8444   -2.7176 H   0  0  0  0  0  0  0  0  0  0  0  0
    4.5891    4.5257   -2.0704 H   0  0  0  0  0  0  0  0  0  0  0  0
    3.0384    2.1020   -0.9158 H   0  0  0  0  0  0  0  0  0  0  0  0
    2.3499    3.5317   -1.7734 H   0  0  0  0  0  0  0  0  0  0  0  0
    4.1551    4.1623    2.0275 H   0  0  0  0  0  0  0  0  0  0  0  0
    4.1605    2.5054    1.3491 H   0  0  0  0  0  0  0  0  0  0  0  0
    5.6842    4.9360    0.2238 H   0  0  0  0  0  0  0  0  0  0  0  0
    6.3772    3.5168    1.0989 H   0  0  0  0  0  0  0  0  0  0  0  0
    3.6367    6.3508    1.1534 H   0  0  0  0  0  0  0  0  0  0  0  0
    1.9623    8.1014    1.6164 H   0  0  0  0  0  0  0  0  0  0  0  0
   -0.4405    7.6696    1.2182 H   0  0  0  0  0  0  0  0  0  0  0  0
    0.4918    3.7115   -0.1729 H   0  0  0  0  0  0  0  0  0  0  0  0
  1  2  1  0  0  0  0
  1  6  1  0  0  0  0
  1 14  2  0  0  0  0
  2  3  1  0  0  0  0
  2 16  1  0  0  0  0
  3  4  1  0  0  0  0
  3 15  2  0  0  0  0
  4  7  1  0  0  0  0
  5 10  1  0  0  0  0
  5  4  2  0  0  0  0
  6  5  1  0  0  0  0
  7  8  2  0  0  0  0
  7 34  1  0  0  0  0
  8  9  1  0  0  0  0
  8 35  1  0  0  0  0
  9 10  2  0  0  0  0
  9 36  1  0  0  0  0
 10 12  1  0  0  0  0
 11 13  1  0  0  0  0
 11  6  2  0  0  0  0
 11 37  1  0  0  0  0
 12 13  2  0  0  0  0
 12 38  1  0  0  0  0
 13 39  1  0  0  0  0
 16 17  1  0  0  0  0
 16 40  1  0  0  0  0
 16 41  1  0  0  0  0
 17 18  1  0  0  0  0
 17 42  1  0  0  0  0
 17 43  1  0  0  0  0
 18 19  1  0  0  0  0
 18 44  1  0  0  0  0
 18 45  1  0  0  0  0
 19 20  1  0  0  0  0
 19 46  1  0  0  0  0
 19 47  1  0  0  0  0
 20 21  1  0  0  0  0
 20 48  1  0  0  0  0
 20 49  1  0  0  0  0
 21 50  1  0  0  0  0
 22 23  1  0  0  0  0
 22 21  1  0  0  0  0
 22 51  1  0  0  0  0
 22 52  1  0  0  0  0
 23 24  1  0  0  0  0
 23 53  1  0  0  0  0
 23 54  1  0  0  0  0
 24 25  1  0  0  0  0
 24 27  1  0  0  0  0
 25 26  1  0  0  0  0
 25 55  1  0  0  0  0
 25 56  1  0  0  0  0
 26 21  1  0  0  0  0
 26 57  1  0  0  0  0
 26 58  1  0  0  0  0
 27 28  1  0  0  0  0
 27 32  2  0  0  0  0
 28 29  2  0  0  0  0
 28 59  1  0  0  0  0
 29 30  1  0  0  0  0
 29 60  1  0  0  0  0
 30 31  2  0  0  0  0
 30 61  1  0  0  0  0
 31 32  1  0  0  0  0
 31 33  1  0  0  0  0
 32 62  1  0  0  0  0
M  CHG  1  21   1
M  END
>  <MOL Chiral Flag>
0

$$$$
> 706_AKC_21-82
>687.sdf
 OpenBabel10112208263D

 73 76  0  0  1  0  0  0  0  0999 V2000
   15.2220   33.5120   16.2980 C   0  0  0  0  0  0  0  0  0  0  0  0
   15.1270   32.8210   17.6490 C   0  0  0  0  0  0  0  0  0  0  0  0
   15.2230   31.3450   17.4040 C   0  0  0  0  0  0  0  0  0  0  0  0
   16.2510   30.8430   16.4730 C   0  0  0  0  0  0  0  0  0  0  0  0
   16.9150   31.6860   15.6490 C   0  0  0  0  0  0  0  0  0  0  0  0
   18.0280   31.1570   14.7730 C   0  0  0  0  0  0  0  0  0  0  0  0
   17.7520   31.5160   13.3150 C   0  0  0  0  0  0  0  0  0  0  0  0
   17.5930   33.0450   13.1490 C   0  0  2  0  0  0  0  0  0  0  0  0
   16.3940   33.5470   14.0290 C   0  0  1  0  0  0  0  0  0  0  0  0
   16.5720   33.1880   15.5590 C   0  0  1  0  0  0  0  0  0  0  0  0
   16.0990   35.0540   13.7750 C   0  0  0  0  0  0  0  0  0  0  0  0
   15.8920   35.3560   12.2770 C   0  0  0  0  0  0  0  0  0  0  0  0
   17.1270   34.9290   11.4330 C   0  0  1  0  0  0  0  0  0  0  0  0
   17.3170   33.4100   11.6690 C   0  0  1  0  0  0  0  0  0  0  0  0
   18.3590   33.0210   10.6290 C   0  0  0  0  0  0  0  0  0  0  0  0
   18.0120   33.8980    9.4080 C   0  0  0  0  0  0  0  0  0  0  0  0
   16.9300   34.9100    9.8850 C   0  0  2  0  0  0  0  0  0  0  0  0
   18.3690   35.8020   11.8060 C   0  0  0  0  0  0  0  0  0  0  0  0
   17.7340   33.9820   16.2130 C   0  0  0  0  0  0  0  0  0  0  0  0
   16.9290   36.2420    9.0580 C   0  0  2  0  0  0  0  0  0  0  0  0
   15.8470   37.2340    9.5150 C   0  0  0  0  0  0  0  0  0  0  0  0
   16.8090   36.0180    7.5220 C   0  0  0  0  0  0  0  0  0  0  0  0
   15.5720   35.2110    7.0640 C   0  0  0  0  0  0  0  0  0  0  0  0
   15.3520   35.0770    5.5540 C   0  0  0  0  0  0  0  0  0  0  0  0
   14.2550   34.1000    5.0840 C   0  0  0  0  0  0  0  0  0  0  0  0
   12.8940   34.4370    5.7110 C   0  0  0  0  0  0  0  0  0  0  0  0
   14.0820   33.9980    3.5560 C   0  0  0  0  0  0  0  0  0  0  0  0
   14.4700   30.5710   17.9690 O   0  0  0  0  0  0  0  0  0  0  0  0
   16.8260   30.9990   12.9780 H   0  0  0  0  0  0  0  0  0  0  0  0
   18.6000   31.1480   12.6980 H   0  0  0  0  0  0  0  0  0  0  0  0
   18.5360   33.5350   13.4650 H   0  0  0  0  0  0  0  0  0  0  0  0
   15.4990   32.9880   13.6650 H   0  0  0  0  0  0  0  0  0  0  0  0
   15.1750   35.3600   14.3050 H   0  0  0  0  0  0  0  0  0  0  0  0
   16.9200   35.6840   14.1630 H   0  0  0  0  0  0  0  0  0  0  0  0
   14.9950   34.7940   11.9340 H   0  0  0  0  0  0  0  0  0  0  0  0
   15.6630   36.4290   12.1870 H   0  0  0  0  0  0  0  0  0  0  0  0
   16.3730   32.8890   11.3730 H   0  0  0  0  0  0  0  0  0  0  0  0
   18.4290   31.9350   10.4070 H   0  0  0  0  0  0  0  0  0  0  0  0
   19.3510   33.3400   11.0170 H   0  0  0  0  0  0  0  0  0  0  0  0
   17.6220   33.3100    8.5500 H   0  0  0  0  0  0  0  0  0  0  0  0
   18.9510   34.4030    9.0910 H   0  0  0  0  0  0  0  0  0  0  0  0
   15.9460   34.4090    9.7290 H   0  0  0  0  0  0  0  0  0  0  0  0
   18.6610   35.7130   12.8680 H   0  0  0  0  0  0  0  0  0  0  0  0
   19.2680   35.5510   11.2100 H   0  0  0  0  0  0  0  0  0  0  0  0
   18.1480   36.8720   11.6150 H   0  0  0  0  0  0  0  0  0  0  0  0
   17.8920   33.6670   17.2640 H   0  0  0  0  0  0  0  0  0  0  0  0
   18.6970   33.8290   15.6880 H   0  0  0  0  0  0  0  0  0  0  0  0
   17.5240   35.0700   16.2260 H   0  0  0  0  0  0  0  0  0  0  0  0
   17.9060   36.7540    9.2050 H   0  0  0  0  0  0  0  0  0  0  0  0
   14.8350   36.7790    9.4890 H   0  0  0  0  0  0  0  0  0  0  0  0
   16.0640   37.6140   10.5250 H   0  0  0  0  0  0  0  0  0  0  0  0
   15.8510   38.1370    8.8680 H   0  0  0  0  0  0  0  0  0  0  0  0
   17.7150   35.4910    7.1520 H   0  0  0  0  0  0  0  0  0  0  0  0
   16.7960   37.0280    7.0600 H   0  0  0  0  0  0  0  0  0  0  0  0
   14.6610   35.6720    7.4930 H   0  0  0  0  0  0  0  0  0  0  0  0
   15.6730   34.1850    7.4690 H   0  0  0  0  0  0  0  0  0  0  0  0
   14.5460   33.0890    5.4430 H   0  0  0  0  0  0  0  0  0  0  0  0
   12.1320   33.6930    5.3920 H   0  0  0  0  0  0  0  0  0  0  0  0
   12.9400   34.3840    6.8180 H   0  0  0  0  0  0  0  0  0  0  0  0
   12.5590   35.4500    5.4050 H   0  0  0  0  0  0  0  0  0  0  0  0
   13.7580   34.9730    3.1310 H   0  0  0  0  0  0  0  0  0  0  0  0
   15.0290   33.6760    3.0740 H   0  0  0  0  0  0  0  0  0  0  0  0
   13.3110   33.2380    3.3060 H   0  0  0  0  0  0  0  0  0  0  0  0
   18.1470   30.0560   14.8730 H   0  0  0  0  0  0  0  0  0  0  0  0
   18.9870   31.6220   15.0810 H   0  0  0  0  0  0  0  0  0  0  0  0
   16.4770   29.7790   16.4710 H   0  0  0  0  0  0  0  0  0  0  0  0
   16.1020   35.7780    4.6670 C   0  0  0  0  0  0  0  0  0  0  0  0
   16.8790   36.4610    4.9770 H   0  0  0  0  0  0  0  0  0  0  0  0
   15.9610   35.6960    3.5980 H   0  0  0  0  0  0  0  0  0  0  0  0
   15.0910   34.6080   16.4240 H   0  0  0  0  0  0  0  0  0  0  0  0
   14.3620   33.1380   15.6970 H   0  0  0  0  0  0  0  0  0  0  0  0
   14.1840   33.0710   18.1820 H   0  0  0  0  0  0  0  0  0  0  0  0
   15.9730   33.1470   18.2870 H   0  0  0  0  0  0  0  0  0  0  0  0
  1  2  1  0  0  0  0
  1 10  1  0  0  0  0
  1 70  1  0  0  0  0
  1 71  1  0  0  0  0
  2  3  1  0  0  0  0
  2 72  1  0  0  0  0
  2 73  1  0  0  0  0
  3  4  1  0  0  0  0
  3 28  2  0  0  0  0
  4  5  2  0  0  0  0
  4 66  1  0  0  0  0
  5  6  1  0  0  0  0
  5 10  1  0  0  0  0
  6  7  1  0  0  0  0
  6 64  1  0  0  0  0
  6 65  1  0  0  0  0
  7  8  1  0  0  0  0
  7 29  1  0  0  0  0
  7 30  1  0  0  0  0
  8  9  1  0  0  0  0
  8 14  1  0  0  0  0
  8 31  1  1  0  0  0
  9 10  1  0  0  0  0
  9 11  1  0  0  0  0
  9 32  1  6  0  0  0
 10 19  1  1  0  0  0
 11 12  1  0  0  0  0
 11 33  1  0  0  0  0
 11 34  1  0  0  0  0
 12 13  1  0  0  0  0
 12 35  1  0  0  0  0
 12 36  1  0  0  0  0
 13 14  1  0  0  0  0
 13 17  1  0  0  0  0
 13 18  1  1  0  0  0
 14 15  1  0  0  0  0
 14 37  1  6  0  0  0
 15 16  1  0  0  0  0
 15 38  1  0  0  0  0
 15 39  1  0  0  0  0
 16 17  1  0  0  0  0
 16 40  1  0  0  0  0
 16 41  1  0  0  0  0
 17 20  1  0  0  0  0
 17 42  1  6  0  0  0
 18 43  1  0  0  0  0
 18 44  1  0  0  0  0
 18 45  1  0  0  0  0
 19 46  1  0  0  0  0
 19 47  1  0  0  0  0
 19 48  1  0  0  0  0
 20 21  1  0  0  0  0
 20 22  1  0  0  0  0
 20 49  1  1  0  0  0
 21 50  1  0  0  0  0
 21 51  1  0  0  0  0
 21 52  1  0  0  0  0
 22 23  1  0  0  0  0
 22 53  1  0  0  0  0
 22 54  1  0  0  0  0
 23 24  1  0  0  0  0
 23 55  1  0  0  0  0
 23 56  1  0  0  0  0
 24 25  1  0  0  0  0
 24 67  2  0  0  0  0
 25 26  1  0  0  0  0
 25 27  1  0  0  0  0
 25 57  1  0  0  0  0
 26 58  1  0  0  0  0
 26 59  1  0  0  0  0
 26 60  1  0  0  0  0
 27 61  1  0  0  0  0
 27 62  1  0  0  0  0
 27 63  1  0  0  0  0
 67 68  1  0  0  0  0
 67 69  1  0  0  0  0
M  END
>  <COMPND>
    UNNAMED

>  <AUTHOR>
    GENERATED BY OPEN BABEL 2.3.2

>  <MASTER>
        0    0    0    0    0    0    0    0   73    0   73    0

$$$$
> 707_AKC_1568026622666220707095718
>688.sdf
 OpenBabel10112208353D

 38 40  0  0  0  0  0  0  0  0999 V2000
   -1.3580   -0.9190    0.8091 C   0  0  0  0  0  0  0  0  0  0  0  0
   -0.3946   -1.2194   -0.2222 C   0  0  0  0  0  0  0  0  0  0  0  0
   -0.5527   -0.3841   -1.2430 C   0  0  0  0  0  0  0  0  0  0  0  0
   -1.7143    0.5590   -1.0101 C   0  0  2  0  0  0  0  0  0  0  0  0
   -2.2045    0.2438    0.4391 C   0  0  0  0  0  0  0  0  0  0  0  0
   -2.8219    0.4481   -2.0975 C   0  0  1  0  0  0  0  0  0  0  0  0
    0.3355   -0.4599   -2.4721 C   0  0  1  0  0  0  0  0  0  0  0  0
    0.6463   -2.3026   -0.1412 C   0  0  0  0  0  0  0  0  0  0  0  0
   -1.4223   -1.4969    1.8829 O   0  0  0  0  0  0  0  0  0  0  0  0
    0.1880    0.5595   -3.6611 C   0  0  2  0  0  0  0  0  0  0  0  0
    1.3783    0.6278   -2.7123 C   0  0  0  0  0  0  0  0  0  0  0  0
   -2.3391    0.7794   -3.5429 C   0  0  0  0  0  0  0  0  0  0  0  0
   -1.0076    1.5432   -3.6434 C   0  0  0  0  0  0  0  0  0  0  0  0
   -1.3808    1.6076   -0.9831 H   0  0  0  0  0  0  0  0  0  0  0  0
   -3.5655   -0.9027   -2.1211 C   0  0  0  0  0  0  0  0  0  0  0  0
    1.5298    1.8104   -1.7429 C   0  0  0  0  0  0  0  0  0  0  0  0
    2.6969    0.0843   -3.2722 C   0  0  0  0  0  0  0  0  0  0  0  0
   -3.2867    0.0223    0.5112 H   0  0  0  0  0  0  0  0  0  0  0  0
   -1.9620    1.0738    1.1383 H   0  0  0  0  0  0  0  0  0  0  0  0
   -3.5553    1.2360   -1.8112 H   0  0  0  0  0  0  0  0  0  0  0  0
    0.4260   -1.4633   -2.9451 H   0  0  0  0  0  0  0  0  0  0  0  0
    0.5000   -3.0264   -0.9703 H   0  0  0  0  0  0  0  0  0  0  0  0
    0.5725   -2.8511    0.8206 H   0  0  0  0  0  0  0  0  0  0  0  0
    1.6598   -1.8558   -0.2194 H   0  0  0  0  0  0  0  0  0  0  0  0
    0.2968   -0.0387   -4.5943 H   0  0  0  0  0  0  0  0  0  0  0  0
   -3.1561    1.3616   -4.0234 H   0  0  0  0  0  0  0  0  0  0  0  0
   -2.2274   -0.1394   -4.1629 H   0  0  0  0  0  0  0  0  0  0  0  0
   -0.9518    2.3922   -2.9389 H   0  0  0  0  0  0  0  0  0  0  0  0
   -0.9669    2.0160   -4.6480 H   0  0  0  0  0  0  0  0  0  0  0  0
   -4.3782   -0.8735   -2.8781 H   0  0  0  0  0  0  0  0  0  0  0  0
   -4.0382   -1.1452   -1.1508 H   0  0  0  0  0  0  0  0  0  0  0  0
   -2.8650   -1.7244   -2.3824 H   0  0  0  0  0  0  0  0  0  0  0  0
    0.5916    2.2167   -1.3488 H   0  0  0  0  0  0  0  0  0  0  0  0
    2.0532    2.6400   -2.2626 H   0  0  0  0  0  0  0  0  0  0  0  0
    2.1464    1.4939   -0.8758 H   0  0  0  0  0  0  0  0  0  0  0  0
    3.2292    0.8892   -3.8206 H   0  0  0  0  0  0  0  0  0  0  0  0
    3.3378   -0.2631   -2.4343 H   0  0  0  0  0  0  0  0  0  0  0  0
    2.5418   -0.7689   -3.9674 H   0  0  0  0  0  0  0  0  0  0  0  0
  1  2  1  0  0  0  0
  1  5  1  0  0  0  0
  1  9  2  0  0  0  0
  2  3  2  0  0  0  0
  2  8  1  0  0  0  0
  3  4  1  0  0  0  0
  3  7  1  0  0  0  0
  4  5  1  0  0  0  0
  4  6  1  0  0  0  0
  4 14  1  6  0  0  0
  5 18  1  0  0  0  0
  5 19  1  0  0  0  0
  6 12  1  0  0  0  0
  6 15  1  0  0  0  0
  6 20  1  1  0  0  0
  7 10  1  0  0  0  0
  7 11  1  0  0  0  0
  7 21  1  6  0  0  0
  8 22  1  0  0  0  0
  8 23  1  0  0  0  0
  8 24  1  0  0  0  0
 10 11  1  0  0  0  0
 10 25  1  6  0  0  0
 11 16  1  0  0  0  0
 11 17  1  0  0  0  0
 12 13  1  0  0  0  0
 12 26  1  0  0  0  0
 12 27  1  0  0  0  0
 13 10  1  0  0  0  0
 13 28  1  0  0  0  0
 13 29  1  0  0  0  0
 15 30  1  0  0  0  0
 15 31  1  0  0  0  0
 15 32  1  0  0  0  0
 16 33  1  0  0  0  0
 16 34  1  0  0  0  0
 16 35  1  0  0  0  0
 17 36  1  0  0  0  0
 17 37  1  0  0  0  0
 17 38  1  0  0  0  0
M  END
>  <MOL Chiral Flag>
0

$$$$
> 708_AKC_antibiotics11101402

  Mrv1816 10182218103D              84.75000

 44 46  0  0  0  0            999 V2000
  -10.0818   -9.1226    3.9947 C   0  0  0  0  0  0  0  0  0  0  0  0
  -10.4616  -10.2886    4.6919 C   0  0  0  0  0  0  0  0  0  0  0  0
  -10.7930  -11.4569    3.9972 C   0  0  0  0  0  0  0  0  0  0  0  0
  -10.7403  -11.4665    2.5981 C   0  0  0  0  0  0  0  0  0  0  0  0
  -10.4158  -10.2950    1.8726 C   0  0  0  0  0  0  0  0  0  0  0  0
  -10.1532   -9.0691    2.5689 C   0  0  0  0  0  0  0  0  0  0  0  0
   -9.9671   -7.8714    1.8042 C   0  0  0  0  0  0  0  0  0  0  0  0
  -10.3494  -10.3442    0.4575 C   0  0  0  0  0  0  0  0  0  0  0  0
  -10.0844   -9.1764   -0.2728 C   0  0  0  0  0  0  0  0  0  0  0  0
   -9.9114   -7.9572    0.3907 C   0  0  0  0  0  0  0  0  0  0  0  0
   -9.6325   -8.0807    4.7644 O   0  0  0  0  0  0  0  0  0  0  0  0
   -8.2185   -8.1566    5.0368 C   0  0  0  0  0  0  0  0  0  0  0  0
  -10.5520  -11.5033   -0.2478 O   0  0  0  0  0  0  0  0  0  0  0  0
   -9.3326  -12.2331   -0.4823 C   0  0  0  0  0  0  0  0  0  0  0  0
   -9.9088   -6.5631    2.3727 C   0  0  0  0  0  0  0  0  0  0  0  0
  -10.8233   -6.2455    3.1713 O   0  0  0  0  0  0  0  0  0  0  0  0
   -8.9395   -5.6301    2.0062 C   0  0  0  0  0  0  0  0  0  0  0  0
   -8.9130   -4.3436    2.4015 C   0  0  0  0  0  0  0  0  0  0  0  0
   -7.9947   -3.3887    1.9589 C   0  0  0  0  0  0  0  0  0  0  0  0
   -6.7501   -1.3116    2.3820 C   0  0  0  0  0  0  0  0  0  0  0  0
   -7.6500   -2.3079    2.8036 C   0  0  0  0  0  0  0  0  0  0  0  0
   -7.4040   -3.4303    0.6713 C   0  0  0  0  0  0  0  0  0  0  0  0
   -6.5118   -2.4287    0.2501 C   0  0  0  0  0  0  0  0  0  0  0  0
   -6.1704   -1.3366    1.0879 C   0  0  0  0  0  0  0  0  0  0  0  0
   -5.3460   -0.3545    0.6700 N   0  0  0  0  0  0  0  0  0  0  0  0
   -4.9158    0.4638    1.3846 O   0  0  0  0  0  0  0  0  0  0  0  0
   -5.0121   -0.2424   -0.4441 O   0  0  0  0  0  0  0  0  0  0  0  0
  -10.4877  -10.2937    5.7142 H   0  0  0  0  0  0  0  0  0  0  0  0
  -11.0625  -12.3015    4.5091 H   0  0  0  0  0  0  0  0  0  0  0  0
  -10.9534  -12.3431    2.1170 H   0  0  0  0  0  0  0  0  0  0  0  0
  -10.0277   -9.2118   -1.2941 H   0  0  0  0  0  0  0  0  0  0  0  0
   -9.7603   -7.1225   -0.1839 H   0  0  0  0  0  0  0  0  0  0  0  0
   -7.9500   -7.3017    5.6560 H   0  0  0  0  0  0  0  0  0  0  0  0
   -7.9619   -9.0654    5.5886 H   0  0  0  0  0  0  0  0  0  0  0  0
   -7.6258   -8.1098    4.1192 H   0  0  0  0  0  0  0  0  0  0  0  0
   -9.5769  -13.1305   -1.0504 H   0  0  0  0  0  0  0  0  0  0  0  0
   -8.6220  -11.6445   -1.0677 H   0  0  0  0  0  0  0  0  0  0  0  0
   -8.8611  -12.5434    0.4541 H   0  0  0  0  0  0  0  0  0  0  0  0
   -8.2177   -5.9489    1.4021 H   0  0  0  0  0  0  0  0  0  0  0  0
   -9.5968   -4.0420    3.0591 H   0  0  0  0  0  0  0  0  0  0  0  0
   -6.5252   -0.5538    3.0328 H   0  0  0  0  0  0  0  0  0  0  0  0
   -8.0532   -2.2374    3.7431 H   0  0  0  0  0  0  0  0  0  0  0  0
   -7.6278   -4.1811    0.0117 H   0  0  0  0  0  0  0  0  0  0  0  0
   -6.1139   -2.5065   -0.6898 H   0  0  0  0  0  0  0  0  0  0  0  0
  1  2  1  0  0  0  0
  2  3  2  0  0  0  0
  3  4  1  0  0  0  0
  4  5  2  0  0  0  0
  5  6  1  0  0  0  0
  1  6  2  0  0  0  0
  8  9  2  0  0  0  0
  9 10  1  0  0  0  0
  7 10  2  0  0  0  0
  5  8  1  0  0  0  0
  7  6  1  0  0  0  0
  1 11  1  0  0  0  0
 11 12  1  0  0  0  0
  8 13  1  0  0  0  0
 13 14  1  0  0  0  0
  7 15  1  0  0  0  0
 15 16  2  0  0  0  0
 15 17  1  0  0  0  0
 17 18  2  0  0  0  0
 18 19  1  0  0  0  0
 20 21  1  0  0  0  0
 22 23  2  0  0  0  0
 23 24  1  0  0  0  0
 20 24  2  0  0  0  0
 21 19  2  0  0  0  0
 19 22  1  0  0  0  0
 24 25  1  0  0  0  0
 25 26  2  0  0  0  0
 25 27  2  0  0  0  0
  2 28  1  0  0  0  0
  3 29  1  0  0  0  0
  4 30  1  0  0  0  0
  9 31  1  0  0  0  0
 10 32  1  0  0  0  0
 12 33  1  0  0  0  0
 12 34  1  0  0  0  0
 12 35  1  0  0  0  0
 14 36  1  0  0  0  0
 14 37  1  0  0  0  0
 14 38  1  0  0  0  0
 17 39  1  0  0  0  0
 18 40  1  0  0  0  0
 20 41  1  0  0  0  0
 21 42  1  0  0  0  0
 22 43  1  0  0  0  0
 23 44  1  0  0  0  0
M  END
$$$$
> 709_AKC_fphar.2023.1122287
690mol
  Mrv1816 10182218143D              69.61000

 39 42  0  0  0  0            999 V2000
    1.4544    2.2550   -0.2513 C   0  0  0  0  0  0  0  0  0  0  0  0
    0.2410    1.5217   -0.1127 C   0  0  0  0  0  0  0  0  0  0  0  0
   -0.8685    2.1898    0.4758 C   0  0  0  0  0  0  0  0  0  0  0  0
   -0.7668    3.5167    0.9299 C   0  0  0  0  0  0  0  0  0  0  0  0
    0.4490    4.2078    0.8124 C   0  0  0  0  0  0  0  0  0  0  0  0
    1.5536    3.5805    0.2159 C   0  0  0  0  0  0  0  0  0  0  0  0
    2.5686    1.7382   -0.8343 O   0  0  0  0  0  0  0  0  0  0  0  0
    0.1457    0.1957   -0.5496 C   0  0  0  0  0  0  0  0  0  0  0  0
   -0.9325   -0.4919   -0.4332 N   0  0  0  0  0  0  0  0  0  0  0  0
   -1.1074   -1.6865   -0.8345 N   0  0  0  0  0  0  0  0  0  0  0  0
   -4.8304   -3.4198   -0.3179 N   0  0  0  0  0  0  0  0  0  0  0  0
   -4.3920   -2.4096    0.4700 C   0  0  0  0  0  0  0  0  0  0  0  0
   -3.1592   -1.8778    0.2685 N   0  0  0  0  0  0  0  0  0  0  0  0
   -2.3011   -2.3234   -0.6976 C   0  0  0  0  0  0  0  0  0  0  0  0
   -2.7673   -5.1021   -3.2012 C   0  0  0  0  0  0  0  0  0  0  0  0
   -4.3413   -5.1751   -2.4308 S   0  0  0  0  0  0  0  0  0  0  0  0
   -4.0124   -3.8951   -1.2832 C   0  0  0  0  0  0  0  0  0  0  0  0
   -2.7109   -3.4072   -1.5226 C   0  0  0  0  0  0  0  0  0  0  0  0
   -2.0237   -4.0780   -2.5774 C   0  0  0  0  0  0  0  0  0  0  0  0
   -0.6259   -3.8069   -3.0142 C   0  0  1  0  0  0  0  0  0  0  0  0
   -0.2039   -4.5183   -4.3317 C   0  0  1  0  0  0  0  0  0  0  0  0
   -0.7596   -5.9607   -4.4226 C   0  0  1  0  0  0  0  0  0  0  0  0
   -2.3036   -5.9862   -4.2861 C   0  0  1  0  0  0  0  0  0  0  0  0
   -1.7724    1.7220    0.5858 H   0  0  0  0  0  0  0  0  0  0  0  0
   -1.5806    3.9771    1.3444 H   0  0  0  0  0  0  0  0  0  0  0  0
    0.5277    5.1691    1.1510 H   0  0  0  0  0  0  0  0  0  0  0  0
    2.4304    4.0983    0.1151 H   0  0  0  0  0  0  0  0  0  0  0  0
    2.2421    1.1122   -1.5111 H   0  0  0  0  0  0  0  0  0  0  0  0
    0.9326   -0.2401   -0.9743 H   0  0  0  0  0  0  0  0  0  0  0  0
   -0.3787   -2.1368   -1.2861 H   0  0  0  0  0  0  0  0  0  0  0  0
   -4.9899   -2.0433    1.2100 H   0  0  0  0  0  0  0  0  0  0  0  0
   -0.4927   -2.7366   -3.1764 H   0  0  0  0  0  0  0  0  0  0  0  0
    0.0422   -4.1227   -2.2087 H   0  0  0  0  0  0  0  0  0  0  0  0
   -0.5764   -3.9438   -5.1847 H   0  0  0  0  0  0  0  0  0  0  0  0
    0.8864   -4.5430   -4.3992 H   0  0  0  0  0  0  0  0  0  0  0  0
   -0.4706   -6.4004   -5.3789 H   0  0  0  0  0  0  0  0  0  0  0  0
   -0.3185   -6.5648   -3.6262 H   0  0  0  0  0  0  0  0  0  0  0  0
   -2.6266   -7.0101   -4.0832 H   0  0  0  0  0  0  0  0  0  0  0  0
   -2.7661   -5.6599   -5.2205 H   0  0  0  0  0  0  0  0  0  0  0  0
  1  2  2  0  0  0  0
  2  3  1  0  0  0  0
  3  4  2  0  0  0  0
  4  5  1  0  0  0  0
  5  6  2  0  0  0  0
  1  6  1  0  0  0  0
  1  7  1  0  0  0  0
  9 10  1  0  0  0  0
 17 11  2  0  0  0  0
 11 12  1  0  0  0  0
 12 13  2  0  0  0  0
 13 14  1  0  0  0  0
 18 14  2  0  0  0  0
 15 16  1  0  0  0  0
 16 17  1  0  0  0  0
 17 18  1  0  0  0  0
 18 19  1  0  0  0  0
 15 19  2  0  0  0  0
 19 20  1  0  0  0  0
 20 21  1  0  0  0  0
 21 22  1  0  0  0  0
 22 23  1  0  0  0  0
 15 23  1  0  0  0  0
 10 14  1  0  0  0  0
  8  9  2  0  0  0  0
  2  8  1  0  0  0  0
  3 24  1  0  0  0  0
  4 25  1  0  0  0  0
  5 26  1  0  0  0  0
  6 27  1  0  0  0  0
  7 28  1  0  0  0  0
  8 29  1  0  0  0  0
 10 30  1  0  0  0  0
 12 31  1  0  0  0  0
 20 32  1  0  0  0  0
 20 33  1  0  0  0  0
 21 34  1  0  0  0  0
 21 35  1  0  0  0  0
 22 36  1  0  0  0  0
 22 37  1  0  0  0  0
 23 38  1  0  0  0  0
 23 39  1  0  0  0  0
M  END
>  <type>
systematic

$$$$
> 710_AKC_journal.pone.0124183

 OpenBabel10182218293D

 35 37  0  0  1  0  0  0  0  0999 V2000
   -5.8501    1.0405   -0.2244 N   0  3  0  0  0  0  0  0  0  0  0  0
   -6.9664    0.0642   -0.1410 C   0  0  1  0  0  0  0  0  0  0  0  0
   -4.6239    0.3377    0.2018 C   0  0  2  0  0  0  0  0  0  0  0  0
   -4.8628   -1.1292   -0.2139 C   0  0  1  0  0  0  0  0  0  0  0  0
   -4.3537    0.5516    1.6912 C   0  0  0  0  0  0  0  0  0  0  0  0
   -6.3223   -1.3005    0.1921 C   0  0  2  0  0  0  0  0  0  0  0  0
   -4.6769   -1.3001   -1.6046 O   0  0  0  0  0  0  0  0  0  0  0  0
   -6.9744   -2.4058   -0.3838 O   0  0  0  0  0  0  0  0  0  0  0  0
   -8.0336    0.4423    0.9098 C   0  0  0  0  0  0  0  0  0  0  0  0
   -9.1190   -0.4406    0.8530 O   0  0  0  0  0  0  0  0  0  0  0  0
   -5.1155    1.2935    2.6053 C   0  0  0  0  0  0  0  0  0  0  0  0
   -3.2496    0.1334    2.4103 C   0  0  0  0  0  0  0  0  0  0  0  0
   -3.3682    0.6186    3.6760 C   0  0  0  0  0  0  0  0  0  0  0  0
   -4.5082    1.3164    3.8103 N   0  0  0  0  0  0  0  0  0  0  0  0
   -2.1648   -0.5783    2.0156 N   0  0  0  0  0  0  0  0  0  0  0  0
   -2.3664    0.3943    4.6113 C   0  0  0  0  0  0  0  0  0  0  0  0
   -1.2757   -0.3265    4.2124 N   0  0  0  0  0  0  0  0  0  0  0  0
   -1.1735   -0.8120    2.9318 C   0  0  0  0  0  0  0  0  0  0  0  0
   -2.4408    0.9159    5.9258 N   0  0  0  0  0  0  0  0  0  0  0  0
   -6.0229    1.9610    0.2371 H   0  0  0  0  0  0  0  0  0  0  0  0
   -5.7185    1.2829   -1.2350 H   0  0  0  0  0  0  0  0  0  0  0  0
   -7.4578    0.0436   -1.1422 H   0  0  0  0  0  0  0  0  0  0  0  0
   -3.7262    0.7469   -0.3135 H   0  0  0  0  0  0  0  0  0  0  0  0
   -4.1890   -1.8585    0.2847 H   0  0  0  0  0  0  0  0  0  0  0  0
   -6.3026   -1.4281    1.2971 H   0  0  0  0  0  0  0  0  0  0  0  0
   -5.2746   -0.6942   -2.1111 H   0  0  0  0  0  0  0  0  0  0  0  0
   -7.0431   -2.2405   -1.3615 H   0  0  0  0  0  0  0  0  0  0  0  0
   -8.3848    1.4888    0.7662 H   0  0  0  0  0  0  0  0  0  0  0  0
   -7.6149    0.3864    1.9340 H   0  0  0  0  0  0  0  0  0  0  0  0
   -9.6630   -0.1622    0.0712 H   0  0  0  0  0  0  0  0  0  0  0  0
   -6.0394    1.8143    2.4173 H   0  0  0  0  0  0  0  0  0  0  0  0
   -4.8581    1.8112    4.6591 H   0  0  0  0  0  0  0  0  0  0  0  0
   -0.2946   -1.3720    2.6427 H   0  0  0  0  0  0  0  0  0  0  0  0
   -3.2515    1.4736    6.2313 H   0  0  0  0  0  0  0  0  0  0  0  0
   -1.6675    0.7631    6.5879 H   0  0  0  0  0  0  0  0  0  0  0  0
  1  2  1  0  0  0  0
  1  3  1  0  0  0  0
  1 20  1  0  0  0  0
  1 21  1  0  0  0  0
  2  9  1  0  0  0  0
  2 22  1  6  0  0  0
  3  4  1  0  0  0  0
  3  5  1  0  0  0  0
  3 23  1  6  0  0  0
  4  6  1  0  0  0  0
  4  7  1  0  0  0  0
  4 24  1  1  0  0  0
  5 11  2  0  0  0  0
  5 12  1  0  0  0  0
  6  2  1  0  0  0  0
  6  8  1  0  0  0  0
  6 25  1  1  0  0  0
  7 26  1  0  0  0  0
  8 27  1  0  0  0  0
  9 10  1  0  0  0  0
  9 28  1  0  0  0  0
  9 29  1  0  0  0  0
 10 30  1  0  0  0  0
 11 31  1  0  0  0  0
 12 13  2  0  0  0  0
 12 15  1  0  0  0  0
 13 14  1  0  0  0  0
 13 16  1  0  0  0  0
 14 11  1  0  0  0  0
 14 32  1  0  0  0  0
 15 18  2  0  0  0  0
 16 17  2  0  0  0  0
 16 19  1  0  0  0  0
 18 17  1  0  0  0  0
 18 33  1  0  0  0  0
 19 34  1  0  0  0  0
 19 35  1  0  0  0  0
M  CHG  1   1   1
M  END
$$$$
> 711_journal.pone.0124183

 OpenBabel10182218303D

 34 36  0  0  1  0  0  0  0  0999 V2000
   -5.8647    1.0352   -0.1983 N   0  3  0  0  0  0  0  0  0  0  0  0
   -6.9694    0.0443   -0.1433 C   0  0  1  0  0  0  0  0  0  0  0  0
   -4.6327    0.3359    0.2178 C   0  0  2  0  0  0  0  0  0  0  0  0
   -4.8620   -1.1307   -0.2061 C   0  0  1  0  0  0  0  0  0  0  0  0
   -4.3582    0.5491    1.7080 C   0  0  0  0  0  0  0  0  0  0  0  0
   -6.3210   -1.3156    0.1989 C   0  0  2  0  0  0  0  0  0  0  0  0
   -4.6779   -1.2883   -1.5987 O   0  0  0  0  0  0  0  0  0  0  0  0
   -6.9654   -2.4272   -0.3763 O   0  0  0  0  0  0  0  0  0  0  0  0
   -8.0568    0.4212    0.8839 C   0  0  0  0  0  0  0  0  0  0  0  0
   -9.1203   -0.4886    0.8516 O   0  0  0  0  0  0  0  0  0  0  0  0
   -5.1198    1.2873    2.6282 C   0  0  0  0  0  0  0  0  0  0  0  0
   -3.2497    0.1326    2.4214 C   0  0  0  0  0  0  0  0  0  0  0  0
   -3.3685    0.6166    3.6884 C   0  0  0  0  0  0  0  0  0  0  0  0
   -4.5052    1.3100    3.8296 N   0  0  0  0  0  0  0  0  0  0  0  0
   -2.1684   -0.5792    2.0248 N   0  0  0  0  0  0  0  0  0  0  0  0
   -2.3704    0.3882    4.6181 C   0  0  0  0  0  0  0  0  0  0  0  0
   -1.2705   -0.3375    4.2224 N   0  0  0  0  0  0  0  0  0  0  0  0
   -1.1733   -0.8187    2.9368 C   0  0  0  0  0  0  0  0  0  0  0  0
   -2.4545    0.8288    5.7535 O   0  0  0  0  0  0  0  0  0  0  0  0
   -6.0510    1.9318    0.3016 H   0  0  0  0  0  0  0  0  0  0  0  0
   -5.7384    1.3242   -1.1969 H   0  0  0  0  0  0  0  0  0  0  0  0
   -7.4382    0.0157   -1.1549 H   0  0  0  0  0  0  0  0  0  0  0  0
   -3.7390    0.7515   -0.2994 H   0  0  0  0  0  0  0  0  0  0  0  0
   -4.1788   -1.8567    0.2846 H   0  0  0  0  0  0  0  0  0  0  0  0
   -6.3109   -1.4423    1.3039 H   0  0  0  0  0  0  0  0  0  0  0  0
   -5.2722   -0.6720   -2.0971 H   0  0  0  0  0  0  0  0  0  0  0  0
   -6.9751   -2.2995   -1.3618 H   0  0  0  0  0  0  0  0  0  0  0  0
   -8.4311    1.4526    0.7004 H   0  0  0  0  0  0  0  0  0  0  0  0
   -7.6350    0.4028    1.9080 H   0  0  0  0  0  0  0  0  0  0  0  0
   -9.5545   -0.3805   -0.0335 H   0  0  0  0  0  0  0  0  0  0  0  0
   -6.0469    1.8036    2.4489 H   0  0  0  0  0  0  0  0  0  0  0  0
   -4.8462    1.7999    4.6869 H   0  0  0  0  0  0  0  0  0  0  0  0
   -0.3009   -1.3843    2.6413 H   0  0  0  0  0  0  0  0  0  0  0  0
   -0.4975   -0.5216    4.9009 H   0  0  0  0  0  0  0  0  0  0  0  0
  1  2  1  0  0  0  0
  1  3  1  0  0  0  0
  1 20  1  0  0  0  0
  1 21  1  0  0  0  0
  2  9  1  0  0  0  0
  2 22  1  6  0  0  0
  3  4  1  0  0  0  0
  3  5  1  0  0  0  0
  3 23  1  6  0  0  0
  4  6  1  0  0  0  0
  4  7  1  0  0  0  0
  4 24  1  1  0  0  0
  5 11  2  0  0  0  0
  5 12  1  0  0  0  0
  6  2  1  0  0  0  0
  6  8  1  0  0  0  0
  6 25  1  1  0  0  0
  7 26  1  0  0  0  0
  8 27  1  0  0  0  0
  9 10  1  0  0  0  0
  9 28  1  0  0  0  0
  9 29  1  0  0  0  0
 10 30  1  0  0  0  0
 11 31  1  0  0  0  0
 12 13  2  0  0  0  0
 12 15  1  0  0  0  0
 13 14  1  0  0  0  0
 13 16  1  0  0  0  0
 14 11  1  0  0  0  0
 14 32  1  0  0  0  0
 15 18  2  0  0  0  0
 16 17  1  0  0  0  0
 16 19  2  0  0  0  0
 17 34  1  0  0  0  0
 18 17  1  0  0  0  0
 18 33  1  0  0  0  0
M  CHG  1   1   1
M  END
$$$$
> 712_AKC_journal.pone.0124183

 OpenBabel10182218343D

 32 33  0  0  1  0  0  0  0  0999 V2000
   -5.8351    0.9306   -0.2895 N   0  3  0  0  0  0  0  0  0  0  0  0
   -6.9515   -0.0674   -0.2063 C   0  0  0  0  0  0  0  0  0  0  0  0
   -4.5150    0.5879    0.2893 C   0  0  0  0  0  0  0  0  0  0  0  0
   -4.3629    0.7297    1.7809 C   0  0  0  0  0  0  0  0  0  0  0  0
   -6.4789   -1.5327   -0.0144 C   0  0  0  0  0  0  0  0  0  0  0  0
   -7.5475   -2.4361   -0.1057 O   0  0  0  0  0  0  0  0  0  0  0  0
   -8.0128    0.3353    0.8446 C   0  0  0  0  0  0  0  0  0  0  0  0
   -9.1443   -0.4924    0.7764 O   0  0  0  0  0  0  0  0  0  0  0  0
   -5.1859    1.3014    2.6861 C   0  0  0  0  0  0  0  0  0  0  0  0
   -3.1755    0.2804    2.5055 C   0  0  1  0  0  0  0  0  0  0  0  0
   -3.3683    0.6230    3.8548 C   0  0  2  0  0  0  0  0  0  0  0  0
   -4.6109    1.2519    3.9863 N   0  3  0  0  0  0  0  0  0  0  0  0
   -2.0097   -0.3894    2.0692 N   0  0  0  0  0  0  0  0  0  0  0  0
   -2.3168    0.3043    4.8079 C   0  0  0  0  0  0  0  0  0  0  0  0
   -1.2073   -0.3371    4.3304 N   0  0  0  0  0  0  0  0  0  0  0  0
   -1.0806   -0.6857    2.9318 C   0  0  0  0  0  0  0  0  0  0  0  0
   -2.4163    0.5989    5.9876 O   0  0  0  0  0  0  0  0  0  0  0  0
   -6.1376    1.8861    0.0122 H   0  0  0  0  0  0  0  0  0  0  0  0
   -5.6339    1.0282   -1.3134 H   0  0  0  0  0  0  0  0  0  0  0  0
   -7.4886   -0.0284   -1.1837 H   0  0  0  0  0  0  0  0  0  0  0  0
   -3.7440    1.2618   -0.1468 H   0  0  0  0  0  0  0  0  0  0  0  0
   -6.0105   -1.6505    0.9870 H   0  0  0  0  0  0  0  0  0  0  0  0
   -7.7006   -2.5992   -1.0733 H   0  0  0  0  0  0  0  0  0  0  0  0
   -8.3326    1.3910    0.6858 H   0  0  0  0  0  0  0  0  0  0  0  0
   -7.6005    0.2572    1.8659 H   0  0  0  0  0  0  0  0  0  0  0  0
   -9.6244   -0.2570   -0.0609 H   0  0  0  0  0  0  0  0  0  0  0  0
   -5.0209    1.6253    4.8539 H   0  0  0  0  0  0  0  0  0  0  0  0
   -0.1906   -1.2040    2.5911 H   0  0  0  0  0  0  0  0  0  0  0  0
   -0.4404   -0.5805    4.9759 H   0  0  0  0  0  0  0  0  0  0  0  0
   -4.1959   -0.4261   -0.0164 H   0  0  0  0  0  0  0  0  0  0  0  0
   -5.7152   -1.8055   -0.7771 H   0  0  0  0  0  0  0  0  0  0  0  0
   -6.1338    1.7699    2.4743 H   0  0  0  0  0  0  0  0  0  0  0  0
  1  2  1  0  0  0  0
  1  3  1  0  0  0  0
  1 18  1  0  0  0  0
  1 19  1  0  0  0  0
  2  7  1  0  0  0  0
  2 20  1  0  0  0  0
  3 21  1  0  0  0  0
  4  3  1  0  0  0  0
  4  9  2  0  0  0  0
  5  2  1  0  0  0  0
  5  6  1  0  0  0  0
  5 22  1  0  0  0  0
  6 23  1  0  0  0  0
  7  8  1  0  0  0  0
  7 24  1  0  0  0  0
  7 25  1  0  0  0  0
  8 26  1  0  0  0  0
  9 32  1  0  0  0  0
 10  4  1  1  0  0  0
 10 11  1  0  0  0  0
 10 13  1  0  0  0  0
 11 12  1  6  0  0  0
 11 14  1  0  0  0  0
 12  9  1  0  0  0  0
 12 27  1  0  0  0  0
 13 16  2  0  0  0  0
 14 15  1  0  0  0  0
 14 17  2  0  0  0  0
 15 29  1  0  0  0  0
 16 15  1  0  0  0  0
 16 28  1  0  0  0  0
 30  3  1  0  0  0  0
 31  5  1  0  0  0  0
M  CHG  2   1   1  12   1
M  END
>  <MOL Chiral Flag>
1

$$$$
> 713_AKC_nature19339

  Mrv1816 10182218443D              72.09000

 35 38  0  0  0  0            999 V2000
    3.7774    6.2453   -5.9168 C   0  0  0  0  0  0  0  0  0  0  0  0
    4.6319    7.1359   -6.6005 C   0  0  0  0  0  0  0  0  0  0  0  0
    5.9835    7.2783   -6.2063 C   0  0  0  0  0  0  0  0  0  0  0  0
    6.5044    6.5134   -5.1389 C   0  0  0  0  0  0  0  0  0  0  0  0
    5.6393    5.6359   -4.4658 C   0  0  0  0  0  0  0  0  0  0  0  0
    4.3069    5.5145   -4.8417 C   0  0  0  0  0  0  0  0  0  0  0  0
    5.8682    4.8127   -3.4356 N   0  0  0  0  0  0  0  0  0  0  0  0
    4.6883    4.2097   -3.1700 C   0  0  0  0  0  0  0  0  0  0  0  0
    3.7167    4.6256   -4.0234 O   0  0  0  0  0  0  0  0  0  0  0  0
    4.4855    3.2486   -2.1563 C   0  0  0  0  0  0  0  0  0  0  0  0
    3.3030    3.2124   -1.3701 C   0  0  0  0  0  0  0  0  0  0  0  0
    3.1435    2.2029   -0.4006 C   0  0  0  0  0  0  0  0  0  0  0  0
    4.1450    1.2391   -0.1997 C   0  0  0  0  0  0  0  0  0  0  0  0
    5.3340    1.2719   -0.9535 C   0  0  0  0  0  0  0  0  0  0  0  0
    5.4903    2.2758   -1.9356 C   0  0  0  0  0  0  0  0  0  0  0  0
    2.0569    4.3615   -1.5101 Cl  0  0  0  0  0  0  0  0  0  0  0  0
    6.2571    0.2993   -0.7047 N   0  0  0  0  0  0  0  0  0  0  0  0
    7.6127    0.4295   -0.6793 C   0  0  0  0  0  0  0  0  0  0  0  0
    8.1748    1.5377   -0.8529 O   0  0  0  0  0  0  0  0  0  0  0  0
    8.3966   -0.7081   -0.4055 C   0  0  0  0  0  0  0  0  0  0  0  0
    9.7666   -0.7358   -0.1395 C   0  0  0  0  0  0  0  0  0  0  0  0
   10.1196   -2.0559    0.0881 C   0  0  0  0  0  0  0  0  0  0  0  0
    8.9598   -2.8029   -0.0535 C   0  0  0  0  0  0  0  0  0  0  0  0
    7.9244   -1.9807   -0.3484 O   0  0  0  0  0  0  0  0  0  0  0  0
    2.8005    6.1319   -6.1953 H   0  0  0  0  0  0  0  0  0  0  0  0
    4.2689    7.6818   -7.3850 H   0  0  0  0  0  0  0  0  0  0  0  0
    6.5886    7.9388   -6.6981 H   0  0  0  0  0  0  0  0  0  0  0  0
    7.4844    6.5952   -4.8598 H   0  0  0  0  0  0  0  0  0  0  0  0
    2.2963    2.1627    0.1693 H   0  0  0  0  0  0  0  0  0  0  0  0
    4.0038    0.5158    0.5101 H   0  0  0  0  0  0  0  0  0  0  0  0
    6.3341    2.2749   -2.5156 H   0  0  0  0  0  0  0  0  0  0  0  0
    5.9011   -0.5714   -0.4692 H   0  0  0  0  0  0  0  0  0  0  0  0
   10.3986    0.0657   -0.1085 H   0  0  0  0  0  0  0  0  0  0  0  0
   11.0499   -2.4094    0.3199 H   0  0  0  0  0  0  0  0  0  0  0  0
    8.8946   -3.8155    0.0513 H   0  0  0  0  0  0  0  0  0  0  0  0
  1  2  2  0  0  0  0
  2  3  1  0  0  0  0
  3  4  2  0  0  0  0
  4  5  1  0  0  0  0
  5  6  2  0  0  0  0
  1  6  1  0  0  0  0
  7  8  2  0  0  0  0
  8  9  1  0  0  0  0
  5  7  1  0  0  0  0
  6  9  1  0  0  0  0
 11 12  2  0  0  0  0
 12 13  1  0  0  0  0
 13 14  2  0  0  0  0
 14 15  1  0  0  0  0
 10 11  1  0  0  0  0
 10 15  2  0  0  0  0
  8 10  1  0  0  0  0
 11 16  1  0  0  0  0
 14 17  1  0  0  0  0
 17 18  1  0  0  0  0
 18 19  2  0  0  0  0
 21 22  1  0  0  0  0
 22 23  2  0  0  0  0
 23 24  1  0  0  0  0
 20 21  2  0  0  0  0
 20 24  1  0  0  0  0
 18 20  1  0  0  0  0
  1 25  1  0  0  0  0
  2 26  1  0  0  0  0
  3 27  1  0  0  0  0
  4 28  1  0  0  0  0
 12 29  1  0  0  0  0
 13 30  1  0  0  0  0
 15 31  1  0  0  0  0
 17 32  1  0  0  0  0
 21 33  1  0  0  0  0
 22 34  1  0  0  0  0
 23 35  1  0  0  0  0
M  END
$$$$
> 714_AKC_nature19339

  Mrv1816 10182218473D              89.38000

 49 52  0  0  0  0            999 V2000
   -2.5776   -0.8386    4.1899 C   0  0  0  0  0  0  0  0  0  0  0  0
   -1.1786   -0.6378    4.0723 C   0  0  0  0  0  0  0  0  0  0  0  0
   -0.7505    0.4485    3.2692 C   0  0  0  0  0  0  0  0  0  0  0  0
   -1.6483    1.2743    2.6651 N   0  0  0  0  0  0  0  0  0  0  0  0
   -2.9757    1.0451    2.8073 C   0  0  0  0  0  0  0  0  0  0  0  0
   -3.4190    0.0110    3.5453 N   0  0  0  0  0  0  0  0  0  0  0  0
   -4.0071    1.7159    2.2677 N   0  0  0  0  0  0  0  0  0  0  0  0
   -5.1325    1.0795    2.6577 C   0  0  0  0  0  0  0  0  0  0  0  0
   -4.7563    0.0110    3.4737 C   0  0  0  0  0  0  0  0  0  0  0  0
   -6.4588    1.4187    2.2774 C   0  0  0  0  0  0  0  0  0  0  0  0
   -6.9222    2.7601    2.2417 C   0  0  0  0  0  0  0  0  0  0  0  0
   -8.2325    3.0411    1.8067 C   0  0  0  0  0  0  0  0  0  0  0  0
   -9.0914    2.0021    1.4099 C   0  0  0  0  0  0  0  0  0  0  0  0
   -8.6700    0.6580    1.4608 C   0  0  0  0  0  0  0  0  0  0  0  0
   -7.3514    0.3846    1.8953 C   0  0  0  0  0  0  0  0  0  0  0  0
   -5.9759    4.0773    2.7442 Cl  0  0  0  0  0  0  0  0  0  0  0  0
   -9.5626   -0.2937    1.0428 N   0  0  0  0  0  0  0  0  0  0  0  0
   -9.6935   -1.5861    1.4673 C   0  0  0  0  0  0  0  0  0  0  0  0
   -9.0085   -2.0488    2.4093 O   0  0  0  0  0  0  0  0  0  0  0  0
  -10.6489   -2.4434    0.8854 C   0  0  0  0  0  0  0  0  0  0  0  0
  -11.4530   -2.1988   -0.2291 C   0  0  0  0  0  0  0  0  0  0  0  0
  -12.2347   -3.3261   -0.4285 C   0  0  0  0  0  0  0  0  0  0  0  0
  -11.8982   -4.2283    0.5710 C   0  0  0  0  0  0  0  0  0  0  0  0
  -10.9360   -3.6853    1.3536 O   0  0  0  0  0  0  0  0  0  0  0  0
   -0.2220   -1.4333    4.6379 N   0  0  0  0  0  0  0  0  0  0  0  0
   -0.3028   -2.1893    5.7668 C   0  0  0  0  0  0  0  0  0  0  0  0
   -1.3064   -2.1919    6.5175 O   0  0  0  0  0  0  0  0  0  0  0  0
    0.7957   -2.9448    6.0682 O   0  0  0  0  0  0  0  0  0  0  0  0
    1.0679   -3.7649    7.2205 C   0  0  1  0  0  0  0  0  0  0  0  0
    1.2075   -2.8957    8.4956 C   0  0  0  0  0  0  0  0  0  0  0  0
    0.0629   -4.9333    7.3885 C   0  0  0  0  0  0  0  0  0  0  0  0
   -2.9627   -1.6207    4.7248 H   0  0  0  0  0  0  0  0  0  0  0  0
    0.2462    0.6316    3.1312 H   0  0  0  0  0  0  0  0  0  0  0  0
   -5.3863   -0.6543    3.9293 H   0  0  0  0  0  0  0  0  0  0  0  0
   -8.5738    4.0057    1.7778 H   0  0  0  0  0  0  0  0  0  0  0  0
  -10.0361    2.2346    1.0908 H   0  0  0  0  0  0  0  0  0  0  0  0
   -7.0267   -0.5838    1.9029 H   0  0  0  0  0  0  0  0  0  0  0  0
  -10.2048    0.0002    0.3770 H   0  0  0  0  0  0  0  0  0  0  0  0
  -11.4691   -1.3538   -0.8039 H   0  0  0  0  0  0  0  0  0  0  0  0
  -12.9268   -3.4651   -1.1668 H   0  0  0  0  0  0  0  0  0  0  0  0
  -12.3076   -5.1555    0.6989 H   0  0  0  0  0  0  0  0  0  0  0  0
    0.6399   -1.4396    4.1912 H   0  0  0  0  0  0  0  0  0  0  0  0
    2.0453   -4.2138    7.0298 H   0  0  0  0  0  0  0  0  0  0  0  0
    0.2412   -2.4894    8.7972 H   0  0  0  0  0  0  0  0  0  0  0  0
    1.6094   -3.4905    9.3185 H   0  0  0  0  0  0  0  0  0  0  0  0
    1.8905   -2.0643    8.3041 H   0  0  0  0  0  0  0  0  0  0  0  0
   -0.9355   -4.5644    7.6254 H   0  0  0  0  0  0  0  0  0  0  0  0
    0.3870   -5.5977    8.1924 H   0  0  0  0  0  0  0  0  0  0  0  0
    0.0115   -5.5128    6.4650 H   0  0  0  0  0  0  0  0  0  0  0  0
  1  2  2  0  0  0  0
  2  3  1  0  0  0  0
  3  4  2  0  0  0  0
  4  5  1  0  0  0  0
  5  6  1  0  0  0  0
  1  6  1  0  0  0  0
  7  8  1  0  0  0  0
  8  9  2  0  0  0  0
  5  7  2  0  0  0  0
  6  9  1  0  0  0  0
 11 12  2  0  0  0  0
 12 13  1  0  0  0  0
 13 14  2  0  0  0  0
 14 15  1  0  0  0  0
 10 11  1  0  0  0  0
 10 15  2  0  0  0  0
  8 10  1  0  0  0  0
 11 16  1  0  0  0  0
 14 17  1  0  0  0  0
 17 18  1  0  0  0  0
 18 19  2  0  0  0  0
 21 22  1  0  0  0  0
 22 23  2  0  0  0  0
 23 24  1  0  0  0  0
 20 21  2  0  0  0  0
 20 24  1  0  0  0  0
 18 20  1  0  0  0  0
  2 25  1  0  0  0  0
 25 26  1  0  0  0  0
 26 27  2  0  0  0  0
 26 28  1  0  0  0  0
 28 29  1  0  0  0  0
 29 30  1  0  0  0  0
 29 31  1  0  0  0  0
  1 32  1  0  0  0  0
  3 33  1  0  0  0  0
  9 34  1  0  0  0  0
 12 35  1  0  0  0  0
 13 36  1  0  0  0  0
 15 37  1  0  0  0  0
 17 38  1  0  0  0  0
 21 39  1  0  0  0  0
 22 40  1  0  0  0  0
 23 41  1  0  0  0  0
 25 42  1  0  0  0  0
 29 43  1  0  0  0  0
 30 44  1  0  0  0  0
 30 45  1  0  0  0  0
 30 46  1  0  0  0  0
 31 47  1  0  0  0  0
 31 48  1  0  0  0  0
 31 49  1  0  0  0  0
M  END
$$$$
> 715_AKC_nature19339

  Mrv1816 10182218493D              95.77000

 49 53  0  0  0  0            999 V2000
   -3.8255   -1.8301    6.0260 C   0  0  0  0  0  0  0  0  0  0  0  0
   -4.5206   -1.5966    7.2343 C   0  0  0  0  0  0  0  0  0  0  0  0
   -5.3120   -0.4228    7.3160 C   0  0  0  0  0  0  0  0  0  0  0  0
   -5.3956    0.4354    6.2606 N   0  0  0  0  0  0  0  0  0  0  0  0
   -4.6995    0.1748    5.1278 C   0  0  0  0  0  0  0  0  0  0  0  0
   -3.9300   -0.9214    5.0268 N   0  0  0  0  0  0  0  0  0  0  0  0
   -4.6053    0.8836    3.9965 N   0  0  0  0  0  0  0  0  0  0  0  0
   -3.7279    0.1941    3.2410 C   0  0  0  0  0  0  0  0  0  0  0  0
   -3.3329   -0.9212    3.8860 N   0  0  0  0  0  0  0  0  0  0  0  0
   -3.2171    0.5947    1.9863 C   0  0  0  0  0  0  0  0  0  0  0  0
   -4.0242    1.1070    0.9393 C   0  0  0  0  0  0  0  0  0  0  0  0
   -3.4197    1.5413   -0.2578 C   0  0  0  0  0  0  0  0  0  0  0  0
   -2.0272    1.4520   -0.4293 C   0  0  0  0  0  0  0  0  0  0  0  0
   -1.2108    0.9017    0.5782 C   0  0  0  0  0  0  0  0  0  0  0  0
   -1.8191    0.4987    1.7886 C   0  0  0  0  0  0  0  0  0  0  0  0
   -5.7158    1.2052    1.0470 Cl  0  0  0  0  0  0  0  0  0  0  0  0
    0.1326    0.8332    0.3305 N   0  0  0  0  0  0  0  0  0  0  0  0
    1.0435   -0.0482    0.8366 C   0  0  0  0  0  0  0  0  0  0  0  0
    0.7026   -1.0098    1.5649 O   0  0  0  0  0  0  0  0  0  0  0  0
    2.4038    0.1341    0.5157 C   0  0  0  0  0  0  0  0  0  0  0  0
    3.4893   -0.7194    0.7449 C   0  0  0  0  0  0  0  0  0  0  0  0
    4.5995   -0.1085    0.3030 N   0  0  0  0  0  0  0  0  0  0  0  0
    4.2256    1.0821   -0.1900 C   0  0  0  0  0  0  0  0  0  0  0  0
    2.8885    1.2481   -0.0782 O   0  0  0  0  0  0  0  0  0  0  0  0
   -4.3919   -2.5060    8.3085 C   0  0  0  0  0  0  0  0  0  0  0  0
   -4.8268   -3.8453    8.1677 C   0  0  0  0  0  0  0  0  0  0  0  0
   -4.6474   -4.7683    9.2142 C   0  0  0  0  0  0  0  0  0  0  0  0
   -4.0288   -4.3627   10.4104 C   0  0  0  0  0  0  0  0  0  0  0  0
   -3.5939   -3.0330   10.5614 C   0  0  0  0  0  0  0  0  0  0  0  0
   -3.7791   -2.1054    9.5186 C   0  0  0  0  0  0  0  0  0  0  0  0
    5.1503    2.0701   -0.7540 C   0  0  0  0  0  0  0  0  0  0  0  0
    3.4782   -2.0657    1.3445 C   0  0  0  0  0  0  0  0  0  0  0  0
   -3.2357   -2.6578    5.9062 H   0  0  0  0  0  0  0  0  0  0  0  0
   -5.8337   -0.2057    8.1675 H   0  0  0  0  0  0  0  0  0  0  0  0
   -3.9888    1.9264   -1.0172 H   0  0  0  0  0  0  0  0  0  0  0  0
   -1.6116    1.7877   -1.3023 H   0  0  0  0  0  0  0  0  0  0  0  0
   -1.2303    0.1650    2.5548 H   0  0  0  0  0  0  0  0  0  0  0  0
    0.4767    1.4816   -0.3049 H   0  0  0  0  0  0  0  0  0  0  0  0
   -5.2746   -4.1609    7.3028 H   0  0  0  0  0  0  0  0  0  0  0  0
   -4.9631   -5.7349    9.1028 H   0  0  0  0  0  0  0  0  0  0  0  0
   -3.8953   -5.0343   11.1696 H   0  0  0  0  0  0  0  0  0  0  0  0
   -3.1362   -2.7417   11.4275 H   0  0  0  0  0  0  0  0  0  0  0  0
   -3.4466   -1.1445    9.6430 H   0  0  0  0  0  0  0  0  0  0  0  0
    5.7232    1.6246   -1.5686 H   0  0  0  0  0  0  0  0  0  0  0  0
    4.5953    2.9266   -1.1383 H   0  0  0  0  0  0  0  0  0  0  0  0
    5.8365    2.4100    0.0237 H   0  0  0  0  0  0  0  0  0  0  0  0
    3.0609   -2.0279    2.3507 H   0  0  0  0  0  0  0  0  0  0  0  0
    4.4916   -2.4637    1.4091 H   0  0  0  0  0  0  0  0  0  0  0  0
    2.8788   -2.7386    0.7298 H   0  0  0  0  0  0  0  0  0  0  0  0
  1  2  2  0  0  0  0
  2  3  1  0  0  0  0
  3  4  2  0  0  0  0
  4  5  1  0  0  0  0
  5  6  1  0  0  0  0
  1  6  1  0  0  0  0
  7  8  1  0  0  0  0
  8  9  2  0  0  0  0
  5  7  2  0  0  0  0
  6  9  1  0  0  0  0
 11 12  2  0  0  0  0
 12 13  1  0  0  0  0
 13 14  2  0  0  0  0
 14 15  1  0  0  0  0
 10 11  1  0  0  0  0
 10 15  2  0  0  0  0
  8 10  1  0  0  0  0
 11 16  1  0  0  0  0
 14 17  1  0  0  0  0
 17 18  1  0  0  0  0
 18 19  2  0  0  0  0
 21 22  1  0  0  0  0
 22 23  2  0  0  0  0
 23 24  1  0  0  0  0
 20 21  2  0  0  0  0
 20 24  1  0  0  0  0
 18 20  1  0  0  0  0
 26 27  2  0  0  0  0
 27 28  1  0  0  0  0
 28 29  2  0  0  0  0
 29 30  1  0  0  0  0
 25 26  1  0  0  0  0
 25 30  2  0  0  0  0
  2 25  1  0  0  0  0
 23 31  1  0  0  0  0
 21 32  1  0  0  0  0
  1 33  1  0  0  0  0
  3 34  1  0  0  0  0
 12 35  1  0  0  0  0
 13 36  1  0  0  0  0
 15 37  1  0  0  0  0
 17 38  1  0  0  0  0
 26 39  1  0  0  0  0
 27 40  1  0  0  0  0
 28 41  1  0  0  0  0
 29 42  1  0  0  0  0
 30 43  1  0  0  0  0
 31 44  1  0  0  0  0
 31 45  1  0  0  0  0
 31 46  1  0  0  0  0
 32 47  1  0  0  0  0
 32 48  1  0  0  0  0
 32 49  1  0  0  0  0
M  END
$$$$
> 716_AKC_nature19339

  Mrv1816 10182218493D              91.34000

 48 52  0  0  0  0            999 V2000
   -3.8411   -1.8931    6.0294 C   0  0  0  0  0  0  0  0  0  0  0  0
   -4.6808   -1.7698    7.1628 C   0  0  0  0  0  0  0  0  0  0  0  0
   -5.5790   -0.6711    7.1857 C   0  0  0  0  0  0  0  0  0  0  0  0
   -5.6487    0.1982    6.1375 N   0  0  0  0  0  0  0  0  0  0  0  0
   -4.8352    0.0235    5.0666 C   0  0  0  0  0  0  0  0  0  0  0  0
   -3.9487   -0.9852    5.0282 N   0  0  0  0  0  0  0  0  0  0  0  0
   -4.7258    0.7387    3.9394 N   0  0  0  0  0  0  0  0  0  0  0  0
   -3.7278    0.1473    3.2485 C   0  0  0  0  0  0  0  0  0  0  0  0
   -3.2681   -0.9189    3.9349 N   0  0  0  0  0  0  0  0  0  0  0  0
   -3.1922    0.5796    2.0078 C   0  0  0  0  0  0  0  0  0  0  0  0
   -3.9650    1.2804    1.0486 C   0  0  0  0  0  0  0  0  0  0  0  0
   -3.3740    1.7261   -0.1489 C   0  0  0  0  0  0  0  0  0  0  0  0
   -2.0199    1.4569   -0.4146 C   0  0  0  0  0  0  0  0  0  0  0  0
   -1.2328    0.7327    0.5041 C   0  0  0  0  0  0  0  0  0  0  0  0
   -1.8266    0.3300    1.7223 C   0  0  0  0  0  0  0  0  0  0  0  0
   -5.2331    1.5350    1.2356 F   0  0  0  0  0  0  0  0  0  0  0  0
    0.0761    0.5088    0.1726 N   0  0  0  0  0  0  0  0  0  0  0  0
    0.9146   -0.4832    0.5910 C   0  0  0  0  0  0  0  0  0  0  0  0
    0.5218   -1.4382    1.3019 O   0  0  0  0  0  0  0  0  0  0  0  0
    2.2658   -0.4125    0.1904 C   0  0  0  0  0  0  0  0  0  0  0  0
    3.2860   -1.3637    0.3087 C   0  0  0  0  0  0  0  0  0  0  0  0
    4.4183   -0.8195   -0.1658 N   0  0  0  0  0  0  0  0  0  0  0  0
    4.1229    0.4194   -0.5903 C   0  0  0  0  0  0  0  0  0  0  0  0
    2.8110    0.6809   -0.3918 O   0  0  0  0  0  0  0  0  0  0  0  0
   -4.6239   -2.7221    8.2056 C   0  0  0  0  0  0  0  0  0  0  0  0
   -4.7287   -4.1068    7.9346 C   0  0  0  0  0  0  0  0  0  0  0  0
   -4.6480   -5.0263    8.9949 C   0  0  0  0  0  0  0  0  0  0  0  0
   -4.4521   -4.5651   10.3086 C   0  0  0  0  0  0  0  0  0  0  0  0
   -4.3477   -3.1804   10.5364 C   0  0  0  0  0  0  0  0  0  0  0  0
   -4.4481   -2.3141    9.4935 N   0  0  0  0  0  0  0  0  0  0  0  0
    5.0967    1.3599   -1.1617 C   0  0  0  0  0  0  0  0  0  0  0  0
    3.1984   -2.7366    0.8333 C   0  0  0  0  0  0  0  0  0  0  0  0
   -3.1550   -2.6523    5.9569 H   0  0  0  0  0  0  0  0  0  0  0  0
   -6.2048   -0.5246    7.9816 H   0  0  0  0  0  0  0  0  0  0  0  0
   -3.9266    2.2496   -0.8347 H   0  0  0  0  0  0  0  0  0  0  0  0
   -1.6101    1.7925   -1.2899 H   0  0  0  0  0  0  0  0  0  0  0  0
   -1.2438   -0.1226    2.4299 H   0  0  0  0  0  0  0  0  0  0  0  0
    0.4576    1.1290   -0.4686 H   0  0  0  0  0  0  0  0  0  0  0  0
   -4.8674   -4.4494    6.9794 H   0  0  0  0  0  0  0  0  0  0  0  0
   -4.7293   -6.0280    8.8090 H   0  0  0  0  0  0  0  0  0  0  0  0
   -4.3867   -5.2266   11.0865 H   0  0  0  0  0  0  0  0  0  0  0  0
   -4.1915   -2.8238   11.4819 H   0  0  0  0  0  0  0  0  0  0  0  0
    5.6632    0.8765   -1.9594 H   0  0  0  0  0  0  0  0  0  0  0  0
    4.5895    2.2370   -1.5676 H   0  0  0  0  0  0  0  0  0  0  0  0
    5.7849    1.6799   -0.3781 H   0  0  0  0  0  0  0  0  0  0  0  0
    2.8971   -2.7198    1.8818 H   0  0  0  0  0  0  0  0  0  0  0  0
    4.1653   -3.2383    0.7544 H   0  0  0  0  0  0  0  0  0  0  0  0
    2.4667   -3.3040    0.2553 H   0  0  0  0  0  0  0  0  0  0  0  0
  1  2  2  0  0  0  0
  2  3  1  0  0  0  0
  3  4  2  0  0  0  0
  4  5  1  0  0  0  0
  5  6  1  0  0  0  0
  1  6  1  0  0  0  0
  7  8  1  0  0  0  0
  8  9  2  0  0  0  0
  5  7  2  0  0  0  0
  6  9  1  0  0  0  0
 11 12  2  0  0  0  0
 12 13  1  0  0  0  0
 13 14  2  0  0  0  0
 14 15  1  0  0  0  0
 10 11  1  0  0  0  0
 10 15  2  0  0  0  0
  8 10  1  0  0  0  0
 11 16  1  0  0  0  0
 14 17  1  0  0  0  0
 17 18  1  0  0  0  0
 18 19  2  0  0  0  0
 21 22  1  0  0  0  0
 22 23  2  0  0  0  0
 23 24  1  0  0  0  0
 20 21  2  0  0  0  0
 20 24  1  0  0  0  0
 18 20  1  0  0  0  0
 26 27  2  0  0  0  0
 27 28  1  0  0  0  0
 28 29  2  0  0  0  0
 29 30  1  0  0  0  0
 25 26  1  0  0  0  0
 25 30  2  0  0  0  0
  2 25  1  0  0  0  0
 23 31  1  0  0  0  0
 21 32  1  0  0  0  0
  1 33  1  0  0  0  0
  3 34  1  0  0  0  0
 12 35  1  0  0  0  0
 13 36  1  0  0  0  0
 15 37  1  0  0  0  0
 17 38  1  0  0  0  0
 26 39  1  0  0  0  0
 27 40  1  0  0  0  0
 28 41  1  0  0  0  0
 29 42  1  0  0  0  0
 31 43  1  0  0  0  0
 31 44  1  0  0  0  0
 31 45  1  0  0  0  0
 32 46  1  0  0  0  0
 32 47  1  0  0  0  0
 32 48  1  0  0  0  0
M  END
$$$$
> 717_AKC_acs.jmedchem.0c00499

  Mrv1816 10182218523D              96.08000

 51 55  0  0  0  0            999 V2000
   -3.8448   -1.7297    6.0817 C   0  0  0  0  0  0  0  0  0  0  0  0
   -4.8397   -1.7445    7.0848 C   0  0  0  0  0  0  0  0  0  0  0  0
   -5.9440   -0.8712    6.9202 C   0  0  0  0  0  0  0  0  0  0  0  0
   -6.0407   -0.0673    5.8249 N   0  0  0  0  0  0  0  0  0  0  0  0
   -5.0671   -0.1004    4.8849 C   0  0  0  0  0  0  0  0  0  0  0  0
   -4.0027   -0.9055    5.0193 N   0  0  0  0  0  0  0  0  0  0  0  0
   -4.9580    0.5779    3.7369 N   0  0  0  0  0  0  0  0  0  0  0  0
   -3.7969    0.1600    3.1894 C   0  0  0  0  0  0  0  0  0  0  0  0
   -3.2260   -0.7513    4.0047 N   0  0  0  0  0  0  0  0  0  0  0  0
   -3.2437    0.5693    1.9454 C   0  0  0  0  0  0  0  0  0  0  0  0
   -4.0253    1.1872    0.9359 C   0  0  0  0  0  0  0  0  0  0  0  0
   -3.4460    1.5452   -0.2959 C   0  0  0  0  0  0  0  0  0  0  0  0
   -2.0863    1.2931   -0.5408 C   0  0  0  0  0  0  0  0  0  0  0  0
   -1.2802    0.6770    0.4378 C   0  0  0  0  0  0  0  0  0  0  0  0
   -1.8687    0.3443    1.6805 C   0  0  0  0  0  0  0  0  0  0  0  0
   -5.2989    1.4263    1.0971 F   0  0  0  0  0  0  0  0  0  0  0  0
    0.0327    0.4811    0.1023 N   0  0  0  0  0  0  0  0  0  0  0  0
    0.9441   -0.4059    0.6008 C   0  0  0  0  0  0  0  0  0  0  0  0
    0.6286   -1.2625    1.4605 O   0  0  0  0  0  0  0  0  0  0  0  0
    2.2851   -0.4266    0.1518 C   0  0  0  0  0  0  0  0  0  0  0  0
    2.9614    0.3958   -0.7598 C   0  0  0  0  0  0  0  0  0  0  0  0
    4.2310   -0.0300   -0.8451 N   0  0  0  0  0  0  0  0  0  0  0  0
    4.3599   -1.0797   -0.0216 C   0  0  0  0  0  0  0  0  0  0  0  0
    3.1833   -1.3384    0.5905 O   0  0  0  0  0  0  0  0  0  0  0  0
   -4.7166   -2.6292    8.1761 C   0  0  0  0  0  0  0  0  0  0  0  0
   -5.5572   -3.7604    8.3691 C   0  0  0  0  0  0  0  0  0  0  0  0
   -5.2849   -4.5989    9.4775 C   0  0  0  0  0  0  0  0  0  0  0  0
   -4.2261   -4.3093   10.3566 C   0  0  0  0  0  0  0  0  0  0  0  0
   -3.4296   -3.1801   10.1124 C   0  0  0  0  0  0  0  0  0  0  0  0
   -3.6954   -2.3925    9.0426 N   0  0  0  0  0  0  0  0  0  0  0  0
    5.5997   -1.8311    0.2048 C   0  0  0  0  0  0  0  0  0  0  0  0
    2.4611    1.5462   -1.5304 C   0  0  0  0  0  0  0  0  0  0  0  0
   -6.6678   -4.0833    7.4362 C   0  0  0  0  0  0  0  0  0  0  0  0
   -3.0246   -2.3379    6.1409 H   0  0  0  0  0  0  0  0  0  0  0  0
   -6.6896   -0.8339    7.6167 H   0  0  0  0  0  0  0  0  0  0  0  0
   -4.0126    1.9874   -1.0246 H   0  0  0  0  0  0  0  0  0  0  0  0
   -1.6859    1.5638   -1.4434 H   0  0  0  0  0  0  0  0  0  0  0  0
   -1.2779   -0.0500    2.4132 H   0  0  0  0  0  0  0  0  0  0  0  0
    0.3492    1.0424   -0.6175 H   0  0  0  0  0  0  0  0  0  0  0  0
   -5.8510   -5.4331    9.6533 H   0  0  0  0  0  0  0  0  0  0  0  0
   -4.0362   -4.9104   11.1610 H   0  0  0  0  0  0  0  0  0  0  0  0
   -2.6493   -2.9520   10.7292 H   0  0  0  0  0  0  0  0  0  0  0  0
    6.4157   -1.4217   -0.3918 H   0  0  0  0  0  0  0  0  0  0  0  0
    5.8687   -1.7687    1.2577 H   0  0  0  0  0  0  0  0  0  0  0  0
    5.4562   -2.8790   -0.0604 H   0  0  0  0  0  0  0  0  0  0  0  0
    1.6185    1.2388   -2.1512 H   0  0  0  0  0  0  0  0  0  0  0  0
    3.2436    1.9315   -2.1864 H   0  0  0  0  0  0  0  0  0  0  0  0
    2.1475    2.3406   -0.8505 H   0  0  0  0  0  0  0  0  0  0  0  0
   -6.2818   -4.1791    6.4198 H   0  0  0  0  0  0  0  0  0  0  0  0
   -7.4125   -3.2867    7.4570 H   0  0  0  0  0  0  0  0  0  0  0  0
   -7.1685   -5.0172    7.6957 H   0  0  0  0  0  0  0  0  0  0  0  0
  1  2  2  0  0  0  0
  2  3  1  0  0  0  0
  3  4  2  0  0  0  0
  4  5  1  0  0  0  0
  5  6  1  0  0  0  0
  1  6  1  0  0  0  0
  7  8  1  0  0  0  0
  8  9  2  0  0  0  0
  5  7  2  0  0  0  0
  6  9  1  0  0  0  0
 11 12  2  0  0  0  0
 12 13  1  0  0  0  0
 13 14  2  0  0  0  0
 14 15  1  0  0  0  0
 10 11  1  0  0  0  0
 10 15  2  0  0  0  0
  8 10  1  0  0  0  0
 11 16  1  0  0  0  0
 14 17  1  0  0  0  0
 17 18  1  0  0  0  0
 18 19  2  0  0  0  0
 21 22  1  0  0  0  0
 22 23  2  0  0  0  0
 23 24  1  0  0  0  0
 20 21  2  0  0  0  0
 20 24  1  0  0  0  0
 18 20  1  0  0  0  0
 26 27  2  0  0  0  0
 27 28  1  0  0  0  0
 28 29  2  0  0  0  0
 29 30  1  0  0  0  0
 25 26  1  0  0  0  0
 25 30  2  0  0  0  0
  2 25  1  0  0  0  0
 23 31  1  0  0  0  0
 21 32  1  0  0  0  0
 26 33  1  0  0  0  0
  1 34  1  0  0  0  0
  3 35  1  0  0  0  0
 12 36  1  0  0  0  0
 13 37  1  0  0  0  0
 15 38  1  0  0  0  0
 17 39  1  0  0  0  0
 27 40  1  0  0  0  0
 28 41  1  0  0  0  0
 29 42  1  0  0  0  0
 31 43  1  0  0  0  0
 31 44  1  0  0  0  0
 31 45  1  0  0  0  0
 32 46  1  0  0  0  0
 32 47  1  0  0  0  0
 32 48  1  0  0  0  0
 33 49  1  0  0  0  0
 33 50  1  0  0  0  0
 33 51  1  0  0  0  0
M  END
$$$$
> 718_AKC_pnas.1820175116

  Mrv1816 10182218553D             104.26000

 53 57  0  0  0  0            999 V2000
   -7.7527   -5.6007    7.6887 C   0  0  2  0  0  0  0  0  0  0  0  0
   -6.9722   -6.6230    7.0547 O   0  0  0  0  0  0  0  0  0  0  0  0
   -5.6004   -6.2223    6.9286 C   0  0  1  0  0  0  0  0  0  0  0  0
   -5.4602   -4.9566    6.0412 C   0  0  1  0  0  0  0  0  0  0  0  0
   -6.5288   -3.9825    6.1075 N   0  0  0  0  0  0  0  0  0  0  0  0
   -7.7373   -4.2863    6.8663 C   0  0  2  0  0  0  0  0  0  0  0  0
   -6.4650   -2.7904    5.3642 C   0  0  0  0  0  0  0  0  0  0  0  0
   -7.4733   -1.8109    5.3638 C   0  0  0  0  0  0  0  0  0  0  0  0
   -7.1904   -0.8024    4.5358 N   0  0  0  0  0  0  0  0  0  0  0  0
   -6.0068   -1.1191    4.0103 C   0  0  0  0  0  0  0  0  0  0  0  0
   -5.5290   -2.2885    4.5011 N   0  0  0  0  0  0  0  0  0  0  0  0
   -4.3001   -2.7193    4.0806 C   0  0  0  0  0  0  0  0  0  0  0  0
   -3.5678   -1.9762    3.1324 C   0  0  0  0  0  0  0  0  0  0  0  0
   -4.1261   -0.7846    2.6080 C   0  0  0  0  0  0  0  0  0  0  0  0
   -5.3379   -0.3872    3.0872 N   0  0  0  0  0  0  0  0  0  0  0  0
   -3.4883   -0.0150    1.5857 C   0  0  0  0  0  0  0  0  0  0  0  0
   -2.0806    0.1741    1.5762 C   0  0  0  0  0  0  0  0  0  0  0  0
   -1.4333    0.8953    0.5465 C   0  0  0  0  0  0  0  0  0  0  0  0
   -2.2198    1.4380   -0.4943 C   0  0  0  0  0  0  0  0  0  0  0  0
   -3.6130    1.2962   -0.4907 C   0  0  0  0  0  0  0  0  0  0  0  0
   -4.2443    0.5708    0.5340 C   0  0  0  0  0  0  0  0  0  0  0  0
   -0.0676    0.9726    0.5817 N   0  0  0  0  0  0  0  0  0  0  0  0
   -5.5416    0.4348    0.4470 F   0  0  0  0  0  0  0  0  0  0  0  0
    0.7586    1.9233    0.0443 C   0  0  0  0  0  0  0  0  0  0  0  0
    0.2823    2.9801   -0.4358 O   0  0  0  0  0  0  0  0  0  0  0  0
    2.1219    1.7310    0.0226 N   0  0  0  0  0  0  0  0  0  0  0  0
    3.0489    2.6547   -0.5574 C   0  0  2  0  0  0  0  0  0  0  0  0
    2.7723    0.5810    0.5764 C   0  0  1  0  0  0  0  0  0  0  0  0
    4.2470    0.6705    0.1322 C   0  0  1  0  0  0  0  0  0  0  0  0
    4.2572    1.7817   -0.9272 C   0  0  2  0  0  0  0  0  0  0  0  0
   -7.3936   -5.4199    8.7075 H   0  0  0  0  0  0  0  0  0  0  0  0
   -8.7783   -5.9667    7.7703 H   0  0  0  0  0  0  0  0  0  0  0  0
   -5.1611   -6.0477    7.9178 H   0  0  0  0  0  0  0  0  0  0  0  0
   -5.0474   -7.0472    6.4722 H   0  0  0  0  0  0  0  0  0  0  0  0
   -4.5255   -4.4791    6.3405 H   0  0  0  0  0  0  0  0  0  0  0  0
   -5.3801   -5.2978    5.0039 H   0  0  0  0  0  0  0  0  0  0  0  0
   -7.9313   -3.4732    7.5718 H   0  0  0  0  0  0  0  0  0  0  0  0
   -8.5763   -4.3337    6.1640 H   0  0  0  0  0  0  0  0  0  0  0  0
   -8.3309   -1.8355    5.9150 H   0  0  0  0  0  0  0  0  0  0  0  0
   -3.8726   -3.5697    4.4271 H   0  0  0  0  0  0  0  0  0  0  0  0
   -2.6552   -2.3202    2.8252 H   0  0  0  0  0  0  0  0  0  0  0  0
   -1.5087   -0.2150    2.3334 H   0  0  0  0  0  0  0  0  0  0  0  0
   -1.7931    1.9245   -1.2821 H   0  0  0  0  0  0  0  0  0  0  0  0
   -4.1607    1.7114   -1.2500 H   0  0  0  0  0  0  0  0  0  0  0  0
    0.3736    0.2480    1.0500 H   0  0  0  0  0  0  0  0  0  0  0  0
    3.3324    3.4099    0.1826 H   0  0  0  0  0  0  0  0  0  0  0  0
    2.6570    3.1524   -1.4492 H   0  0  0  0  0  0  0  0  0  0  0  0
    2.6967    0.5924    1.6684 H   0  0  0  0  0  0  0  0  0  0  0  0
    2.3229   -0.3377    0.1894 H   0  0  0  0  0  0  0  0  0  0  0  0
    4.8857    0.9485    0.9762 H   0  0  0  0  0  0  0  0  0  0  0  0
    4.6029   -0.2745   -0.2888 H   0  0  0  0  0  0  0  0  0  0  0  0
    5.1901    2.3496   -0.9082 H   0  0  0  0  0  0  0  0  0  0  0  0
    4.1130    1.3506   -1.9229 H   0  0  0  0  0  0  0  0  0  0  0  0
  1  2  1  0  0  0  0
  2  3  1  0  0  0  0
  3  4  1  0  0  0  0
  4  5  1  0  0  0  0
  5  6  1  0  0  0  0
  1  6  1  0  0  0  0
  8  9  1  0  0  0  0
  9 10  2  0  0  0  0
  7  8  2  0  0  0  0
  7 11  1  0  0  0  0
  5  7  1  0  0  0  0
 12 13  2  0  0  0  0
 13 14  1  0  0  0  0
 14 15  2  0  0  0  0
 10 15  1  0  0  0  0
 11 12  1  0  0  0  0
 10 11  1  0  0  0  0
 17 18  2  0  0  0  0
 18 19  1  0  0  0  0
 19 20  2  0  0  0  0
 20 21  1  0  0  0  0
 16 17  1  0  0  0  0
 16 21  2  0  0  0  0
 14 16  1  0  0  0  0
 18 22  1  0  0  0  0
 21 23  1  0  0  0  0
 22 24  1  0  0  0  0
 24 25  2  0  0  0  0
 24 26  1  0  0  0  0
 28 29  1  0  0  0  0
 29 30  1  0  0  0  0
 27 30  1  0  0  0  0
 27 26  1  0  0  0  0
 26 28  1  0  0  0  0
  1 31  1  0  0  0  0
  1 32  1  0  0  0  0
  3 33  1  0  0  0  0
  3 34  1  0  0  0  0
  4 35  1  0  0  0  0
  4 36  1  0  0  0  0
  6 37  1  0  0  0  0
  6 38  1  0  0  0  0
  8 39  1  0  0  0  0
 12 40  1  0  0  0  0
 13 41  1  0  0  0  0
 17 42  1  0  0  0  0
 19 43  1  0  0  0  0
 20 44  1  0  0  0  0
 22 45  1  0  0  0  0
 27 46  1  0  0  0  0
 27 47  1  0  0  0  0
 28 48  1  0  0  0  0
 28 49  1  0  0  0  0
 29 50  1  0  0  0  0
 29 51  1  0  0  0  0
 30 52  1  0  0  0  0
 30 53  1  0  0  0  0
M  END
$$$$
> 719_AKC_s41598-018-22063-9

  Mrv1816 10182219003D             108.44000

 48 51  0  0  0  0            999 V2000
   -0.3155    1.4736   -0.2432 C   0  0  0  0  0  0  0  0  0  0  0  0
   -0.1749    0.0971   -0.3364 C   0  0  0  0  0  0  0  0  0  0  0  0
    1.1534   -0.1932   -0.0458 C   0  0  0  0  0  0  0  0  0  0  0  0
    1.7972    0.9595    0.2202 N   0  0  0  0  0  0  0  0  0  0  0  0
    0.9309    1.9826    0.1014 C   0  0  0  0  0  0  0  0  0  0  0  0
    3.4456    1.1171    0.6778 S   0  0  1  0  0  0  0  0  0  0  0  0
    4.2307   -0.2306    0.2945 O   0  0  0  0  0  0  0  0  0  0  0  0
    4.0990    2.3425   -0.1267 O   0  0  0  0  0  0  0  0  0  0  0  0
    3.5225    1.3780    2.4302 C   0  0  0  0  0  0  0  0  0  0  0  0
    3.0830    0.3546    3.2859 C   0  0  0  0  0  0  0  0  0  0  0  0
    3.9966    2.5835    2.9857 C   0  0  0  0  0  0  0  0  0  0  0  0
    4.0319    2.7828    4.3900 C   0  0  0  0  0  0  0  0  0  0  0  0
    3.5664    1.7473    5.2467 C   0  0  0  0  0  0  0  0  0  0  0  0
    3.1038    0.5377    4.6770 C   0  0  0  0  0  0  0  0  0  0  0  0
    4.5714    4.0586    4.9457 C   0  0  1  0  0  0  0  0  0  0  0  0
    5.8655    3.8406    5.7751 C   0  0  1  0  0  0  0  0  0  0  0  0
    3.5753    1.9001    6.7299 C   0  0  2  0  0  0  0  0  0  0  0  0
    5.0126    1.9968    7.3011 C   0  0  2  0  0  0  0  0  0  0  0  0
    5.6476    3.3521    7.1786 N   0  3  1  0  0  0  0  0  0  0  0  0
    6.8662    3.5009    8.0522 C   0  0  2  0  0  0  0  0  0  0  0  0
    8.0303    2.6463    7.6738 C   0  0  0  0  0  0  0  0  0  0  0  0
    8.2129    1.3599    8.2352 C   0  0  0  0  0  0  0  0  0  0  0  0
    9.2617    0.5839    7.8585 N   0  0  0  0  0  0  0  0  0  0  0  0
   10.1797    0.9889    6.9449 C   0  0  0  0  0  0  0  0  0  0  0  0
   10.0648    2.2603    6.3570 C   0  0  0  0  0  0  0  0  0  0  0  0
    8.9897    3.0871    6.7315 C   0  0  0  0  0  0  0  0  0  0  0  0
   -1.1699    2.0103   -0.3944 H   0  0  0  0  0  0  0  0  0  0  0  0
   -0.9066   -0.5748   -0.5695 H   0  0  0  0  0  0  0  0  0  0  0  0
    1.5615   -1.1306   -0.0298 H   0  0  0  0  0  0  0  0  0  0  0  0
    1.1457    2.9713    0.2481 H   0  0  0  0  0  0  0  0  0  0  0  0
    2.7428   -0.5287    2.9011 H   0  0  0  0  0  0  0  0  0  0  0  0
    4.3244    3.3225    2.3593 H   0  0  0  0  0  0  0  0  0  0  0  0
    2.7812   -0.2291    5.2725 H   0  0  0  0  0  0  0  0  0  0  0  0
    4.8070    4.7589    4.1391 H   0  0  0  0  0  0  0  0  0  0  0  0
    3.8098    4.5453    5.5594 H   0  0  0  0  0  0  0  0  0  0  0  0
    6.5313    3.1641    5.2314 H   0  0  0  0  0  0  0  0  0  0  0  0
    6.3629    4.8127    5.8255 H   0  0  0  0  0  0  0  0  0  0  0  0
    3.0869    1.0457    7.2067 H   0  0  0  0  0  0  0  0  0  0  0  0
    2.9969    2.7824    7.0178 H   0  0  0  0  0  0  0  0  0  0  0  0
    5.6392    1.2301    6.8361 H   0  0  0  0  0  0  0  0  0  0  0  0
    4.9330    1.7470    8.3648 H   0  0  0  0  0  0  0  0  0  0  0  0
    4.9657    3.9998    7.5810 H   0  0  0  0  0  0  0  0  0  0  0  0
    6.5879    3.2945    9.0892 H   0  0  0  0  0  0  0  0  0  0  0  0
    7.1757    4.5496    8.0581 H   0  0  0  0  0  0  0  0  0  0  0  0
    7.5604    0.9923    8.9297 H   0  0  0  0  0  0  0  0  0  0  0  0
   10.9481    0.3670    6.6894 H   0  0  0  0  0  0  0  0  0  0  0  0
   10.7519    2.5771    5.6688 H   0  0  0  0  0  0  0  0  0  0  0  0
    8.9097    4.0136    6.3070 H   0  0  0  0  0  0  0  0  0  0  0  0
  1  2  1  0  0  0  0
  2  3  2  0  0  0  0
  3  4  1  0  0  0  0
  4  5  1  0  0  0  0
  1  5  2  0  0  0  0
  4  6  1  0  0  0  0
  6  7  2  0  0  0  0
  6  8  2  0  0  0  0
  6  9  1  0  0  0  0
 11 12  1  0  0  0  0
 12 13  2  0  0  0  0
 13 14  1  0  0  0  0
 10 14  2  0  0  0  0
 10  9  1  0  0  0  0
  9 11  2  0  0  0  0
 12 15  1  0  0  0  0
 15 16  1  0  0  0  0
 13 17  1  0  0  0  0
 17 18  1  0  0  0  0
 16 19  1  0  0  0  0
 18 19  1  0  0  0  0
 19 20  1  0  0  0  0
 20 21  1  0  0  0  0
 22 23  2  0  0  0  0
 23 24  1  0  0  0  0
 24 25  2  0  0  0  0
 25 26  1  0  0  0  0
 21 22  1  0  0  0  0
 21 26  2  0  0  0  0
  1 27  1  0  0  0  0
  2 28  1  0  0  0  0
  3 29  1  0  0  0  0
  5 30  1  0  0  0  0
 10 31  1  0  0  0  0
 11 32  1  0  0  0  0
 14 33  1  0  0  0  0
 15 34  1  0  0  0  0
 15 35  1  0  0  0  0
 16 36  1  0  0  0  0
 16 37  1  0  0  0  0
 17 38  1  0  0  0  0
 17 39  1  0  0  0  0
 18 40  1  0  0  0  0
 18 41  1  0  0  0  0
 19 42  1  0  0  0  0
 20 43  1  0  0  0  0
 20 44  1  0  0  0  0
 22 45  1  0  0  0  0
 24 46  1  0  0  0  0
 25 47  1  0  0  0  0
 26 48  1  0  0  0  0
M  CHG  1  19   1
M  END
$$$$
> 720_AKC_s41598-018-22063-9

  Mrv1816 10182219013D             121.13000

 55 59  0  0  0  0            999 V2000
    0.1224    1.5367    2.9237 C   0  0  0  0  0  0  0  0  0  0  0  0
   -1.0838    1.6388    2.2443 C   0  0  0  0  0  0  0  0  0  0  0  0
   -0.9860    0.7913    1.1465 C   0  0  0  0  0  0  0  0  0  0  0  0
    0.2237    0.1924    1.1458 N   0  0  0  0  0  0  0  0  0  0  0  0
    0.9186    0.6286    2.2200 C   0  0  0  0  0  0  0  0  0  0  0  0
    0.7479   -0.9246   -0.0504 S   0  0  1  0  0  0  0  0  0  0  0  0
   -0.2197   -0.8316   -1.3281 O   0  0  0  0  0  0  0  0  0  0  0  0
    2.2322   -0.5336   -0.5202 O   0  0  0  0  0  0  0  0  0  0  0  0
    0.6953   -2.5743    0.5962 C   0  0  0  0  0  0  0  0  0  0  0  0
   -0.5158   -3.1068    1.0729 C   0  0  0  0  0  0  0  0  0  0  0  0
    1.8543   -3.3708    0.6266 C   0  0  0  0  0  0  0  0  0  0  0  0
    1.8259   -4.6938    1.1296 C   0  0  0  0  0  0  0  0  0  0  0  0
    0.5975   -5.2331    1.6023 C   0  0  0  0  0  0  0  0  0  0  0  0
   -0.5630   -4.4207    1.5694 C   0  0  0  0  0  0  0  0  0  0  0  0
    3.0873   -5.4856    1.1682 C   0  0  2  0  0  0  0  0  0  0  0  0
    3.5238   -5.8260    2.6166 C   0  0  2  0  0  0  0  0  0  0  0  0
    0.5168   -6.6278    2.1280 C   0  0  1  0  0  0  0  0  0  0  0  0
    1.3525   -6.8447    3.4200 C   0  0  1  0  0  0  0  0  0  0  0  0
    2.8326   -7.0187    3.2171 N   0  3  2  0  0  0  0  0  0  0  0  0
    3.5052   -7.4771    4.4860 C   0  0  2  0  0  0  0  0  0  0  0  0
    4.8881   -7.9920    4.2779 C   0  0  0  0  0  0  0  0  0  0  0  0
    6.0077   -7.3387    4.8473 C   0  0  0  0  0  0  0  0  0  0  0  0
    7.3079   -7.8408    4.6534 C   0  0  0  0  0  0  0  0  0  0  0  0
    7.5074   -8.9985    3.8789 C   0  0  0  0  0  0  0  0  0  0  0  0
    6.4038   -9.6532    3.3016 C   0  0  0  0  0  0  0  0  0  0  0  0
    5.1041   -9.1508    3.4957 C   0  0  0  0  0  0  0  0  0  0  0  0
    0.5768    2.1705    4.0950 C   0  0  0  0  0  0  0  0  0  0  0  0
    1.8781    1.8707    4.5522 C   0  0  0  0  0  0  0  0  0  0  0  0
    2.6918    0.9550    3.8483 C   0  0  0  0  0  0  0  0  0  0  0  0
    2.2168    0.3246    2.6784 C   0  0  0  0  0  0  0  0  0  0  0  0
   -0.1780    3.0180    4.7402 F   0  0  0  0  0  0  0  0  0  0  0  0
    8.7122   -9.4657    3.6992 F   0  0  0  0  0  0  0  0  0  0  0  0
   -1.8877    2.2182    2.4965 H   0  0  0  0  0  0  0  0  0  0  0  0
   -1.7242    0.6539    0.4520 H   0  0  0  0  0  0  0  0  0  0  0  0
   -1.3704   -2.5443    1.0569 H   0  0  0  0  0  0  0  0  0  0  0  0
    2.7315   -2.9809    0.2766 H   0  0  0  0  0  0  0  0  0  0  0  0
   -1.4599   -4.7788    1.9082 H   0  0  0  0  0  0  0  0  0  0  0  0
    3.9059   -4.9327    0.6964 H   0  0  0  0  0  0  0  0  0  0  0  0
    2.9679   -6.4040    0.5893 H   0  0  0  0  0  0  0  0  0  0  0  0
    3.4049   -4.9497    3.2635 H   0  0  0  0  0  0  0  0  0  0  0  0
    4.5969   -6.0285    2.5546 H   0  0  0  0  0  0  0  0  0  0  0  0
   -0.5220   -6.8897    2.3531 H   0  0  0  0  0  0  0  0  0  0  0  0
    0.8445   -7.3281    1.3562 H   0  0  0  0  0  0  0  0  0  0  0  0
    1.1574   -6.0280    4.1228 H   0  0  0  0  0  0  0  0  0  0  0  0
    0.9576   -7.7588    3.8749 H   0  0  0  0  0  0  0  0  0  0  0  0
    2.9387   -7.7837    2.5462 H   0  0  0  0  0  0  0  0  0  0  0  0
    2.9451   -8.2986    4.9429 H   0  0  0  0  0  0  0  0  0  0  0  0
    3.4976   -6.6578    5.2135 H   0  0  0  0  0  0  0  0  0  0  0  0
    5.8850   -6.4892    5.4050 H   0  0  0  0  0  0  0  0  0  0  0  0
    8.1061   -7.3612    5.0791 H   0  0  0  0  0  0  0  0  0  0  0  0
    6.5427  -10.4956    2.7402 H   0  0  0  0  0  0  0  0  0  0  0  0
    4.3143   -9.6352    3.0627 H   0  0  0  0  0  0  0  0  0  0  0  0
    2.2395    2.3198    5.3975 H   0  0  0  0  0  0  0  0  0  0  0  0
    3.6327    0.7470    4.1900 H   0  0  0  0  0  0  0  0  0  0  0  0
    2.8087   -0.3389    2.1775 H   0  0  0  0  0  0  0  0  0  0  0  0
  1  2  1  0  0  0  0
  2  3  2  0  0  0  0
  3  4  1  0  0  0  0
  4  5  1  0  0  0  0
  4  6  1  0  0  0  0
  6  7  2  0  0  0  0
  6  8  2  0  0  0  0
  6  9  1  0  0  0  0
 11 12  2  0  0  0  0
 12 13  1  0  0  0  0
 13 14  2  0  0  0  0
 10 14  1  0  0  0  0
 10  9  2  0  0  0  0
  9 11  1  0  0  0  0
 12 15  1  0  0  0  0
 15 16  1  0  0  0  0
 13 17  1  0  0  0  0
 17 18  1  0  0  0  0
 16 19  1  0  0  0  0
 18 19  1  0  0  0  0
 19 20  1  0  0  0  0
 20 21  1  0  0  0  0
 22 23  1  0  0  0  0
 23 24  2  0  0  0  0
 24 25  1  0  0  0  0
 25 26  2  0  0  0  0
 21 22  2  0  0  0  0
 21 26  1  0  0  0  0
 27 28  1  0  0  0  0
 28 29  2  0  0  0  0
 29 30  1  0  0  0  0
  1 27  2  0  0  0  0
  5 30  2  0  0  0  0
  5  1  1  0  0  0  0
 27 31  1  0  0  0  0
 24 32  1  0  0  0  0
  2 33  1  0  0  0  0
  3 34  1  0  0  0  0
 10 35  1  0  0  0  0
 11 36  1  0  0  0  0
 14 37  1  0  0  0  0
 15 38  1  0  0  0  0
 15 39  1  0  0  0  0
 16 40  1  0  0  0  0
 16 41  1  0  0  0  0
 17 42  1  0  0  0  0
 17 43  1  0  0  0  0
 18 44  1  0  0  0  0
 18 45  1  0  0  0  0
 19 46  1  0  0  0  0
 20 47  1  0  0  0  0
 20 48  1  0  0  0  0
 22 49  1  0  0  0  0
 23 50  1  0  0  0  0
 25 51  1  0  0  0  0
 26 52  1  0  0  0  0
 28 53  1  0  0  0  0
 29 54  1  0  0  0  0
 30 55  1  0  0  0  0
M  CHG  1  19   1
M  END
$$$$
> 721_AKC_s11030-022-10548-9

  Mrv1816 10242209493D              89.29000

 56 59  0  0  0  0            999 V2000
    5.9805    6.4952   -4.3360 C   0  0  0  0  0  0  0  0  0  0  0  0
    6.8902    5.7867   -5.1482 C   0  0  0  0  0  0  0  0  0  0  0  0
    6.8480    4.4315   -5.0679 N   0  0  0  0  0  0  0  0  0  0  0  0
    6.0816    3.7605   -4.2382 N   0  0  0  0  0  0  0  0  0  0  0  0
    5.1515    4.4443   -3.4947 C   0  0  0  0  0  0  0  0  0  0  0  0
    5.1234    5.7988   -3.5510 N   0  0  0  0  0  0  0  0  0  0  0  0
    6.2988    2.3406   -4.1124 C   0  0  2  0  0  0  0  0  0  0  0  0
    6.8727    2.0441   -2.7723 C   0  0  0  0  0  0  0  0  0  0  0  0
    6.0880    1.4512   -1.7627 C   0  0  0  0  0  0  0  0  0  0  0  0
    8.1930    2.4279   -2.4608 C   0  0  0  0  0  0  0  0  0  0  0  0
    8.6830    2.3035   -1.1495 C   0  0  0  0  0  0  0  0  0  0  0  0
    7.8496    1.8250   -0.1115 C   0  0  0  0  0  0  0  0  0  0  0  0
    6.5399    1.3706   -0.4241 C   0  0  0  0  0  0  0  0  0  0  0  0
    5.5921    0.8740    0.6216 C   0  0  1  0  0  0  0  0  0  0  0  0
    4.3376    1.5637    0.5402 O   0  0  0  0  0  0  0  0  0  0  0  0
    5.2137   -0.4767    0.4678 N   0  0  0  0  0  0  0  0  0  0  0  0
    3.9856   -0.5637    0.2488 N   0  0  0  0  0  0  0  0  0  0  0  0
    3.4511    0.5959    0.2814 C   0  0  0  0  0  0  0  0  0  0  0  0
    2.0899    0.8341    0.0933 C   0  0  0  0  0  0  0  0  0  0  0  0
   -0.2130    0.0032   -0.1919 C   0  0  0  0  0  0  0  0  0  0  0  0
    1.1688   -0.2353   -0.0591 C   0  0  0  0  0  0  0  0  0  0  0  0
    1.5795    2.1579    0.0729 C   0  0  0  0  0  0  0  0  0  0  0  0
    0.1999    2.4009   -0.0644 C   0  0  0  0  0  0  0  0  0  0  0  0
   -0.6950    1.3244   -0.1827 C   0  0  0  0  0  0  0  0  0  0  0  0
    6.0539   -1.4782    0.6226 O   0  0  0  0  0  0  0  0  0  0  0  0
    5.7759   -2.8093    0.7707 C   0  0  0  0  0  0  0  0  0  0  0  0
    4.5997   -3.2381    0.8170 O   0  0  0  0  0  0  0  0  0  0  0  0
    6.8783   -3.7675    0.9068 C   0  0  0  0  0  0  0  0  0  0  0  0
    8.2241    1.7979    1.2078 O   0  0  0  0  0  0  0  0  0  0  0  0
    9.2762    2.3015    1.9189 C   0  0  0  0  0  0  0  0  0  0  0  0
   10.2176    2.9424    1.3985 O   0  0  0  0  0  0  0  0  0  0  0  0
    9.2551    2.0947    3.3741 C   0  0  0  0  0  0  0  0  0  0  0  0
    4.3356    3.8811   -2.7300 O   0  0  0  0  0  0  0  0  0  0  0  0
    5.9296    7.7464   -4.3204 O   0  0  0  0  0  0  0  0  0  0  0  0
    7.8407    6.4450   -6.0659 C   0  0  0  0  0  0  0  0  0  0  0  0
   -1.2900   -1.2926   -0.3539 Cl  0  0  0  0  0  0  0  0  0  0  0  0
    4.4825    6.2833   -3.0074 H   0  0  0  0  0  0  0  0  0  0  0  0
    6.9853    1.9636   -4.8776 H   0  0  0  0  0  0  0  0  0  0  0  0
    5.3477    1.8225   -4.2691 H   0  0  0  0  0  0  0  0  0  0  0  0
    5.1516    1.1169   -2.0007 H   0  0  0  0  0  0  0  0  0  0  0  0
    8.8015    2.8258   -3.1816 H   0  0  0  0  0  0  0  0  0  0  0  0
    9.6442    2.5867   -0.9644 H   0  0  0  0  0  0  0  0  0  0  0  0
    5.9766    1.0052    1.6373 H   0  0  0  0  0  0  0  0  0  0  0  0
    1.5004   -1.2032   -0.0691 H   0  0  0  0  0  0  0  0  0  0  0  0
    2.2047    2.9641    0.1673 H   0  0  0  0  0  0  0  0  0  0  0  0
   -0.1542    3.3609   -0.0654 H   0  0  0  0  0  0  0  0  0  0  0  0
   -1.6971    1.5093   -0.2512 H   0  0  0  0  0  0  0  0  0  0  0  0
    6.8099   -4.5176    0.1154 H   0  0  0  0  0  0  0  0  0  0  0  0
    7.8439   -3.2627    0.8382 H   0  0  0  0  0  0  0  0  0  0  0  0
    6.8129   -4.2632    1.8762 H   0  0  0  0  0  0  0  0  0  0  0  0
    8.4176    2.6476    3.8034 H   0  0  0  0  0  0  0  0  0  0  0  0
   10.1798    2.4430    3.8388 H   0  0  0  0  0  0  0  0  0  0  0  0
    9.1263    1.0329    3.5892 H   0  0  0  0  0  0  0  0  0  0  0  0
    7.2918    7.0255   -6.8094 H   0  0  0  0  0  0  0  0  0  0  0  0
    8.4993    7.1128   -5.5069 H   0  0  0  0  0  0  0  0  0  0  0  0
    8.4579    5.7108   -6.5884 H   0  0  0  0  0  0  0  0  0  0  0  0
  1  2  1  0  0  0  0
  2  3  2  0  0  0  0
  3  4  1  0  0  0  0
  4  5  1  0  0  0  0
  5  6  1  0  0  0  0
  1  6  1  0  0  0  0
  4  7  1  0  0  0  0
  7  8  1  0  0  0  0
 10 11  1  0  0  0  0
 11 12  2  0  0  0  0
 12 13  1  0  0  0  0
  9 13  2  0  0  0  0
  9  8  1  0  0  0  0
  8 10  2  0  0  0  0
 14 13  1  0  0  0  0
 16 17  1  0  0  0  0
 17 18  2  0  0  0  0
 15 18  1  0  0  0  0
 15 14  1  0  0  0  0
 14 16  1  0  0  0  0
 18 19  1  0  0  0  0
 20 21  1  0  0  0  0
 22 23  2  0  0  0  0
 23 24  1  0  0  0  0
 20 24  2  0  0  0  0
 21 19  2  0  0  0  0
 19 22  1  0  0  0  0
 16 25  1  0  0  0  0
 25 26  1  0  0  0  0
 26 27  2  0  0  0  0
 26 28  1  0  0  0  0
 12 29  1  0  0  0  0
 29 30  1  0  0  0  0
 30 31  2  0  0  0  0
 30 32  1  0  0  0  0
  5 33  2  0  0  0  0
  1 34  2  0  0  0  0
  2 35  1  0  0  0  0
 20 36  1  0  0  0  0
  6 37  1  0  0  0  0
  7 38  1  0  0  0  0
  7 39  1  0  0  0  0
  9 40  1  0  0  0  0
 10 41  1  0  0  0  0
 11 42  1  0  0  0  0
 14 43  1  0  0  0  0
 21 44  1  0  0  0  0
 22 45  1  0  0  0  0
 23 46  1  0  0  0  0
 24 47  1  0  0  0  0
 28 48  1  0  0  0  0
 28 49  1  0  0  0  0
 28 50  1  0  0  0  0
 32 51  1  0  0  0  0
 32 52  1  0  0  0  0
 32 53  1  0  0  0  0
 35 54  1  0  0  0  0
 35 55  1  0  0  0  0
 35 56  1  0  0  0  0
M  END
$$$$
> 722_AKC_s11030-022-10548-9

  Mrv1816 10242209493D              90.94000

 56 59  0  0  0  0            999 V2000
    5.4504    6.7022    4.2914 C   0  0  0  0  0  0  0  0  0  0  0  0
    4.4857    5.6757    4.3534 C   0  0  0  0  0  0  0  0  0  0  0  0
    4.9581    4.4084    4.4875 N   0  0  0  0  0  0  0  0  0  0  0  0
    6.2323    4.0847    4.5159 N   0  0  0  0  0  0  0  0  0  0  0  0
    7.1643    5.0915    4.5376 C   0  0  0  0  0  0  0  0  0  0  0  0
    6.7608    6.3785    4.4042 N   0  0  0  0  0  0  0  0  0  0  0  0
    6.5741    2.6820    4.4824 C   0  0  2  0  0  0  0  0  0  0  0  0
    7.0175    2.2975    3.1139 C   0  0  0  0  0  0  0  0  0  0  0  0
    6.0920    1.8217    2.1564 C   0  0  0  0  0  0  0  0  0  0  0  0
    8.3666    2.4400    2.7283 C   0  0  0  0  0  0  0  0  0  0  0  0
    8.7495    2.2555    1.3920 C   0  0  0  0  0  0  0  0  0  0  0  0
    7.7950    1.9160    0.4083 C   0  0  0  0  0  0  0  0  0  0  0  0
    6.4700    1.5981    0.8098 C   0  0  0  0  0  0  0  0  0  0  0  0
    5.4754    1.0328   -0.1518 C   0  0  2  0  0  0  0  0  0  0  0  0
    4.2280    1.7347   -0.1432 O   0  0  0  0  0  0  0  0  0  0  0  0
    5.0996   -0.2920    0.1627 N   0  0  0  0  0  0  0  0  0  0  0  0
    3.8539   -0.3824    0.2246 N   0  0  0  0  0  0  0  0  0  0  0  0
    3.3223    0.7639    0.0316 C   0  0  0  0  0  0  0  0  0  0  0  0
    1.9478    0.9917   -0.0116 C   0  0  0  0  0  0  0  0  0  0  0  0
   -0.3720    0.1646   -0.0433 C   0  0  0  0  0  0  0  0  0  0  0  0
    1.0141   -0.0763    0.0360 C   0  0  0  0  0  0  0  0  0  0  0  0
    1.4433    2.3121   -0.1232 C   0  0  0  0  0  0  0  0  0  0  0  0
    0.0599    2.5557   -0.1967 C   0  0  0  0  0  0  0  0  0  0  0  0
   -0.8459    1.4824   -0.1742 C   0  0  0  0  0  0  0  0  0  0  0  0
    5.9743   -1.2709    0.2887 O   0  0  0  0  0  0  0  0  0  0  0  0
    5.7593   -2.5996    0.5206 C   0  0  0  0  0  0  0  0  0  0  0  0
    4.6054   -3.0599    0.6838 O   0  0  0  0  0  0  0  0  0  0  0  0
    6.9073   -3.5151    0.5743 C   0  0  0  0  0  0  0  0  0  0  0  0
    8.0956    1.8919   -0.9317 O   0  0  0  0  0  0  0  0  0  0  0  0
    9.0678    2.5205   -1.6602 C   0  0  0  0  0  0  0  0  0  0  0  0
    9.9082    3.2953   -1.1467 O   0  0  0  0  0  0  0  0  0  0  0  0
    9.0742    2.3217   -3.1153 C   0  0  0  0  0  0  0  0  0  0  0  0
    8.3933    4.8887    4.6583 O   0  0  0  0  0  0  0  0  0  0  0  0
    5.1380    7.9060    4.1497 O   0  0  0  0  0  0  0  0  0  0  0  0
    3.0321    5.9307    4.3086 C   0  0  0  0  0  0  0  0  0  0  0  0
   -1.4701   -1.1225    0.0202 Cl  0  0  0  0  0  0  0  0  0  0  0  0
    7.4281    7.0822    4.3842 H   0  0  0  0  0  0  0  0  0  0  0  0
    5.7140    2.0674    4.7684 H   0  0  0  0  0  0  0  0  0  0  0  0
    7.3488    2.4620    5.2228 H   0  0  0  0  0  0  0  0  0  0  0  0
    5.1236    1.6489    2.4414 H   0  0  0  0  0  0  0  0  0  0  0  0
    9.0782    2.7003    3.4141 H   0  0  0  0  0  0  0  0  0  0  0  0
    9.7324    2.3772    1.1475 H   0  0  0  0  0  0  0  0  0  0  0  0
    5.8476    1.0276   -1.1801 H   0  0  0  0  0  0  0  0  0  0  0  0
    1.3382   -1.0431    0.1252 H   0  0  0  0  0  0  0  0  0  0  0  0
    2.0761    3.1162   -0.1526 H   0  0  0  0  0  0  0  0  0  0  0  0
   -0.2876    3.5149   -0.2706 H   0  0  0  0  0  0  0  0  0  0  0  0
   -1.8485    1.6669   -0.2551 H   0  0  0  0  0  0  0  0  0  0  0  0
    6.8285   -4.2493   -0.2290 H   0  0  0  0  0  0  0  0  0  0  0  0
    7.8452   -2.9677    0.4557 H   0  0  0  0  0  0  0  0  0  0  0  0
    6.9203   -4.0358    1.5337 H   0  0  0  0  0  0  0  0  0  0  0  0
    9.1246    1.2567   -3.3441 H   0  0  0  0  0  0  0  0  0  0  0  0
    9.9286    2.8216   -3.5746 H   0  0  0  0  0  0  0  0  0  0  0  0
    8.1580    2.7374   -3.5384 H   0  0  0  0  0  0  0  0  0  0  0  0
    2.7367    6.5547    5.1555 H   0  0  0  0  0  0  0  0  0  0  0  0
    2.7717    6.4430    3.3806 H   0  0  0  0  0  0  0  0  0  0  0  0
    2.4710    4.9954    4.3570 H   0  0  0  0  0  0  0  0  0  0  0  0
  1  2  1  0  0  0  0
  2  3  2  0  0  0  0
  3  4  1  0  0  0  0
  4  5  1  0  0  0  0
  5  6  1  0  0  0  0
  1  6  1  0  0  0  0
  4  7  1  0  0  0  0
  7  8  1  0  0  0  0
 10 11  1  0  0  0  0
 11 12  2  0  0  0  0
 12 13  1  0  0  0  0
  9 13  2  0  0  0  0
  9  8  1  0  0  0  0
  8 10  2  0  0  0  0
 14 13  1  0  0  0  0
 16 17  1  0  0  0  0
 17 18  2  0  0  0  0
 15 18  1  0  0  0  0
 15 14  1  0  0  0  0
 14 16  1  0  0  0  0
 18 19  1  0  0  0  0
 20 21  1  0  0  0  0
 22 23  2  0  0  0  0
 23 24  1  0  0  0  0
 20 24  2  0  0  0  0
 21 19  2  0  0  0  0
 19 22  1  0  0  0  0
 16 25  1  0  0  0  0
 25 26  1  0  0  0  0
 26 27  2  0  0  0  0
 26 28  1  0  0  0  0
 12 29  1  0  0  0  0
 29 30  1  0  0  0  0
 30 31  2  0  0  0  0
 30 32  1  0  0  0  0
  5 33  2  0  0  0  0
  1 34  2  0  0  0  0
  2 35  1  0  0  0  0
 20 36  1  0  0  0  0
  6 37  1  0  0  0  0
  7 38  1  0  0  0  0
  7 39  1  0  0  0  0
  9 40  1  0  0  0  0
 10 41  1  0  0  0  0
 11 42  1  0  0  0  0
 14 43  1  0  0  0  0
 21 44  1  0  0  0  0
 22 45  1  0  0  0  0
 23 46  1  0  0  0  0
 24 47  1  0  0  0  0
 28 48  1  0  0  0  0
 28 49  1  0  0  0  0
 28 50  1  0  0  0  0
 32 51  1  0  0  0  0
 32 52  1  0  0  0  0
 32 53  1  0  0  0  0
 35 54  1  0  0  0  0
 35 55  1  0  0  0  0
 35 56  1  0  0  0  0
M  END
$$$$
> 723_AKC_j.ejmech.2022.114878

  Mrv1816 11012215243D             170.44000

 86 91  0  0  0  0            999 V2000
  -11.2709   -2.8002   -2.7997 N   0  0  0  0  0  0  0  0  0  0  0  0
  -12.0209   -2.3763   -1.8329 N   0  0  0  0  0  0  0  0  0  0  0  0
  -13.2670   -2.3910   -2.2030 N   0  3  0  0  0  0  0  0  0  0  0  0
  -13.3486   -2.8081   -3.4864 C   0  0  0  0  0  0  0  0  0  0  0  0
  -12.0511   -3.1143   -3.8781 C   0  0  0  0  0  0  0  0  0  0  0  0
  -14.3449   -2.0141   -1.3435 C   0  0  0  0  0  0  0  0  0  0  0  0
  -14.5439   -2.8827   -4.3602 C   0  0  2  0  0  0  0  0  0  0  0  0
  -14.8508   -1.4975   -4.9920 C   0  0  1  0  0  0  0  0  0  0  0  0
  -16.1148   -1.4870   -5.8934 C   0  0  2  0  0  0  0  0  0  0  0  0
  -16.3955   -0.0822   -6.4849 C   0  0  1  0  0  0  0  0  0  0  0  0
  -17.6082   -0.0789   -7.3097 N   0  3  0  0  0  0  0  0  0  0  0  0
   -9.8187   -2.8978   -2.7736 C   0  0  0  0  0  0  0  0  0  0  0  0
   -9.1067   -4.0775   -3.2086 C   0  0  0  0  0  0  0  0  0  0  0  0
   -7.6988   -4.1613   -3.2581 C   0  0  0  0  0  0  0  0  0  0  0  0
   -6.9167   -3.0520   -2.8635 C   0  0  0  0  0  0  0  0  0  0  0  0
   -7.5602   -1.8867   -2.4024 C   0  0  0  0  0  0  0  0  0  0  0  0
   -8.9626   -1.8186   -2.3379 C   0  0  0  0  0  0  0  0  0  0  0  0
   -7.0960   -5.3231   -3.6795 O   0  0  0  0  0  0  0  0  0  0  0  0
   -7.2259   -5.5755   -5.0955 C   0  0  1  0  0  0  0  0  0  0  0  0
   -6.4504   -6.8620   -5.4694 C   0  0  1  0  0  0  0  0  0  0  0  0
   -6.5679   -7.3638   -6.8200 N   0  0  0  0  0  0  0  0  0  0  0  0
   -7.3319   -6.9119   -7.8475 C   0  0  0  0  0  0  0  0  0  0  0  0
   -7.1696   -7.6735   -8.9296 N   0  0  0  0  0  0  0  0  0  0  0  0
   -6.2235   -8.6994   -8.7301 C   0  0  1  0  0  0  0  0  0  0  0  0
   -5.8351   -8.5142   -7.2457 C   0  0  2  0  0  0  0  0  0  0  0  0
   -8.1136   -5.9351   -7.8538 O   0  0  0  0  0  0  0  0  0  0  0  0
   -4.4038   -1.9539   -3.6398 S   0  0  0  0  0  0  0  0  0  0  0  0
   -5.5095   -3.1052   -2.9049 C   0  0  0  0  0  0  0  0  0  0  0  0
   -4.7447   -4.0717   -2.3513 N   0  0  0  0  0  0  0  0  0  0  0  0
   -3.3926   -3.9490   -2.4668 C   0  0  0  0  0  0  0  0  0  0  0  0
   -2.9546   -2.8309   -3.1889 C   0  0  0  0  0  0  0  0  0  0  0  0
   -2.4907   -4.9240   -1.8153 C   0  0  1  0  0  0  0  0  0  0  0  0
   -2.1537   -4.5526   -0.3433 C   0  0  1  0  0  0  0  0  0  0  0  0
   -5.6988   -3.7508    2.0359 C   0  0  0  0  0  0  0  0  0  0  0  0
   -5.3730   -5.0705    1.6445 C   0  0  0  0  0  0  0  0  0  0  0  0
   -4.2134   -5.3332    0.8913 C   0  0  0  0  0  0  0  0  0  0  0  0
   -3.3518   -4.2813    0.5035 C   0  0  0  0  0  0  0  0  0  0  0  0
   -3.6677   -2.9639    0.9101 C   0  0  0  0  0  0  0  0  0  0  0  0
   -4.8253   -2.7024    1.6656 C   0  0  0  0  0  0  0  0  0  0  0  0
   -6.8775   -3.4868    2.7846 C   0  0  0  0  0  0  0  0  0  0  0  0
   -6.8116   -2.8255    4.0351 C   0  0  0  0  0  0  0  0  0  0  0  0
   -7.9808   -2.5765    4.7787 C   0  0  0  0  0  0  0  0  0  0  0  0
   -9.2320   -2.9805    4.2802 C   0  0  0  0  0  0  0  0  0  0  0  0
   -9.3140   -3.6354    3.0388 C   0  0  0  0  0  0  0  0  0  0  0  0
   -8.1449   -3.8876    2.2968 C   0  0  0  0  0  0  0  0  0  0  0  0
  -11.8023   -3.4784   -4.8453 H   0  0  0  0  0  0  0  0  0  0  0  0
  -14.8636   -1.1459   -1.7519 H   0  0  0  0  0  0  0  0  0  0  0  0
  -13.9848   -1.7561   -0.3445 H   0  0  0  0  0  0  0  0  0  0  0  0
  -15.0521   -2.8417   -1.2472 H   0  0  0  0  0  0  0  0  0  0  0  0
  -15.3973   -3.2324   -3.7774 H   0  0  0  0  0  0  0  0  0  0  0  0
  -14.3685   -3.6092   -5.1581 H   0  0  0  0  0  0  0  0  0  0  0  0
  -14.9879   -0.7611   -4.1962 H   0  0  0  0  0  0  0  0  0  0  0  0
  -13.9907   -1.1841   -5.5916 H   0  0  0  0  0  0  0  0  0  0  0  0
  -16.9819   -1.8018   -5.3057 H   0  0  0  0  0  0  0  0  0  0  0  0
  -15.9831   -2.1983   -6.7141 H   0  0  0  0  0  0  0  0  0  0  0  0
  -16.5281    0.6431   -5.6787 H   0  0  0  0  0  0  0  0  0  0  0  0
  -15.5548    0.2358   -7.1060 H   0  0  0  0  0  0  0  0  0  0  0  0
  -17.7685    0.8620   -7.6756 H   0  0  0  0  0  0  0  0  0  0  0  0
  -18.4102   -0.3615   -6.7435 H   0  0  0  0  0  0  0  0  0  0  0  0
  -17.4954   -0.7297   -8.0890 H   0  0  0  0  0  0  0  0  0  0  0  0
   -9.6598   -4.8884   -3.4974 H   0  0  0  0  0  0  0  0  0  0  0  0
   -7.0145   -1.0770   -2.0975 H   0  0  0  0  0  0  0  0  0  0  0  0
   -9.3953   -0.9611   -1.9862 H   0  0  0  0  0  0  0  0  0  0  0  0
   -8.2802   -5.7169   -5.3419 H   0  0  0  0  0  0  0  0  0  0  0  0
   -6.8266   -4.7373   -5.6763 H   0  0  0  0  0  0  0  0  0  0  0  0
   -5.3933   -6.6662   -5.2653 H   0  0  0  0  0  0  0  0  0  0  0  0
   -6.7750   -7.6580   -4.7912 H   0  0  0  0  0  0  0  0  0  0  0  0
   -7.6544   -7.5325   -9.7594 H   0  0  0  0  0  0  0  0  0  0  0  0
   -6.6700   -9.6790   -8.9209 H   0  0  0  0  0  0  0  0  0  0  0  0
   -5.3670   -8.5487   -9.3910 H   0  0  0  0  0  0  0  0  0  0  0  0
   -6.1259   -9.3931   -6.6632 H   0  0  0  0  0  0  0  0  0  0  0  0
   -4.7571   -8.3525   -7.1425 H   0  0  0  0  0  0  0  0  0  0  0  0
   -1.9927   -2.5672   -3.3981 H   0  0  0  0  0  0  0  0  0  0  0  0
   -2.9594   -5.9098   -1.8435 H   0  0  0  0  0  0  0  0  0  0  0  0
   -1.5595   -5.0026   -2.3824 H   0  0  0  0  0  0  0  0  0  0  0  0
   -1.5873   -5.3750    0.1014 H   0  0  0  0  0  0  0  0  0  0  0  0
   -1.4834   -3.6875   -0.3522 H   0  0  0  0  0  0  0  0  0  0  0  0
   -5.9747   -5.8542    1.9127 H   0  0  0  0  0  0  0  0  0  0  0  0
   -4.0006   -6.2991    0.6260 H   0  0  0  0  0  0  0  0  0  0  0  0
   -3.0613   -2.1818    0.6481 H   0  0  0  0  0  0  0  0  0  0  0  0
   -5.0301   -1.7362    1.9339 H   0  0  0  0  0  0  0  0  0  0  0  0
   -5.9111   -2.5292    4.4205 H   0  0  0  0  0  0  0  0  0  0  0  0
   -7.9214   -2.1027    5.6831 H   0  0  0  0  0  0  0  0  0  0  0  0
  -10.0811   -2.7971    4.8188 H   0  0  0  0  0  0  0  0  0  0  0  0
  -10.2241   -3.9270    2.6750 H   0  0  0  0  0  0  0  0  0  0  0  0
   -8.2278   -4.3613    1.3936 H   0  0  0  0  0  0  0  0  0  0  0  0
  1  2  1  0  0  0  0
  2  3  2  0  0  0  0
  3  4  1  0  0  0  0
  4  5  2  0  0  0  0
  1  5  1  0  0  0  0
  3  6  1  0  0  0  0
  7  8  1  0  0  0  0
  8  9  1  0  0  0  0
  9 10  1  0  0  0  0
 10 11  1  0  0  0  0
  4  7  1  0  0  0  0
 12 13  2  0  0  0  0
 13 14  1  0  0  0  0
 14 15  2  0  0  0  0
 15 16  1  0  0  0  0
 16 17  2  0  0  0  0
 12 17  1  0  0  0  0
 19 20  1  0  0  0  0
 21 22  1  0  0  0  0
 22 23  1  0  0  0  0
 23 24  1  0  0  0  0
 24 25  1  0  0  0  0
 21 25  1  0  0  0  0
 22 26  2  0  0  0  0
 20 21  1  0  0  0  0
 18 19  1  0  0  0  0
 14 18  1  0  0  0  0
 27 28  1  0  0  0  0
 28 29  2  0  0  0  0
 29 30  1  0  0  0  0
 30 31  2  0  0  0  0
 27 31  1  0  0  0  0
 32 33  1  0  0  0  0
 34 35  2  0  0  0  0
 35 36  1  0  0  0  0
 36 37  2  0  0  0  0
 37 38  1  0  0  0  0
 38 39  2  0  0  0  0
 34 39  1  0  0  0  0
 40 41  2  0  0  0  0
 41 42  1  0  0  0  0
 42 43  2  0  0  0  0
 43 44  1  0  0  0  0
 44 45  2  0  0  0  0
 40 45  1  0  0  0  0
 34 40  1  0  0  0  0
 33 37  1  0  0  0  0
 30 32  1  0  0  0  0
 15 28  1  0  0  0  0
  1 12  1  0  0  0  0
  5 46  1  0  0  0  0
  6 47  1  0  0  0  0
  6 48  1  0  0  0  0
  6 49  1  0  0  0  0
  7 50  1  0  0  0  0
  7 51  1  0  0  0  0
  8 52  1  0  0  0  0
  8 53  1  0  0  0  0
  9 54  1  0  0  0  0
  9 55  1  0  0  0  0
 10 56  1  0  0  0  0
 10 57  1  0  0  0  0
 11 58  1  0  0  0  0
 11 59  1  0  0  0  0
 11 60  1  0  0  0  0
 13 61  1  0  0  0  0
 16 62  1  0  0  0  0
 17 63  1  0  0  0  0
 19 64  1  0  0  0  0
 19 65  1  0  0  0  0
 20 66  1  0  0  0  0
 20 67  1  0  0  0  0
 23 68  1  0  0  0  0
 24 69  1  0  0  0  0
 24 70  1  0  0  0  0
 25 71  1  0  0  0  0
 25 72  1  0  0  0  0
 31 73  1  0  0  0  0
 32 74  1  0  0  0  0
 32 75  1  0  0  0  0
 33 76  1  0  0  0  0
 33 77  1  0  0  0  0
 35 78  1  0  0  0  0
 36 79  1  0  0  0  0
 38 80  1  0  0  0  0
 39 81  1  0  0  0  0
 41 82  1  0  0  0  0
 42 83  1  0  0  0  0
 43 84  1  0  0  0  0
 44 85  1  0  0  0  0
 45 86  1  0  0  0  0
M  CHG  2   3   1  11   1
M  END
>  <type>
systematic

$$$$
> 724_AKC_14786419.2022.2140336

  Mrv1816 11012215303D             107.56000

 60 63  0  0  0  0            999 V2000
   -1.3838   -3.2255    2.5276 C   0  0  0  0  0  0  0  0  0  0  0  0
   -0.8290   -2.1755    1.7539 C   0  0  0  0  0  0  0  0  0  0  0  0
   -1.5005   -1.6545    0.6220 C   0  0  0  0  0  0  0  0  0  0  0  0
   -2.7287   -2.2529    0.2299 C   0  0  0  0  0  0  0  0  0  0  0  0
   -3.2724   -3.3631    0.9444 C   0  0  0  0  0  0  0  0  0  0  0  0
   -2.6432   -3.7760    2.1538 C   0  0  0  0  0  0  0  0  0  0  0  0
   -3.3397   -4.7608    3.0365 C   0  0  1  0  0  0  0  0  0  0  0  0
   -4.4098   -4.0731    0.4931 C   0  0  0  0  0  0  0  0  0  0  0  0
   -5.1404   -4.8931    1.2923 C   0  0  0  0  0  0  0  0  0  0  0  0
   -4.7067   -5.1229    2.6037 C   0  0  0  0  0  0  0  0  0  0  0  0
   -6.2970   -5.5439    0.8200 C   0  0  0  0  0  0  0  0  0  0  0  0
   -7.3637   -4.8199    0.2273 C   0  0  0  0  0  0  0  0  0  0  0  0
   -8.4905   -5.4855   -0.2899 C   0  0  0  0  0  0  0  0  0  0  0  0
   -8.5908   -6.8858   -0.1914 C   0  0  0  0  0  0  0  0  0  0  0  0
   -7.5579   -7.6172    0.4224 C   0  0  0  0  0  0  0  0  0  0  0  0
   -6.4198   -6.9534    0.9128 C   0  0  0  0  0  0  0  0  0  0  0  0
   -4.7336   -3.9610   -0.7994 O   0  0  0  0  0  0  0  0  0  0  0  0
   -5.4382   -5.6875    3.4540 O   0  0  0  0  0  0  0  0  0  0  0  0
   -9.6738   -7.5380   -0.6834 O   0  0  0  0  0  0  0  0  0  0  0  0
   -3.3845   -1.7418   -0.8665 O   0  0  0  0  0  0  0  0  0  0  0  0
    0.4103   -1.6640    2.0917 O   0  0  0  0  0  0  0  0  0  0  0  0
   -0.9038   -0.4886   -0.1131 C   0  0  2  0  0  0  0  0  0  0  0  0
    0.3566   -0.8238   -0.7687 C   0  0  0  0  0  0  0  0  0  0  0  0
    1.5605   -0.2304   -0.5877 C   0  0  0  0  0  0  0  0  0  0  0  0
    1.7586    0.8933    0.3301 C   0  0  0  0  0  0  0  0  0  0  0  0
    2.7275   -0.6937   -1.3379 C   0  0  0  0  0  0  0  0  0  0  0  0
   -0.6489   -3.6511    3.6426 C   0  0  0  0  0  0  0  0  0  0  0  0
    0.3990   -2.9603    4.1184 C   0  0  0  0  0  0  0  0  0  0  0  0
    0.8171   -1.7080    3.4853 C   0  0  1  0  0  0  0  0  0  0  0  0
    2.3702   -1.5970    3.4628 C   0  0  0  0  0  0  0  0  0  0  0  0
    0.1904   -0.5047    4.2499 C   0  0  0  0  0  0  0  0  0  0  0  0
   -4.4420   -0.8219   -0.5264 C   0  0  0  0  0  0  0  0  0  0  0  0
   -2.7544   -5.6812    3.0898 H   0  0  0  0  0  0  0  0  0  0  0  0
   -3.4114   -4.3281    4.0387 H   0  0  0  0  0  0  0  0  0  0  0  0
   -7.3249   -3.8003    0.1587 H   0  0  0  0  0  0  0  0  0  0  0  0
   -9.2373   -4.9506   -0.7376 H   0  0  0  0  0  0  0  0  0  0  0  0
   -7.6297   -8.6336    0.5119 H   0  0  0  0  0  0  0  0  0  0  0  0
   -5.6712   -7.5114    1.3326 H   0  0  0  0  0  0  0  0  0  0  0  0
   -5.1444   -4.8115   -1.0585 H   0  0  0  0  0  0  0  0  0  0  0  0
  -10.3319   -6.8376   -0.8848 H   0  0  0  0  0  0  0  0  0  0  0  0
   -0.8101    0.3348    0.5981 H   0  0  0  0  0  0  0  0  0  0  0  0
   -1.5656   -0.1185   -0.8984 H   0  0  0  0  0  0  0  0  0  0  0  0
    0.2952   -1.5736   -1.4196 H   0  0  0  0  0  0  0  0  0  0  0  0
    2.8064    1.1955    0.3993 H   0  0  0  0  0  0  0  0  0  0  0  0
    1.4339    0.6308    1.3351 H   0  0  0  0  0  0  0  0  0  0  0  0
    1.1873    1.7577   -0.0095 H   0  0  0  0  0  0  0  0  0  0  0  0
    2.5092   -1.5028   -2.0393 H   0  0  0  0  0  0  0  0  0  0  0  0
    3.4879   -1.0529   -0.6419 H   0  0  0  0  0  0  0  0  0  0  0  0
    3.1425    0.1342   -1.9156 H   0  0  0  0  0  0  0  0  0  0  0  0
   -0.8959   -4.4879    4.1157 H   0  0  0  0  0  0  0  0  0  0  0  0
    0.8770   -3.2933    4.9247 H   0  0  0  0  0  0  0  0  0  0  0  0
    2.7988   -2.4208    2.8888 H   0  0  0  0  0  0  0  0  0  0  0  0
    2.7875   -1.6219    4.4726 H   0  0  0  0  0  0  0  0  0  0  0  0
    2.6841   -0.6651    2.9907 H   0  0  0  0  0  0  0  0  0  0  0  0
    0.5010    0.4393    3.7998 H   0  0  0  0  0  0  0  0  0  0  0  0
   -0.9004   -0.5529    4.2114 H   0  0  0  0  0  0  0  0  0  0  0  0
    0.5002   -0.5033    5.2980 H   0  0  0  0  0  0  0  0  0  0  0  0
   -4.9052   -0.4895   -1.4561 H   0  0  0  0  0  0  0  0  0  0  0  0
   -5.2168   -1.2956    0.0833 H   0  0  0  0  0  0  0  0  0  0  0  0
   -4.0557    0.0551    0.0000 H   0  0  0  0  0  0  0  0  0  0  0  0
  1  2  2  0  0  0  0
  2  3  1  0  0  0  0
  3  4  2  0  0  0  0
  4  5  1  0  0  0  0
  5  6  2  0  0  0  0
  1  6  1  0  0  0  0
  8  9  2  0  0  0  0
  9 10  1  0  0  0  0
  7 10  1  0  0  0  0
  5  8  1  0  0  0  0
  7  6  1  0  0  0  0
 12 13  2  0  0  0  0
 13 14  1  0  0  0  0
 14 15  2  0  0  0  0
 15 16  1  0  0  0  0
 11 12  1  0  0  0  0
 11 16  2  0  0  0  0
  9 11  1  0  0  0  0
  8 17  1  0  0  0  0
 10 18  2  0  0  0  0
 14 19  1  0  0  0  0
  4 20  1  0  0  0  0
  2 21  1  0  0  0  0
  3 22  1  0  0  0  0
 22 23  1  0  0  0  0
 23 24  2  0  0  0  0
 24 25  1  0  0  0  0
 24 26  1  0  0  0  0
  1 27  1  0  0  0  0
 27 28  2  0  0  0  0
 28 29  1  0  0  0  0
 21 29  1  0  0  0  0
 29 30  1  0  0  0  0
 29 31  1  0  0  0  0
 20 32  1  0  0  0  0
  7 33  1  0  0  0  0
  7 34  1  0  0  0  0
 12 35  1  0  0  0  0
 13 36  1  0  0  0  0
 15 37  1  0  0  0  0
 16 38  1  0  0  0  0
 17 39  1  0  0  0  0
 19 40  1  0  0  0  0
 22 41  1  0  0  0  0
 22 42  1  0  0  0  0
 23 43  1  0  0  0  0
 25 44  1  0  0  0  0
 25 45  1  0  0  0  0
 25 46  1  0  0  0  0
 26 47  1  0  0  0  0
 26 48  1  0  0  0  0
 26 49  1  0  0  0  0
 27 50  1  0  0  0  0
 28 51  1  0  0  0  0
 30 52  1  0  0  0  0
 30 53  1  0  0  0  0
 30 54  1  0  0  0  0
 31 55  1  0  0  0  0
 31 56  1  0  0  0  0
 31 57  1  0  0  0  0
 32 58  1  0  0  0  0
 32 59  1  0  0  0  0
 32 60  1  0  0  0  0
M  END
$$$$
> 725_AKC_s11686-022-00632-3

  Mrv1816 11172211273D              72.51000

 41 44  0  0  0  0            999 V2000
   -0.8171    2.4942    1.8170 C   0  0  0  0  0  0  0  0  0  0  0  0
   -0.3435    3.3914    0.8440 C   0  0  0  0  0  0  0  0  0  0  0  0
    0.0862    2.9116   -0.4057 C   0  0  0  0  0  0  0  0  0  0  0  0
    0.0430    1.5331   -0.6827 C   0  0  0  0  0  0  0  0  0  0  0  0
   -0.4420    0.6189    0.2829 C   0  0  0  0  0  0  0  0  0  0  0  0
   -0.8536    1.1153    1.5427 C   0  0  0  0  0  0  0  0  0  0  0  0
   -0.5628   -0.8261   -0.0517 C   0  0  1  0  0  0  0  0  0  0  0  0
   -1.4522   -1.0226   -1.1665 N   0  3  0  0  0  0  0  0  0  0  0  0
   -3.1977   -1.0289   -2.5405 C   0  0  0  0  0  0  0  0  0  0  0  0
   -2.7591   -0.6887   -1.2594 C   0  0  0  0  0  0  0  0  0  0  0  0
   -1.1071   -1.5630   -2.3572 C   0  0  0  0  0  0  0  0  0  0  0  0
   -2.1602   -1.5793   -3.2023 N   0  0  0  0  0  0  0  0  0  0  0  0
   -3.6387   -0.0802   -0.3400 C   0  0  0  0  0  0  0  0  0  0  0  0
   -4.9600    0.1993   -0.7440 C   0  0  0  0  0  0  0  0  0  0  0  0
   -5.3981   -0.1424   -2.0411 C   0  0  0  0  0  0  0  0  0  0  0  0
   -4.5185   -0.7603   -2.9519 C   0  0  0  0  0  0  0  0  0  0  0  0
   -2.1542   -2.0598   -4.4809 C   0  0  0  0  0  0  0  0  0  0  0  0
   -3.0475   -3.5958   -6.1651 C   0  0  0  0  0  0  0  0  0  0  0  0
   -3.0250   -3.1092   -4.8468 C   0  0  0  0  0  0  0  0  0  0  0  0
   -1.2886   -1.5201   -5.4585 C   0  0  0  0  0  0  0  0  0  0  0  0
   -1.3113   -2.0065   -6.7802 C   0  0  0  0  0  0  0  0  0  0  0  0
   -2.1909   -3.0534   -7.1515 C   0  0  0  0  0  0  0  0  0  0  0  0
   -2.2340   -3.5677   -8.4693 C   0  0  0  0  0  0  0  0  0  0  0  0
   -2.8772   -4.3261   -8.7053 H   0  0  0  0  0  0  0  0  0  0  0  0
   -1.5020   -3.1374   -9.3889 O   0  0  0  0  0  0  0  0  0  0  0  0
   -1.1411    2.8432    2.7212 H   0  0  0  0  0  0  0  0  0  0  0  0
   -0.3142    4.3924    1.0447 H   0  0  0  0  0  0  0  0  0  0  0  0
    0.4242    3.5654   -1.1147 H   0  0  0  0  0  0  0  0  0  0  0  0
    0.3542    1.2004   -1.5989 H   0  0  0  0  0  0  0  0  0  0  0  0
   -1.2032    0.4772    2.2616 H   0  0  0  0  0  0  0  0  0  0  0  0
    0.4374   -1.2104   -0.2766 H   0  0  0  0  0  0  0  0  0  0  0  0
   -0.9333   -1.4054    0.7989 H   0  0  0  0  0  0  0  0  0  0  0  0
   -0.1712   -1.9127   -2.5875 H   0  0  0  0  0  0  0  0  0  0  0  0
   -3.3295    0.1653    0.6000 H   0  0  0  0  0  0  0  0  0  0  0  0
   -5.6028    0.6576   -0.0950 H   0  0  0  0  0  0  0  0  0  0  0  0
   -6.3585    0.0609   -2.3230 H   0  0  0  0  0  0  0  0  0  0  0  0
   -4.8353   -1.0003   -3.8933 H   0  0  0  0  0  0  0  0  0  0  0  0
   -3.6993   -4.3515   -6.3976 H   0  0  0  0  0  0  0  0  0  0  0  0
   -3.6465   -3.5276   -4.1497 H   0  0  0  0  0  0  0  0  0  0  0  0
   -0.6450   -0.7621   -5.2156 H   0  0  0  0  0  0  0  0  0  0  0  0
   -0.6812   -1.5851   -7.4692 H   0  0  0  0  0  0  0  0  0  0  0  0
  1  2  2  0  0  0  0
  2  3  1  0  0  0  0
  3  4  2  0  0  0  0
  4  5  1  0  0  0  0
  5  6  2  0  0  0  0
  1  6  1  0  0  0  0
  5  7  1  0  0  0  0
  7  8  1  0  0  0  0
 11 12  1  0  0  0  0
  9 12  1  0  0  0  0
 10  8  1  0  0  0  0
  8 11  2  0  0  0  0
 13 14  1  0  0  0  0
 14 15  2  0  0  0  0
 15 16  1  0  0  0  0
  9 16  2  0  0  0  0
 10 13  2  0  0  0  0
  9 10  1  0  0  0  0
 12 17  1  0  0  0  0
 18 19  1  0  0  0  0
 20 21  2  0  0  0  0
 21 22  1  0  0  0  0
 18 22  2  0  0  0  0
 19 17  2  0  0  0  0
 17 20  1  0  0  0  0
 22 23  1  0  0  0  0
 23 24  1  0  0  0  0
 23 25  2  0  0  0  0
  1 26  1  0  0  0  0
  2 27  1  0  0  0  0
  3 28  1  0  0  0  0
  4 29  1  0  0  0  0
  6 30  1  0  0  0  0
  7 31  1  0  0  0  0
  7 32  1  0  0  0  0
 11 33  1  0  0  0  0
 13 34  1  0  0  0  0
 14 35  1  0  0  0  0
 15 36  1  0  0  0  0
 16 37  1  0  0  0  0
 18 38  1  0  0  0  0
 19 39  1  0  0  0  0
 20 40  1  0  0  0  0
 21 41  1  0  0  0  0
M  CHG  1   8   1
M  END
$$$$
> 726_AKC_14786419.2022.2137797

  Mrv1816 11172211303D              53.53000

 30 32  0  0  0  0            999 V2000
   -2.7092    0.0752    0.3636 C   0  0  0  0  0  0  0  0  0  0  0  0
   -2.0686   -1.1891    0.2190 C   0  0  0  0  0  0  0  0  0  0  0  0
   -0.7008   -1.2747   -0.0965 C   0  0  0  0  0  0  0  0  0  0  0  0
    0.0702   -0.1110   -0.2806 C   0  0  0  0  0  0  0  0  0  0  0  0
   -0.5574    1.1439   -0.1373 C   0  0  0  0  0  0  0  0  0  0  0  0
   -1.9343    1.2578    0.1840 C   0  0  0  0  0  0  0  0  0  0  0  0
   -2.5483    2.5414    0.3270 C   0  0  0  0  0  0  0  0  0  0  0  0
   -3.9337    2.6596    0.6525 C   0  0  0  0  0  0  0  0  0  0  0  0
   -4.7234    1.4860    0.8348 C   0  0  0  0  0  0  0  0  0  0  0  0
   -4.1006    0.2010    0.6887 C   0  0  0  0  0  0  0  0  0  0  0  0
   -6.1031    1.6342    1.1594 C   0  0  0  0  0  0  0  0  0  0  0  0
   -4.5396    3.9351    0.7948 C   0  0  0  0  0  0  0  0  0  0  0  0
   -5.9008    4.0586    1.1156 C   0  0  0  0  0  0  0  0  0  0  0  0
   -6.6793    2.9084    1.3004 C   0  0  0  0  0  0  0  0  0  0  0  0
   -1.8592    3.5784    0.1636 O   0  0  0  0  0  0  0  0  0  0  0  0
   -4.7868   -0.8352    0.8591 O   0  0  0  0  0  0  0  0  0  0  0  0
   -6.9371    0.5809    1.3476 O   0  0  0  0  0  0  0  0  0  0  0  0
   -6.4679    5.2808    1.2417 O   0  0  0  0  0  0  0  0  0  0  0  0
   -2.7205   -2.3688    0.3732 O   0  0  0  0  0  0  0  0  0  0  0  0
    1.5131   -0.1815   -0.6164 C   0  0  0  0  0  0  0  0  0  0  0  0
   -0.2656   -2.1981   -0.1949 H   0  0  0  0  0  0  0  0  0  0  0  0
    0.0102    1.9877   -0.2697 H   0  0  0  0  0  0  0  0  0  0  0  0
   -3.9953    4.7919    0.6665 H   0  0  0  0  0  0  0  0  0  0  0  0
   -7.6715    3.0014    1.5326 H   0  0  0  0  0  0  0  0  0  0  0  0
   -7.0640    0.1986    0.4526 H   0  0  0  0  0  0  0  0  0  0  0  0
   -6.7476    5.5147    0.3315 H   0  0  0  0  0  0  0  0  0  0  0  0
   -3.2626   -2.4612   -0.4393 H   0  0  0  0  0  0  0  0  0  0  0  0
    2.0975    0.3193    0.1585 H   0  0  0  0  0  0  0  0  0  0  0  0
    1.8704   -1.2103   -0.6990 H   0  0  0  0  0  0  0  0  0  0  0  0
    1.6911    0.3163   -1.5714 H   0  0  0  0  0  0  0  0  0  0  0  0
  1  2  2  0  0  0  0
  2  3  1  0  0  0  0
  3  4  2  0  0  0  0
  4  5  1  0  0  0  0
  5  6  2  0  0  0  0
  7  8  1  0  0  0  0
  8  9  2  0  0  0  0
  9 10  1  0  0  0  0
  1  6  1  0  0  0  0
  1 10  1  0  0  0  0
  6  7  1  0  0  0  0
 12 13  2  0  0  0  0
 13 14  1  0  0  0  0
 11 14  2  0  0  0  0
  8 12  1  0  0  0  0
 11  9  1  0  0  0  0
  7 15  2  0  0  0  0
 10 16  2  0  0  0  0
 11 17  1  0  0  0  0
 13 18  1  0  0  0  0
  2 19  1  0  0  0  0
  4 20  1  0  0  0  0
  3 21  1  0  0  0  0
  5 22  1  0  0  0  0
 12 23  1  0  0  0  0
 14 24  1  0  0  0  0
 17 25  1  0  0  0  0
 18 26  1  0  0  0  0
 19 27  1  0  0  0  0
 20 28  1  0  0  0  0
 20 29  1  0  0  0  0
 20 30  1  0  0  0  0
M  END
$$$$
> 727_AKC_j.biopha.2022.114012

 OpenBabel11182210563D

 93 98  0  0  1  0  0  0  0  0999 V2000
    9.2962   -3.7086    3.6503 C   0  0  0  0  0  0  0  0  0  0  0  0
    8.6522   -4.6802    3.2874 O   0  0  0  0  0  0  0  0  0  0  0  0
   10.3314   -3.9087    4.6903 C   0  0  0  0  0  0  0  0  0  0  0  0
   10.8673   -2.8720    5.3443 C   0  0  0  0  0  0  0  0  0  0  0  0
   10.3042   -1.4870    5.1745 C   0  0  2  0  0  0  0  0  0  0  0  0
    9.1020   -1.3884    5.8925 O   0  0  0  0  0  0  0  0  0  0  0  0
   10.0108   -1.2778    3.6870 C   0  0  2  0  0  0  0  0  0  0  0  0
   10.6978   -0.1601    2.9673 C   0  0  2  0  0  0  0  0  0  0  0  0
    9.4400    0.0242    3.5147 O   0  0  0  0  0  0  0  0  0  0  0  0
   10.7025   -0.1894    1.4434 C   0  0  0  0  0  0  0  0  0  0  0  0
    9.5718   -1.0193    0.7899 C   0  0  2  0  0  0  0  0  0  0  0  0
    9.5032   -2.4333    1.4554 C   0  0  1  0  0  0  0  0  0  0  0  0
    9.0827   -2.3343    2.9795 C   0  0  1  0  0  0  0  0  0  0  0  0
    8.6173   -3.4236    0.6360 C   0  0  0  0  0  0  0  0  0  0  0  0
    8.9943   -3.4708   -0.8477 C   0  0  0  0  0  0  0  0  0  0  0  0
    8.8935   -2.0680   -1.4869 C   0  0  1  0  0  0  0  0  0  0  0  0
    9.8780   -1.1616   -0.7224 C   0  0  1  0  0  0  0  0  0  0  0  0
    9.9224    0.1124   -1.5581 C   0  0  0  0  0  0  0  0  0  0  0  0
    9.7440   -0.3857   -3.0050 C   0  0  0  0  0  0  0  0  0  0  0  0
    9.4930   -1.9223   -2.9167 C   0  0  2  0  0  0  0  0  0  0  0  0
    7.4121   -1.5631   -1.4631 C   0  0  0  0  0  0  0  0  0  0  0  0
    7.5842   -1.9433    3.1653 C   0  0  0  0  0  0  0  0  0  0  0  0
    8.7278   -2.5436   -4.1404 C   0  0  2  0  0  0  0  0  0  0  0  0
    8.8088   -4.0865   -4.1730 C   0  0  0  0  0  0  0  0  0  0  0  0
    9.2124   -1.9611   -5.4898 C   0  0  1  0  0  0  0  0  0  0  0  0
   10.7028   -2.1486   -5.7904 C   0  0  0  0  0  0  0  0  0  0  0  0
   11.0015   -1.4440   -7.0983 C   0  0  0  0  0  0  0  0  0  0  0  0
   10.1122   -1.5970   -8.1260 C   0  0  0  0  0  0  0  0  0  0  0  0
    8.8259   -2.2916   -7.8280 C   0  0  0  0  0  0  0  0  0  0  0  0
    8.0591   -2.6076   -8.7196 O   0  0  0  0  0  0  0  0  0  0  0  0
    8.4874   -2.5213   -6.5323 O   0  0  0  0  0  0  0  0  0  0  0  0
   10.3398   -1.0845   -9.5294 C   0  0  0  0  0  0  0  0  0  0  0  0
   10.8829   -2.0006  -10.2226 O   0  0  0  0  0  0  0  0  0  0  0  0
   12.2800   -0.6352   -7.1715 C   0  0  0  0  0  0  0  0  0  0  0  0
   10.6835   -4.9149    4.8970 H   0  0  0  0  0  0  0  0  0  0  0  0
   11.6763   -3.0402    6.0475 H   0  0  0  0  0  0  0  0  0  0  0  0
   11.0190   -0.7317    5.5723 H   0  0  0  0  0  0  0  0  0  0  0  0
   11.4662    0.4251    3.5150 H   0  0  0  0  0  0  0  0  0  0  0  0
   10.6793    0.8531    1.0602 H   0  0  0  0  0  0  0  0  0  0  0  0
   11.6854   -0.6291    1.1668 H   0  0  0  0  0  0  0  0  0  0  0  0
    8.6003   -0.5014    0.9138 H   0  0  0  0  0  0  0  0  0  0  0  0
   10.5391   -2.8430    1.4062 H   0  0  0  0  0  0  0  0  0  0  0  0
    8.7275   -4.4582    1.0055 H   0  0  0  0  0  0  0  0  0  0  0  0
    7.5488   -3.1630    0.7158 H   0  0  0  0  0  0  0  0  0  0  0  0
    8.3109   -4.1928   -1.3186 H   0  0  0  0  0  0  0  0  0  0  0  0
   10.0350   -3.8564   -0.9388 H   0  0  0  0  0  0  0  0  0  0  0  0
   10.8915   -1.6292   -0.8068 H   0  0  0  0  0  0  0  0  0  0  0  0
    9.0352    0.7293   -1.2964 H   0  0  0  0  0  0  0  0  0  0  0  0
   10.8282    0.7350   -1.3953 H   0  0  0  0  0  0  0  0  0  0  0  0
    8.8660    0.1491   -3.4264 H   0  0  0  0  0  0  0  0  0  0  0  0
   10.6216   -0.1529   -3.6435 H   0  0  0  0  0  0  0  0  0  0  0  0
   10.5118   -2.3784   -2.8935 H   0  0  0  0  0  0  0  0  0  0  0  0
    7.0075   -1.4473   -0.4418 H   0  0  0  0  0  0  0  0  0  0  0  0
    7.2800   -0.5776   -1.9490 H   0  0  0  0  0  0  0  0  0  0  0  0
    6.7586   -2.2827   -1.9979 H   0  0  0  0  0  0  0  0  0  0  0  0
    6.8983   -2.7006    2.7377 H   0  0  0  0  0  0  0  0  0  0  0  0
    7.3221   -1.8643    4.2387 H   0  0  0  0  0  0  0  0  0  0  0  0
    7.3386   -0.9710    2.6917 H   0  0  0  0  0  0  0  0  0  0  0  0
    7.6584   -2.2532   -4.0869 H   0  0  0  0  0  0  0  0  0  0  0  0
    8.3010   -4.4917   -5.0725 H   0  0  0  0  0  0  0  0  0  0  0  0
    9.8635   -4.4338   -4.1787 H   0  0  0  0  0  0  0  0  0  0  0  0
    8.2841   -4.5536   -3.3325 H   0  0  0  0  0  0  0  0  0  0  0  0
    9.0147   -0.8668   -5.4829 H   0  0  0  0  0  0  0  0  0  0  0  0
   11.3846   -1.7952   -4.9924 H   0  0  0  0  0  0  0  0  0  0  0  0
   10.8901   -3.2360   -5.9293 H   0  0  0  0  0  0  0  0  0  0  0  0
   10.9239   -0.1464   -9.5842 H   0  0  0  0  0  0  0  0  0  0  0  0
    9.3661   -0.8174   -9.9911 H   0  0  0  0  0  0  0  0  0  0  0  0
   12.2358    0.1662   -6.4045 H   0  0  0  0  0  0  0  0  0  0  0  0
   13.1538   -1.2738   -6.9312 H   0  0  0  0  0  0  0  0  0  0  0  0
   12.4709   -0.1531   -8.1426 H   0  0  0  0  0  0  0  0  0  0  0  0
   12.2085   -2.8609  -10.4524 Si  0  0  0  0  0  0  0  0  0  0  0  0
    9.3257   -1.5087    6.8527 H   0  0  0  0  0  0  0  0  0  0  0  0
   11.9987   -4.1350  -11.8487 C   0  0  0  0  0  0  0  0  0  0  0  0
   12.6091   -3.8241   -8.8917 C   0  0  0  0  0  0  0  0  0  0  0  0
   13.5576   -1.6378  -10.8705 C   0  0  0  0  0  0  0  0  0  0  0  0
   13.2775   -1.0927  -11.7956 H   0  0  0  0  0  0  0  0  0  0  0  0
   14.5230   -2.1584  -11.0163 H   0  0  0  0  0  0  0  0  0  0  0  0
   13.6565   -0.9048  -10.0457 H   0  0  0  0  0  0  0  0  0  0  0  0
   13.3348   -4.8748  -12.0471 C   0  0  0  0  0  0  0  0  0  0  0  0
   11.7514   -4.4754   -8.6256 H   0  0  0  0  0  0  0  0  0  0  0  0
   12.8042   -3.1497   -8.0488 H   0  0  0  0  0  0  0  0  0  0  0  0
   13.5146   -4.4415   -9.0397 H   0  0  0  0  0  0  0  0  0  0  0  0
   13.6372   -5.4115  -11.1236 H   0  0  0  0  0  0  0  0  0  0  0  0
   14.1444   -4.1636  -12.3161 H   0  0  0  0  0  0  0  0  0  0  0  0
   13.2532   -5.6262  -12.8599 H   0  0  0  0  0  0  0  0  0  0  0  0
   11.6082   -3.4236  -13.1528 C   0  0  0  0  0  0  0  0  0  0  0  0
   10.9037   -5.1500  -11.4728 C   0  0  0  0  0  0  0  0  0  0  0  0
   11.1655   -5.6967  -10.5426 H   0  0  0  0  0  0  0  0  0  0  0  0
   10.7813   -5.9059  -12.2785 H   0  0  0  0  0  0  0  0  0  0  0  0
    9.9277   -4.6418  -11.3186 H   0  0  0  0  0  0  0  0  0  0  0  0
   12.3849   -2.6890  -13.4523 H   0  0  0  0  0  0  0  0  0  0  0  0
   10.6409   -2.8898  -13.0349 H   0  0  0  0  0  0  0  0  0  0  0  0
   11.4994   -4.1625  -13.9765 H   0  0  0  0  0  0  0  0  0  0  0  0
  1  3  1  0  0  0  0
  2  1  2  0  0  0  0
  3 35  1  0  0  0  0
  3  4  2  0  0  0  0
  4  5  1  0  0  0  0
  4 36  1  0  0  0  0
  5 37  1  1  0  0  0
  5  6  1  0  0  0  0
  6 72  1  0  0  0  0
  7  9  1  1  0  0  0
  7  5  1  0  0  0  0
  8 38  1  1  0  0  0
  8  9  1  0  0  0  0
  8  7  1  0  0  0  0
 10  8  1  0  0  0  0
 11 41  1  1  0  0  0
 11 12  1  0  0  0  0
 11 10  1  0  0  0  0
 12 42  1  6  0  0  0
 12 13  1  0  0  0  0
 13 22  1  1  0  0  0
 13  1  1  0  0  0  0
 13  7  1  0  0  0  0
 14 44  1  0  0  0  0
 14 43  1  0  0  0  0
 14 12  1  0  0  0  0
 15 14  1  0  0  0  0
 16 21  1  1  0  0  0
 16 15  1  0  0  0  0
 16 17  1  0  0  0  0
 17 47  1  6  0  0  0
 17 11  1  0  0  0  0
 18 49  1  0  0  0  0
 18 48  1  0  0  0  0
 18 17  1  0  0  0  0
 19 20  1  0  0  0  0
 19 18  1  0  0  0  0
 20 52  1  1  0  0  0
 20 16  1  0  0  0  0
 21 53  1  0  0  0  0
 22 57  1  0  0  0  0
 23 59  1  1  0  0  0
 23 24  1  0  0  0  0
 23 20  1  0  0  0  0
 24 61  1  0  0  0  0
 24 62  1  0  0  0  0
 25 63  1  1  0  0  0
 25 23  1  0  0  0  0
 26 65  1  0  0  0  0
 26 25  1  0  0  0  0
 26 64  1  0  0  0  0
 27 26  1  0  0  0  0
 28 29  1  0  0  0  0
 28 27  2  0  0  0  0
 29 31  1  0  0  0  0
 30 29  2  0  0  0  0
 31 25  1  0  0  0  0
 32 28  1  0  0  0  0
 33 71  1  0  0  0  0
 33 32  1  0  0  0  0
 34 27  1  0  0  0  0
 34 68  1  0  0  0  0
 39 10  1  0  0  0  0
 40 10  1  0  0  0  0
 45 15  1  0  0  0  0
 46 15  1  0  0  0  0
 50 19  1  0  0  0  0
 51 19  1  0  0  0  0
 54 21  1  0  0  0  0
 55 21  1  0  0  0  0
 56 22  1  0  0  0  0
 58 22  1  0  0  0  0
 60 24  1  0  0  0  0
 66 32  1  0  0  0  0
 67 32  1  0  0  0  0
 69 34  1  0  0  0  0
 70 34  1  0  0  0  0
 71 73  1  0  0  0  0
 71 74  1  0  0  0  0
 71 75  1  0  0  0  0
 73 79  1  0  0  0  0
 73 86  1  0  0  0  0
 73 87  1  0  0  0  0
 74 80  1  0  0  0  0
 74 81  1  0  0  0  0
 74 82  1  0  0  0  0
 75 76  1  0  0  0  0
 75 77  1  0  0  0  0
 75 78  1  0  0  0  0
 79 83  1  0  0  0  0
 79 84  1  0  0  0  0
 79 85  1  0  0  0  0
 86 91  1  0  0  0  0
 86 92  1  0  0  0  0
 86 93  1  0  0  0  0
 87 88  1  0  0  0  0
 87 89  1  0  0  0  0
 87 90  1  0  0  0  0
M  END
>  <MOL Chiral Flag>
1

>  <Formula>
C28 H38 O6

$$$$
> 728_AKC_acsinfecdis.2c00562

 OpenBabel11292213373D

 51 55  0  0  0  0  0  0  0  0999 V2000
   -2.1774   -1.3417   -0.0316 C   0  0  0  0  0  0  0  0  0  0  0  0
   -0.8404   -1.4557    0.0042 C   0  0  0  0  0  0  0  0  0  0  0  0
   -0.0375   -0.3340   -0.0231 C   0  0  0  0  0  0  0  0  0  0  0  0
   -0.5882    0.9218   -0.2130 C   0  0  0  0  0  0  0  0  0  0  0  0
   -1.9289    1.1101   -0.2494 C   0  0  0  0  0  0  0  0  0  0  0  0
   -2.8844   -0.0366   -0.0568 C   0  0  1  0  0  0  0  0  0  0  0  0
   -3.9852    0.0069   -1.2194 C   0  0  2  0  0  0  0  0  0  0  0  0
   -2.4545    2.4645   -0.4745 C   0  0  0  0  0  0  0  0  0  0  0  0
   -3.5394    2.4995   -1.5786 C   0  0  0  0  0  0  0  0  0  0  0  0
   -4.6475    1.4444   -1.3030 C   0  0  1  0  0  0  0  0  0  0  0  0
   -6.2624   -0.9565   -2.1953 C   0  0  0  0  0  0  0  0  0  0  0  0
   -5.0559   -1.1580   -1.2265 C   0  0  1  0  0  0  0  0  0  0  0  0
   -5.8047    1.5089   -2.3489 C   0  0  1  0  0  0  0  0  0  0  0  0
   -6.8988    0.4548   -2.0328 C   0  0  1  0  0  0  0  0  0  0  0  0
   -6.6029    2.8188   -2.5157 C   0  0  0  0  0  0  0  0  0  0  0  0
   -7.9056    2.3656   -3.2219 C   0  0  0  0  0  0  0  0  0  0  0  0
   -8.0720    0.8252   -2.9733 C   0  0  2  0  0  0  0  0  0  0  0  0
    1.2008   -0.4615    0.1271 O   0  0  0  0  0  0  0  0  0  0  0  0
   -7.5979    0.5553   -0.7536 C   0  0  0  0  0  0  0  0  0  0  0  0
   -8.8690    0.4853   -0.8435 N   0  0  0  0  0  0  0  0  0  0  0  0
   -9.2961    0.3292   -2.1480 C   0  0  1  0  0  0  0  0  0  0  0  0
   -4.4721   -2.4041   -1.6107 O   0  0  0  0  0  0  0  0  0  0  0  0
   -3.4423   -0.1263   -2.1633 H   0  0  0  0  0  0  0  0  0  0  0  0
   -5.0903    1.7033   -0.3414 H   0  0  0  0  0  0  0  0  0  0  0  0
   -5.3677    1.2897   -3.3327 H   0  0  0  0  0  0  0  0  0  0  0  0
  -10.6773    0.9700   -2.4105 C   0  0  0  0  0  0  0  0  0  0  0  0
   -3.4884    0.0821    1.3908 C   0  0  0  0  0  0  0  0  0  0  0  0
   -2.6992   -2.1841    0.0154 H   0  0  0  0  0  0  0  0  0  0  0  0
   -0.4281   -2.3574    0.0642 H   0  0  0  0  0  0  0  0  0  0  0  0
    0.0338    1.6911   -0.3221 H   0  0  0  0  0  0  0  0  0  0  0  0
   -1.6761    3.1785   -0.7618 H   0  0  0  0  0  0  0  0  0  0  0  0
   -2.8805    2.8339    0.4604 H   0  0  0  0  0  0  0  0  0  0  0  0
   -3.0784    2.3104   -2.5532 H   0  0  0  0  0  0  0  0  0  0  0  0
   -3.9729    3.5028   -1.6037 H   0  0  0  0  0  0  0  0  0  0  0  0
   -7.0084   -1.7333   -2.0034 H   0  0  0  0  0  0  0  0  0  0  0  0
   -5.9262   -1.0871   -3.2289 H   0  0  0  0  0  0  0  0  0  0  0  0
   -5.4524   -1.2821   -0.2200 H   0  0  0  0  0  0  0  0  0  0  0  0
   -6.0581    3.5525   -3.1155 H   0  0  0  0  0  0  0  0  0  0  0  0
   -6.8280    3.2620   -1.5417 H   0  0  0  0  0  0  0  0  0  0  0  0
   -7.8234    2.5562   -4.2961 H   0  0  0  0  0  0  0  0  0  0  0  0
   -8.7394    2.9589   -2.8473 H   0  0  0  0  0  0  0  0  0  0  0  0
   -8.0082    0.2887   -3.9261 H   0  0  0  0  0  0  0  0  0  0  0  0
   -7.1440    0.6564    0.1222 H   0  0  0  0  0  0  0  0  0  0  0  0
   -9.4190   -0.7478   -2.3214 H   0  0  0  0  0  0  0  0  0  0  0  0
   -5.1804   -3.0716   -1.4894 H   0  0  0  0  0  0  0  0  0  0  0  0
  -11.4315    0.4493   -1.8151 H   0  0  0  0  0  0  0  0  0  0  0  0
  -10.9417    0.8657   -3.4642 H   0  0  0  0  0  0  0  0  0  0  0  0
  -10.6949    2.0256   -2.1360 H   0  0  0  0  0  0  0  0  0  0  0  0
   -2.6948    0.0802    2.1440 H   0  0  0  0  0  0  0  0  0  0  0  0
   -4.1519   -0.7523    1.6211 H   0  0  0  0  0  0  0  0  0  0  0  0
   -4.0589    0.9964    1.5371 H   0  0  0  0  0  0  0  0  0  0  0  0
  1  2  2  0  0  0  0
  1  6  1  0  0  0  0
  1 28  1  0  0  0  0
  2  3  1  0  0  0  0
  2 29  1  0  0  0  0
  3  4  1  0  0  0  0
  3 18  2  0  0  0  0
  4  5  2  0  0  0  0
  4 30  1  0  0  0  0
  5  8  1  0  0  0  0
  6  5  1  0  0  0  0
  6 27  1  1  0  0  0
  7  6  1  0  0  0  0
  7 10  1  0  0  0  0
  7 23  1  6  0  0  0
  8  9  1  0  0  0  0
  8 31  1  0  0  0  0
  8 32  1  0  0  0  0
  9 10  1  0  0  0  0
  9 33  1  0  0  0  0
  9 34  1  0  0  0  0
 10 13  1  0  0  0  0
 10 24  1  1  0  0  0
 11 12  1  0  0  0  0
 11 35  1  0  0  0  0
 11 36  1  0  0  0  0
 12  7  1  0  0  0  0
 12 22  1  0  0  0  0
 12 37  1  1  0  0  0
 13 15  1  0  0  0  0
 13 25  1  6  0  0  0
 14 11  1  0  0  0  0
 14 13  1  0  0  0  0
 14 17  1  0  0  0  0
 14 19  1  1  0  0  0
 15 16  1  0  0  0  0
 15 38  1  0  0  0  0
 15 39  1  0  0  0  0
 16 17  1  0  0  0  0
 16 40  1  0  0  0  0
 16 41  1  0  0  0  0
 17 42  1  6  0  0  0
 19 20  2  0  0  0  0
 19 43  1  0  0  0  0
 20 21  1  0  0  0  0
 21 17  1  0  0  0  0
 21 26  1  0  0  0  0
 21 44  1  6  0  0  0
 22 45  1  0  0  0  0
 26 46  1  0  0  0  0
 26 47  1  0  0  0  0
 26 48  1  0  0  0  0
 27 49  1  0  0  0  0
 27 50  1  0  0  0  0
 27 51  1  0  0  0  0
M  END
$$$$
> 729_AKC_antibiotics11121712
709.sdf
 OpenBabel12062207593D

 42 43  0  0  1  0  0  0  0  0999 V2000
   -3.1380    0.2275   -0.4295 C   0  0  0  0  0  0  0  0  0  0  0  0
   -2.7091   -0.9979    0.4017 C   0  0  0  0  0  0  0  0  0  0  0  0
   -1.1778   -1.1912    0.3803 C   0  0  0  0  0  0  0  0  0  0  0  0
   -0.3633    0.0860    0.1892 C   0  0  0  0  0  0  0  0  0  0  0  0
   -0.9110    1.3097    0.0132 C   0  0  0  0  0  0  0  0  0  0  0  0
   -2.4309    1.5278    0.0484 C   0  0  1  0  0  0  0  0  0  0  0  0
   -2.8203    2.6682   -0.9305 C   0  0  0  0  0  0  0  0  0  0  0  0
   -0.0628    2.5512   -0.2964 C   0  0  0  0  0  0  0  0  0  0  0  0
   -0.7320    3.9195    0.0235 C   0  0  2  0  0  0  0  0  0  0  0  0
   -2.1451    4.0271   -0.6278 C   0  0  0  0  0  0  0  0  0  0  0  0
    1.1271   -0.2221    0.1026 C   0  0  0  0  0  0  0  0  0  0  0  0
   -2.9106    1.8602    1.4944 C   0  0  0  0  0  0  0  0  0  0  0  0
    0.1757    5.1635   -0.2919 C   0  0  0  0  0  0  0  0  0  0  0  0
   -0.5329    6.4871    0.0999 C   0  0  0  0  0  0  0  0  0  0  0  0
    1.5347    5.0952    0.4531 C   0  0  0  0  0  0  0  0  0  0  0  0
    0.4547    5.2120   -1.6912 O   0  0  0  0  0  0  0  0  0  0  0  0
   -2.8942    0.0387   -1.4837 H   0  0  0  0  0  0  0  0  0  0  0  0
   -4.2285    0.3433   -0.3760 H   0  0  0  0  0  0  0  0  0  0  0  0
   -3.0525   -0.8899    1.4373 H   0  0  0  0  0  0  0  0  0  0  0  0
   -3.1987   -1.9002    0.0136 H   0  0  0  0  0  0  0  0  0  0  0  0
   -0.8672   -1.7041    1.2997 H   0  0  0  0  0  0  0  0  0  0  0  0
   -0.9374   -1.8819   -0.4385 H   0  0  0  0  0  0  0  0  0  0  0  0
   -3.9099    2.8018   -0.9489 H   0  0  0  0  0  0  0  0  0  0  0  0
   -2.5327    2.3677   -1.9472 H   0  0  0  0  0  0  0  0  0  0  0  0
    0.2030    2.5358   -1.3613 H   0  0  0  0  0  0  0  0  0  0  0  0
    0.8703    2.4929    0.2715 H   0  0  0  0  0  0  0  0  0  0  0  0
   -0.8760    3.9302    1.1099 H   0  0  0  0  0  0  0  0  0  0  0  0
   -2.7954    4.6112    0.0361 H   0  0  0  0  0  0  0  0  0  0  0  0
   -2.0941    4.5848   -1.5714 H   0  0  0  0  0  0  0  0  0  0  0  0
    1.7279    0.5957   -0.3078 H   0  0  0  0  0  0  0  0  0  0  0  0
    1.3074   -1.0904   -0.5436 H   0  0  0  0  0  0  0  0  0  0  0  0
    1.5256   -0.4739    1.0933 H   0  0  0  0  0  0  0  0  0  0  0  0
   -2.5110    1.1460    2.2242 H   0  0  0  0  0  0  0  0  0  0  0  0
   -4.0059    1.8302    1.5574 H   0  0  0  0  0  0  0  0  0  0  0  0
   -2.6020    2.8540    1.8291 H   0  0  0  0  0  0  0  0  0  0  0  0
    0.1270    7.3492   -0.0611 H   0  0  0  0  0  0  0  0  0  0  0  0
   -0.8194    6.4784    1.1592 H   0  0  0  0  0  0  0  0  0  0  0  0
   -1.4385    6.6567   -0.4953 H   0  0  0  0  0  0  0  0  0  0  0  0
    2.1696    4.2888    0.0663 H   0  0  0  0  0  0  0  0  0  0  0  0
    1.3862    4.9307    1.5279 H   0  0  0  0  0  0  0  0  0  0  0  0
    2.0961    6.0306    0.3327 H   0  0  0  0  0  0  0  0  0  0  0  0
    1.0130    5.9925   -1.8523 H   0  0  0  0  0  0  0  0  0  0  0  0
  1  2  1  0  0  0  0
  1  6  1  0  0  0  0
  1 17  1  0  0  0  0
  1 18  1  0  0  0  0
  2  3  1  0  0  0  0
  2 19  1  0  0  0  0
  2 20  1  0  0  0  0
  3  4  1  0  0  0  0
  3 21  1  0  0  0  0
  3 22  1  0  0  0  0
  4  5  2  0  0  0  0
  4 11  1  0  0  0  0
  5  8  1  0  0  0  0
  6  5  1  0  0  0  0
  6 12  1  1  0  0  0
  7  6  1  0  0  0  0
  7 10  1  0  0  0  0
  7 23  1  0  0  0  0
  7 24  1  0  0  0  0
  8  9  1  0  0  0  0
  8 25  1  0  0  0  0
  8 26  1  0  0  0  0
  9 10  1  0  0  0  0
  9 13  1  0  0  0  0
  9 27  1  1  0  0  0
 10 28  1  0  0  0  0
 10 29  1  0  0  0  0
 11 30  1  0  0  0  0
 11 31  1  0  0  0  0
 11 32  1  0  0  0  0
 12 33  1  0  0  0  0
 12 34  1  0  0  0  0
 12 35  1  0  0  0  0
 13 14  1  0  0  0  0
 13 15  1  0  0  0  0
 13 16  1  0  0  0  0
 14 36  1  0  0  0  0
 14 37  1  0  0  0  0
 14 38  1  0  0  0  0
 15 39  1  0  0  0  0
 15 40  1  0  0  0  0
 15 41  1  0  0  0  0
 16 42  1  0  0  0  0
M  END
$$$$
> 730_AKC_tropicalmed7120403

  Mrv0541 12062208033D              89.10000

 55 57  0  0  0  0            999 V2000
   -0.5221    7.4842    2.9348 N   0  0  0  0  0  0  0  0  0  0  0  0
   -0.4393    6.2143    2.6493 O   0  0  0  0  0  0  0  0  0  0  0  0
    0.5905    5.6900    3.3542 C   0  0  0  0  0  0  0  0  0  0  0  0
    1.1277    6.6558    4.1107 N   0  0  0  0  0  0  0  0  0  0  0  0
    0.4386    7.7691    3.8292 C   0  0  0  0  0  0  0  0  0  0  0  0
    1.0819    4.4014    3.3006 C   0  0  0  0  0  0  0  0  0  0  0  0
    0.5097    3.3888    2.6226 C   0  0  0  0  0  0  0  0  0  0  0  0
    1.0057    2.0769    2.4959 C   0  0  0  0  0  0  0  0  0  0  0  0
    0.7213    9.0355    4.3739 C   0  0  0  0  0  0  0  0  0  0  0  0
    1.1928   11.4215    4.0699 C   0  0  0  0  0  0  0  0  0  0  0  0
    0.8385   10.1663    3.5354 C   0  0  0  0  0  0  0  0  0  0  0  0
    0.9361    9.1845    5.7621 C   0  0  0  0  0  0  0  0  0  0  0  0
    1.2480   10.4442    6.3113 C   0  0  0  0  0  0  0  0  0  0  0  0
    1.3379   11.5720    5.4666 C   0  0  0  0  0  0  0  0  0  0  0  0
    0.2646    1.1231    1.7501 C   0  0  0  0  0  0  0  0  0  0  0  0
    0.7003   -0.2103    1.5996 C   0  0  0  0  0  0  0  0  0  0  0  0
    1.8965   -0.6287    2.2179 C   0  0  0  0  0  0  0  0  0  0  0  0
    2.6883    0.3114    2.9085 C   0  0  0  0  0  0  0  0  0  0  0  0
    2.2331    1.6364    3.0583 C   0  0  0  0  0  0  0  0  0  0  0  0
    1.3834   12.4907    3.2350 O   0  0  0  0  0  0  0  0  0  0  0  0
    1.5646   12.8109    6.0011 O   0  0  0  0  0  0  0  0  0  0  0  0
    1.4247   10.5744    7.6631 O   0  0  0  0  0  0  0  0  0  0  0  0
    3.8899   -0.0680    3.4470 O   0  0  0  0  0  0  0  0  0  0  0  0
    2.2980   -1.9362    2.1283 O   0  0  0  0  0  0  0  0  0  0  0  0
   -0.0443   -1.0946    0.8629 O   0  0  0  0  0  0  0  0  0  0  0  0
    0.3291   -1.0879   -0.5280 C   0  0  0  0  0  0  0  0  0  0  0  0
    1.8375   -2.7227    3.2441 C   0  0  0  0  0  0  0  0  0  0  0  0
    5.0003    0.2425    2.5836 C   0  0  0  0  0  0  0  0  0  0  0  0
    2.7890   10.3752    8.0726 C   0  0  0  0  0  0  0  0  0  0  0  0
    0.3319   13.4995    6.2901 C   0  0  0  0  0  0  0  0  0  0  0  0
    2.7502   12.5984    2.7904 C   0  0  0  0  0  0  0  0  0  0  0  0
    1.9254    4.2462    3.7929 H   0  0  0  0  0  0  0  0  0  0  0  0
   -0.3494    3.5939    2.1665 H   0  0  0  0  0  0  0  0  0  0  0  0
    0.6939   10.0816    2.5256 H   0  0  0  0  0  0  0  0  0  0  0  0
    0.8571    8.3776    6.3868 H   0  0  0  0  0  0  0  0  0  0  0  0
   -0.6110    1.3919    1.2956 H   0  0  0  0  0  0  0  0  0  0  0  0
    2.8322    2.2702    3.5842 H   0  0  0  0  0  0  0  0  0  0  0  0
   -0.2909   -1.8113   -1.0558 H   0  0  0  0  0  0  0  0  0  0  0  0
    0.1597   -0.1063   -0.9782 H   0  0  0  0  0  0  0  0  0  0  0  0
    1.3752   -1.3760   -0.6645 H   0  0  0  0  0  0  0  0  0  0  0  0
    2.2061   -3.7410    3.1247 H   0  0  0  0  0  0  0  0  0  0  0  0
    2.2163   -2.3372    4.1944 H   0  0  0  0  0  0  0  0  0  0  0  0
    0.7462   -2.7606    3.2796 H   0  0  0  0  0  0  0  0  0  0  0  0
    5.9202   -0.0489    3.0886 H   0  0  0  0  0  0  0  0  0  0  0  0
    4.9380   -0.3135    1.6454 H   0  0  0  0  0  0  0  0  0  0  0  0
    5.0616    1.3128    2.3670 H   0  0  0  0  0  0  0  0  0  0  0  0
    2.8364   10.4961    9.1540 H   0  0  0  0  0  0  0  0  0  0  0  0
    3.1349    9.3678    7.8290 H   0  0  0  0  0  0  0  0  0  0  0  0
    3.4589   11.1110    7.6202 H   0  0  0  0  0  0  0  0  0  0  0  0
    0.5760   14.4782    6.6999 H   0  0  0  0  0  0  0  0  0  0  0  0
   -0.2672   13.6517    5.3882 H   0  0  0  0  0  0  0  0  0  0  0  0
   -0.2647   12.9613    7.0313 H   0  0  0  0  0  0  0  0  0  0  0  0
    2.8221   13.4444    2.1083 H   0  0  0  0  0  0  0  0  0  0  0  0
    3.4338   12.7792    3.6245 H   0  0  0  0  0  0  0  0  0  0  0  0
    3.0678   11.7031    2.2494 H   0  0  0  0  0  0  0  0  0  0  0  0
  1  2  1  0  0  0  0
  1  5  2  0  0  0  0
  2  3  1  0  0  0  0
  3  4  2  0  0  0  0
  4  5  1  0  0  0  0
  3  6  1  0  0  0  0
  6  7  2  0  0  0  0
  7  8  1  0  0  0  0
  5  9  1  0  0  0  0
 11  9  2  0  0  0  0
  9 12  1  0  0  0  0
 10 11  1  0  0  0  0
 10 14  2  0  0  0  0
 12 13  2  0  0  0  0
 13 14  1  0  0  0  0
 19  8  1  0  0  0  0
 15  8  2  0  0  0  0
 15 16  1  0  0  0  0
 16 17  2  0  0  0  0
 17 18  1  0  0  0  0
 18 19  2  0  0  0  0
 10 20  1  0  0  0  0
 14 21  1  0  0  0  0
 13 22  1  0  0  0  0
 18 23  1  0  0  0  0
 17 24  1  0  0  0  0
 16 25  1  0  0  0  0
 25 26  1  0  0  0  0
 24 27  1  0  0  0  0
 23 28  1  0  0  0  0
 22 29  1  0  0  0  0
 21 30  1  0  0  0  0
 20 31  1  0  0  0  0
  6 32  1  0  0  0  0
  7 33  1  0  0  0  0
 11 34  1  0  0  0  0
 12 35  1  0  0  0  0
 15 36  1  0  0  0  0
 19 37  1  0  0  0  0
 26 38  1  0  0  0  0
 26 39  1  0  0  0  0
 26 40  1  0  0  0  0
 27 41  1  0  0  0  0
 27 42  1  0  0  0  0
 27 43  1  0  0  0  0
 28 44  1  0  0  0  0
 28 45  1  0  0  0  0
 28 46  1  0  0  0  0
 29 47  1  0  0  0  0
 29 48  1  0  0  0  0
 29 49  1  0  0  0  0
 30 50  1  0  0  0  0
 30 51  1  0  0  0  0
 30 52  1  0  0  0  0
 31 53  1  0  0  0  0
 31 54  1  0  0  0  0
 31 55  1  0  0  0  0
M  END
$$$$
> 731_AKC_14756366.2022.2150763
8-Benzyl-1,7,9-triphenyl-1,3,8-triazaspiro[4.5]decane-2,4-dione
 OpenBabel12062208213D

 67 72  0  0  1  0  0  0  0  0999 V2000
   -0.0826   -2.8779    4.8554 N   0  0  0  0  0  0  0  0  0  0  0  0
    0.6647   -3.0888    6.0009 C   0  0  0  0  0  0  0  0  0  0  0  0
    1.9699   -2.9484    5.6271 N   0  0  0  0  0  0  0  0  0  0  0  0
    2.1573   -2.6591    4.3080 C   0  0  0  0  0  0  0  0  0  0  0  0
    0.7651   -2.5757    3.6702 C   0  0  1  0  0  0  0  0  0  0  0  0
    0.6437   -3.6426    2.5483 C   0  0  0  0  0  0  0  0  0  0  0  0
   -0.6126   -3.4408    1.6615 C   0  0  1  0  0  0  0  0  0  0  0  0
   -0.6888   -2.0399    1.0498 N   0  3  2  0  0  0  0  0  0  0  0  0
   -0.6941   -1.0256    2.1936 C   0  0  1  0  0  0  0  0  0  0  0  0
    0.5461   -1.1403    3.1185 C   0  0  0  0  0  0  0  0  0  0  0  0
    0.2528   -3.3641    7.1097 O   0  0  0  0  0  0  0  0  0  0  0  0
    3.2274   -2.4940    3.7504 O   0  0  0  0  0  0  0  0  0  0  0  0
   -1.4940   -3.0005    4.8108 C   0  0  0  0  0  0  0  0  0  0  0  0
   -2.0832   -4.2588    4.5911 C   0  0  0  0  0  0  0  0  0  0  0  0
   -3.4811   -4.3872    4.5639 C   0  0  0  0  0  0  0  0  0  0  0  0
   -4.2934   -3.2607    4.7739 C   0  0  0  0  0  0  0  0  0  0  0  0
   -3.7074   -2.0082    5.0224 C   0  0  0  0  0  0  0  0  0  0  0  0
   -2.3092   -1.8800    5.0494 C   0  0  0  0  0  0  0  0  0  0  0  0
   -0.7313   -4.5787    0.6555 C   0  0  0  0  0  0  0  0  0  0  0  0
   -1.8319   -5.4512    0.7452 C   0  0  0  0  0  0  0  0  0  0  0  0
   -1.9911   -6.4887   -0.1871 C   0  0  0  0  0  0  0  0  0  0  0  0
   -1.0486   -6.6614   -1.2130 C   0  0  0  0  0  0  0  0  0  0  0  0
    0.0560   -5.7994   -1.3032 C   0  0  0  0  0  0  0  0  0  0  0  0
    0.2175   -4.7610   -0.3709 C   0  0  0  0  0  0  0  0  0  0  0  0
   -0.8690    0.4149    1.7291 C   0  0  0  0  0  0  0  0  0  0  0  0
    0.0259    1.0039    0.8132 C   0  0  0  0  0  0  0  0  0  0  0  0
   -0.1900    2.3168    0.3658 C   0  0  0  0  0  0  0  0  0  0  0  0
   -1.2980    3.0457    0.8275 C   0  0  0  0  0  0  0  0  0  0  0  0
   -2.1889    2.4642    1.7420 C   0  0  0  0  0  0  0  0  0  0  0  0
   -1.9754    1.1517    2.1914 C   0  0  0  0  0  0  0  0  0  0  0  0
   -1.9491   -1.8739    0.1952 C   0  0  0  0  0  0  0  0  0  0  0  0
   -1.7693   -2.2962   -1.2523 C   0  0  0  0  0  0  0  0  0  0  0  0
   -2.6279   -3.2595   -1.8133 C   0  0  0  0  0  0  0  0  0  0  0  0
   -2.4520   -3.6726   -3.1440 C   0  0  0  0  0  0  0  0  0  0  0  0
   -1.4227   -3.1199   -3.9195 C   0  0  0  0  0  0  0  0  0  0  0  0
   -0.5723   -2.1471   -3.3682 C   0  0  0  0  0  0  0  0  0  0  0  0
   -0.7452   -1.7305   -2.0386 C   0  0  0  0  0  0  0  0  0  0  0  0
    2.7359   -3.0600    6.2790 H   0  0  0  0  0  0  0  0  0  0  0  0
    0.6328   -4.6482    2.9924 H   0  0  0  0  0  0  0  0  0  0  0  0
    1.5369   -3.5961    1.9112 H   0  0  0  0  0  0  0  0  0  0  0  0
   -1.4820   -3.5006    2.3186 H   0  0  0  0  0  0  0  0  0  0  0  0
   -1.5692   -1.2844    2.7927 H   0  0  0  0  0  0  0  0  0  0  0  0
    0.4563   -0.4312    3.9539 H   0  0  0  0  0  0  0  0  0  0  0  0
    1.4364   -0.8368    2.5508 H   0  0  0  0  0  0  0  0  0  0  0  0
   -1.4606   -5.1383    4.4508 H   0  0  0  0  0  0  0  0  0  0  0  0
   -3.9357   -5.3610    4.3995 H   0  0  0  0  0  0  0  0  0  0  0  0
   -5.3756   -3.3632    4.7695 H   0  0  0  0  0  0  0  0  0  0  0  0
   -4.3376   -1.1430    5.2132 H   0  0  0  0  0  0  0  0  0  0  0  0
   -1.8616   -0.9136    5.2665 H   0  0  0  0  0  0  0  0  0  0  0  0
   -2.5700   -5.3218    1.5339 H   0  0  0  0  0  0  0  0  0  0  0  0
   -2.8447   -7.1576   -0.1172 H   0  0  0  0  0  0  0  0  0  0  0  0
   -1.1730   -7.4636   -1.9356 H   0  0  0  0  0  0  0  0  0  0  0  0
    0.7829   -5.9376   -2.0987 H   0  0  0  0  0  0  0  0  0  0  0  0
    1.0742   -4.0981   -0.4577 H   0  0  0  0  0  0  0  0  0  0  0  0
    0.8880    0.4519    0.4455 H   0  0  0  0  0  0  0  0  0  0  0  0
    0.5003    2.7714   -0.3405 H   0  0  0  0  0  0  0  0  0  0  0  0
   -1.4665    4.0623    0.4790 H   0  0  0  0  0  0  0  0  0  0  0  0
   -3.0446    3.0299    2.0990 H   0  0  0  0  0  0  0  0  0  0  0  0
   -2.6745    0.7099    2.8956 H   0  0  0  0  0  0  0  0  0  0  0  0
   -2.7544   -2.4401    0.6684 H   0  0  0  0  0  0  0  0  0  0  0  0
   -2.2228   -0.8165    0.2077 H   0  0  0  0  0  0  0  0  0  0  0  0
   -3.4272   -3.6953   -1.2204 H   0  0  0  0  0  0  0  0  0  0  0  0
   -3.1109   -4.4200   -3.5752 H   0  0  0  0  0  0  0  0  0  0  0  0
   -1.2905   -3.4422   -4.9501 H   0  0  0  0  0  0  0  0  0  0  0  0
    0.2199   -1.7129   -3.9741 H   0  0  0  0  0  0  0  0  0  0  0  0
   -0.0853   -0.9677   -1.6263 H   0  0  0  0  0  0  0  0  0  0  0  0
    0.1394   -1.8759    0.4554 H   0  0  0  0  0  0  0  0  0  0  0  0
  1  2  1  0  0  0  0
  1  5  1  0  0  0  0
  1 13  1  0  0  0  0
  2  3  1  0  0  0  0
  2 11  2  0  0  0  0
  3  4  1  0  0  0  0
  3 38  1  0  0  0  0
  4 12  2  0  0  0  0
  5  4  1  1  0  0  0
  5  6  1  0  0  0  0
  5 10  1  0  0  0  0
  6  7  1  0  0  0  0
  6 39  1  0  0  0  0
  6 40  1  0  0  0  0
  7  8  1  0  0  0  0
  7 19  1  0  0  0  0
  7 41  1  1  0  0  0
  8  9  1  0  0  0  0
  8 31  1  0  0  0  0
  8 67  1  6  0  0  0
  9 10  1  0  0  0  0
  9 25  1  0  0  0  0
  9 42  1  1  0  0  0
 10 43  1  0  0  0  0
 10 44  1  0  0  0  0
 13 14  2  0  0  0  0
 13 18  1  0  0  0  0
 14 15  1  0  0  0  0
 14 45  1  0  0  0  0
 15 16  2  0  0  0  0
 15 46  1  0  0  0  0
 16 17  1  0  0  0  0
 16 47  1  0  0  0  0
 17 18  2  0  0  0  0
 17 48  1  0  0  0  0
 18 49  1  0  0  0  0
 19 20  2  0  0  0  0
 19 24  1  0  0  0  0
 20 21  1  0  0  0  0
 20 50  1  0  0  0  0
 21 22  2  0  0  0  0
 21 51  1  0  0  0  0
 22 23  1  0  0  0  0
 22 52  1  0  0  0  0
 23 24  2  0  0  0  0
 23 53  1  0  0  0  0
 24 54  1  0  0  0  0
 25 26  2  0  0  0  0
 25 30  1  0  0  0  0
 26 27  1  0  0  0  0
 26 55  1  0  0  0  0
 27 28  2  0  0  0  0
 27 56  1  0  0  0  0
 28 29  1  0  0  0  0
 28 57  1  0  0  0  0
 29 30  2  0  0  0  0
 29 58  1  0  0  0  0
 30 59  1  0  0  0  0
 31 32  1  0  0  0  0
 31 60  1  0  0  0  0
 31 61  1  0  0  0  0
 32 33  2  0  0  0  0
 32 37  1  0  0  0  0
 33 34  1  0  0  0  0
 33 62  1  0  0  0  0
 34 35  2  0  0  0  0
 34 63  1  0  0  0  0
 35 36  1  0  0  0  0
 35 64  1  0  0  0  0
 36 37  2  0  0  0  0
 36 65  1  0  0  0  0
 37 66  1  0  0  0  0
M  CHG  1   8   1
M  END
$$$$
> 732_AKC_14756366.2022.2150763
9-Benzyl-1,8,10-triphenyl-1,4,9-triazaspiro[5.5]undecane-2,5-dione
 OpenBabel12062208213D

 70 75  0  0  1  0  0  0  0  0999 V2000
   -3.9504   -2.4703    4.0711 N   0  0  0  0  0  0  0  0  0  0  0  0
   -4.7890   -3.2242    4.8978 C   0  0  0  0  0  0  0  0  0  0  0  0
   -6.2687   -3.3643    4.5502 C   0  0  0  0  0  0  0  0  0  0  0  0
   -6.7091   -2.4806    3.4759 N   0  0  0  0  0  0  0  0  0  0  0  0
   -5.8897   -1.9443    2.5129 C   0  0  0  0  0  0  0  0  0  0  0  0
   -4.3487   -2.0541    2.6746 C   0  0  1  0  0  0  0  0  0  0  0  0
   -3.7425   -0.6708    2.2535 C   0  0  0  0  0  0  0  0  0  0  0  0
   -2.2294   -0.6919    1.9023 C   0  0  1  0  0  0  0  0  0  0  0  0
   -1.8489   -1.7549    0.8754 N   0  3  2  0  0  0  0  0  0  0  0  0
   -2.3815   -3.1182    1.3208 C   0  0  1  0  0  0  0  0  0  0  0  0
   -3.8982   -3.1297    1.6422 C   0  0  0  0  0  0  0  0  0  0  0  0
   -4.3950   -3.6693    5.9621 O   0  0  0  0  0  0  0  0  0  0  0  0
   -6.4021   -1.4053    1.5474 O   0  0  0  0  0  0  0  0  0  0  0  0
   -2.6447   -2.1792    4.5659 C   0  0  0  0  0  0  0  0  0  0  0  0
   -1.6425   -3.1701    4.5473 C   0  0  0  0  0  0  0  0  0  0  0  0
   -0.3661   -2.8974    5.0644 C   0  0  0  0  0  0  0  0  0  0  0  0
   -0.0952   -1.6449    5.6383 C   0  0  0  0  0  0  0  0  0  0  0  0
   -1.1066   -0.6736    5.7130 C   0  0  0  0  0  0  0  0  0  0  0  0
   -2.3823   -0.9422    5.1892 C   0  0  0  0  0  0  0  0  0  0  0  0
   -1.7740    0.7058    1.4977 C   0  0  0  0  0  0  0  0  0  0  0  0
   -2.1822    1.2854    0.2791 C   0  0  0  0  0  0  0  0  0  0  0  0
   -1.7227    2.5622   -0.0827 C   0  0  0  0  0  0  0  0  0  0  0  0
   -0.8564    3.2657    0.7686 C   0  0  0  0  0  0  0  0  0  0  0  0
   -0.4492    2.6937    1.9838 C   0  0  0  0  0  0  0  0  0  0  0  0
   -0.9067    1.4174    2.3471 C   0  0  0  0  0  0  0  0  0  0  0  0
   -2.0524   -4.2458    0.3505 C   0  0  0  0  0  0  0  0  0  0  0  0
   -1.2906   -5.3380    0.8067 C   0  0  0  0  0  0  0  0  0  0  0  0
   -0.9307   -6.3690   -0.0756 C   0  0  0  0  0  0  0  0  0  0  0  0
   -1.3341   -6.3156   -1.4196 C   0  0  0  0  0  0  0  0  0  0  0  0
   -2.1038   -5.2344   -1.8787 C   0  0  0  0  0  0  0  0  0  0  0  0
   -2.4663   -4.2021   -0.9973 C   0  0  0  0  0  0  0  0  0  0  0  0
   -0.3272   -1.7946    0.7380 C   0  0  0  0  0  0  0  0  0  0  0  0
    0.1371   -2.1855   -0.6528 C   0  0  0  0  0  0  0  0  0  0  0  0
   -0.2541   -1.4231   -1.7705 C   0  0  0  0  0  0  0  0  0  0  0  0
    0.1375   -1.8119   -3.0618 C   0  0  0  0  0  0  0  0  0  0  0  0
    0.9261   -2.9605   -3.2414 C   0  0  0  0  0  0  0  0  0  0  0  0
    1.3329   -3.7132   -2.1273 C   0  0  0  0  0  0  0  0  0  0  0  0
    0.9433   -3.3239   -0.8354 C   0  0  0  0  0  0  0  0  0  0  0  0
   -6.4509   -4.4057    4.2594 H   0  0  0  0  0  0  0  0  0  0  0  0
   -6.8531   -3.1306    5.4496 H   0  0  0  0  0  0  0  0  0  0  0  0
   -7.7059   -2.3826    3.3219 H   0  0  0  0  0  0  0  0  0  0  0  0
   -3.9390    0.0723    3.0371 H   0  0  0  0  0  0  0  0  0  0  0  0
   -4.2644   -0.2989    1.3623 H   0  0  0  0  0  0  0  0  0  0  0  0
   -1.6800   -0.9647    2.8031 H   0  0  0  0  0  0  0  0  0  0  0  0
   -1.8573   -3.3298    2.2493 H   0  0  0  0  0  0  0  0  0  0  0  0
   -4.1891   -4.1242    2.0068 H   0  0  0  0  0  0  0  0  0  0  0  0
   -4.4474   -2.9775    0.7023 H   0  0  0  0  0  0  0  0  0  0  0  0
   -1.8616   -4.1583    4.1466 H   0  0  0  0  0  0  0  0  0  0  0  0
    0.4053   -3.6644    5.0474 H   0  0  0  0  0  0  0  0  0  0  0  0
    0.8861   -1.4428    6.0594 H   0  0  0  0  0  0  0  0  0  0  0  0
   -0.9075    0.2814    6.1941 H   0  0  0  0  0  0  0  0  0  0  0  0
   -3.1708   -0.1972    5.2763 H   0  0  0  0  0  0  0  0  0  0  0  0
   -2.8548    0.7551   -0.3901 H   0  0  0  0  0  0  0  0  0  0  0  0
   -2.0396    3.0090   -1.0209 H   0  0  0  0  0  0  0  0  0  0  0  0
   -0.5029    4.2546    0.4897 H   0  0  0  0  0  0  0  0  0  0  0  0
    0.2193    3.2395    2.6435 H   0  0  0  0  0  0  0  0  0  0  0  0
   -0.5823    0.9827    3.2893 H   0  0  0  0  0  0  0  0  0  0  0  0
   -0.9666   -5.3854    1.8440 H   0  0  0  0  0  0  0  0  0  0  0  0
   -0.3375   -7.2078    0.2794 H   0  0  0  0  0  0  0  0  0  0  0  0
   -1.0519   -7.1133   -2.1019 H   0  0  0  0  0  0  0  0  0  0  0  0
   -2.4164   -5.1976   -2.9192 H   0  0  0  0  0  0  0  0  0  0  0  0
   -3.0567   -3.3684   -1.3695 H   0  0  0  0  0  0  0  0  0  0  0  0
    0.0509   -0.7961    0.9631 H   0  0  0  0  0  0  0  0  0  0  0  0
    0.0611   -2.4830    1.4912 H   0  0  0  0  0  0  0  0  0  0  0  0
   -0.8602   -0.5298   -1.6464 H   0  0  0  0  0  0  0  0  0  0  0  0
   -0.1676   -1.2253   -3.9257 H   0  0  0  0  0  0  0  0  0  0  0  0
    1.2268   -3.2630   -4.2419 H   0  0  0  0  0  0  0  0  0  0  0  0
    1.9475   -4.5993   -2.2679 H   0  0  0  0  0  0  0  0  0  0  0  0
    1.2586   -3.9167    0.0197 H   0  0  0  0  0  0  0  0  0  0  0  0
   -2.2635   -1.5029   -0.0371 H   0  0  0  0  0  0  0  0  0  0  0  0
  1  2  1  0  0  0  0
  1  6  1  0  0  0  0
  1 14  1  0  0  0  0
  2  3  1  0  0  0  0
  2 12  2  0  0  0  0
  3  4  1  0  0  0  0
  3 39  1  0  0  0  0
  3 40  1  0  0  0  0
  4  5  1  0  0  0  0
  4 41  1  0  0  0  0
  5 13  2  0  0  0  0
  6  5  1  6  0  0  0
  6  7  1  0  0  0  0
  6 11  1  0  0  0  0
  7  8  1  0  0  0  0
  7 42  1  0  0  0  0
  7 43  1  0  0  0  0
  8  9  1  0  0  0  0
  8 20  1  0  0  0  0
  8 44  1  1  0  0  0
  9 10  1  0  0  0  0
  9 32  1  0  0  0  0
  9 70  1  6  0  0  0
 10 11  1  0  0  0  0
 10 26  1  0  0  0  0
 10 45  1  1  0  0  0
 11 46  1  0  0  0  0
 11 47  1  0  0  0  0
 14 15  2  0  0  0  0
 14 19  1  0  0  0  0
 15 16  1  0  0  0  0
 15 48  1  0  0  0  0
 16 17  2  0  0  0  0
 16 49  1  0  0  0  0
 17 18  1  0  0  0  0
 17 50  1  0  0  0  0
 18 19  2  0  0  0  0
 18 51  1  0  0  0  0
 19 52  1  0  0  0  0
 20 21  2  0  0  0  0
 20 25  1  0  0  0  0
 21 22  1  0  0  0  0
 21 53  1  0  0  0  0
 22 23  2  0  0  0  0
 22 54  1  0  0  0  0
 23 24  1  0  0  0  0
 23 55  1  0  0  0  0
 24 25  2  0  0  0  0
 24 56  1  0  0  0  0
 25 57  1  0  0  0  0
 26 27  2  0  0  0  0
 26 31  1  0  0  0  0
 27 28  1  0  0  0  0
 27 58  1  0  0  0  0
 28 29  2  0  0  0  0
 28 59  1  0  0  0  0
 29 30  1  0  0  0  0
 29 60  1  0  0  0  0
 30 31  2  0  0  0  0
 30 61  1  0  0  0  0
 31 62  1  0  0  0  0
 32 33  1  0  0  0  0
 32 63  1  0  0  0  0
 32 64  1  0  0  0  0
 33 34  2  0  0  0  0
 33 38  1  0  0  0  0
 34 35  1  0  0  0  0
 34 65  1  0  0  0  0
 35 36  2  0  0  0  0
 35 66  1  0  0  0  0
 36 37  1  0  0  0  0
 36 67  1  0  0  0  0
 37 38  2  0  0  0  0
 37 68  1  0  0  0  0
 38 69  1  0  0  0  0
M  CHG  1   9   1
M  END
$$$$
> 733_AKC_/jac/dkac395

  Mrv0541 12122215543D              62.24000

 35 37  0  0  0  0            999 V2000
   -3.6950    0.9441    0.7153 C   0  0  0  0  0  0  0  0  0  0  0  0
   -4.1716    0.1715    1.7945 C   0  0  0  0  0  0  0  0  0  0  0  0
   -3.2759   -0.5583    2.5938 C   0  0  0  0  0  0  0  0  0  0  0  0
   -1.9021   -0.5512    2.2997 C   0  0  0  0  0  0  0  0  0  0  0  0
   -1.4060    0.1707    1.1881 C   0  0  0  0  0  0  0  0  0  0  0  0
   -2.3045    0.9470    0.4155 C   0  0  0  0  0  0  0  0  0  0  0  0
   -1.8619    1.7032   -0.6292 N   0  0  0  0  0  0  0  0  0  0  0  0
   -2.6753    2.4680   -1.4011 C   0  0  0  0  0  0  0  0  0  0  0  0
   -4.0542    2.4988   -1.1373 C   0  0  0  0  0  0  0  0  0  0  0  0
   -4.5629    1.7258   -0.0790 C   0  0  0  0  0  0  0  0  0  0  0  0
   -0.0876    0.1739    0.8340 N   0  0  0  0  0  0  0  0  0  0  0  0
    0.8509   -0.7551    1.0284 C   0  0  0  0  0  0  0  0  0  0  0  0
    0.7507   -2.0993    1.0263 C   0  0  0  0  0  0  0  0  0  0  0  0
   -0.3671   -2.8894    0.7750 C   0  0  0  0  0  0  0  0  0  0  0  0
   -0.4526   -3.9319    1.4688 O   0  0  0  0  0  0  0  0  0  0  0  0
   -1.3786   -2.6469   -0.2043 C   0  0  0  0  0  0  0  0  0  0  0  0
   -1.1025   -1.9587   -1.4135 C   0  0  0  0  0  0  0  0  0  0  0  0
   -2.1216   -1.7097   -2.3531 C   0  0  0  0  0  0  0  0  0  0  0  0
   -3.4308   -2.1714   -2.1181 C   0  0  0  0  0  0  0  0  0  0  0  0
   -3.7159   -2.8802   -0.9366 C   0  0  0  0  0  0  0  0  0  0  0  0
   -2.7048   -3.1012    0.0164 C   0  0  0  0  0  0  0  0  0  0  0  0
   -4.6573   -1.8803   -3.2495 Cl  0  0  0  0  0  0  0  0  0  0  0  0
   -5.1699    0.1447    2.0133 H   0  0  0  0  0  0  0  0  0  0  0  0
   -3.6256   -1.0920    3.3925 H   0  0  0  0  0  0  0  0  0  0  0  0
   -1.2666   -1.0795    2.9022 H   0  0  0  0  0  0  0  0  0  0  0  0
   -2.2831    3.0214   -2.1661 H   0  0  0  0  0  0  0  0  0  0  0  0
   -4.6786    3.0776   -1.7039 H   0  0  0  0  0  0  0  0  0  0  0  0
   -5.5686    1.7419    0.1074 H   0  0  0  0  0  0  0  0  0  0  0  0
    0.2188    0.9826    0.3939 H   0  0  0  0  0  0  0  0  0  0  0  0
    1.7589   -0.3788    1.1766 H   0  0  0  0  0  0  0  0  0  0  0  0
    1.5888   -2.5949    1.2436 H   0  0  0  0  0  0  0  0  0  0  0  0
   -0.1558   -1.6282   -1.6230 H   0  0  0  0  0  0  0  0  0  0  0  0
   -1.9034   -1.1909   -3.2077 H   0  0  0  0  0  0  0  0  0  0  0  0
   -4.6597   -3.2355   -0.7644 H   0  0  0  0  0  0  0  0  0  0  0  0
   -2.9522   -3.5908    0.8828 H   0  0  0  0  0  0  0  0  0  0  0  0
  1  2  1  0  0  0  0
  1  6  2  0  0  0  0
  1 10  1  0  0  0  0
  2  3  2  0  0  0  0
  3  4  1  0  0  0  0
  4  5  2  0  0  0  0
  5  6  1  0  0  0  0
  6  7  1  0  0  0  0
  7  8  2  0  0  0  0
  8  9  1  0  0  0  0
  9 10  2  0  0  0  0
  5 11  1  0  0  0  0
 11 12  1  0  0  0  0
 12 13  2  0  0  0  0
 13 14  1  0  0  0  0
 14 15  2  0  0  0  0
 14 16  1  0  0  0  0
 16 17  1  0  0  0  0
 16 21  2  0  0  0  0
 17 18  2  0  0  0  0
 18 19  1  0  0  0  0
 19 20  2  0  0  0  0
 20 21  1  0  0  0  0
 19 22  1  0  0  0  0
  2 23  1  0  0  0  0
  3 24  1  0  0  0  0
  4 25  1  0  0  0  0
  8 26  1  0  0  0  0
  9 27  1  0  0  0  0
 10 28  1  0  0  0  0
 11 29  1  0  0  0  0
 12 30  1  0  0  0  0
 13 31  1  0  0  0  0
 17 32  1  0  0  0  0
 18 33  1  0  0  0  0
 20 34  1  0  0  0  0
 21 35  1  0  0  0  0
M  END
$$$$
> 734_AKC_acsomega.2c06455

  Mrv0541 12122215583D              47.37000

 30 32  0  0  0  0            999 V2000
    4.3736    2.4838   -2.3994 C   0  0  0  0  0  0  0  0  0  0  0  0
    4.5482    2.4090   -3.7939 C   0  0  0  0  0  0  0  0  0  0  0  0
    3.7083    1.5881   -4.5676 C   0  0  0  0  0  0  0  0  0  0  0  0
    2.6852    0.8446   -3.9513 C   0  0  0  0  0  0  0  0  0  0  0  0
    2.5047    0.9164   -2.5575 C   0  0  0  0  0  0  0  0  0  0  0  0
    3.3578    1.7301   -1.7613 C   0  0  0  0  0  0  0  0  0  0  0  0
    3.1307    1.7371   -0.3613 C   0  0  0  0  0  0  0  0  0  0  0  0
    1.5120    0.2013   -1.9710 N   0  0  0  0  0  0  0  0  0  0  0  0
    1.3124    0.2190   -0.6295 C   0  0  0  0  0  0  0  0  0  0  0  0
    2.1188    0.9829    0.1516 N   0  0  0  0  0  0  0  0  0  0  0  0
    3.8717    2.4681    0.4412 N   0  0  0  0  0  0  0  0  0  0  0  0
    3.9398    2.3596    1.6995 N   0  0  0  0  0  0  0  0  0  0  0  0
    0.2918   -0.5517   -0.0447 C   0  0  0  0  0  0  0  0  0  0  0  0
   -1.0570   -0.3793   -0.4298 C   0  0  0  0  0  0  0  0  0  0  0  0
    0.6083   -1.5040    0.9499 C   0  0  0  0  0  0  0  0  0  0  0  0
   -0.4056   -2.2672    1.5551 C   0  0  0  0  0  0  0  0  0  0  0  0
   -1.7496   -2.0802    1.1780 C   0  0  0  0  0  0  0  0  0  0  0  0
   -2.0744   -1.1302    0.1890 C   0  0  0  0  0  0  0  0  0  0  0  0
   -2.9708   -2.9922    1.9134 Cl  0  0  0  0  0  0  0  0  0  0  0  0
    4.9926    3.0935   -1.8602 H   0  0  0  0  0  0  0  0  0  0  0  0
    5.2879    2.9538   -4.2462 H   0  0  0  0  0  0  0  0  0  0  0  0
    3.8416    1.5336   -5.5787 H   0  0  0  0  0  0  0  0  0  0  0  0
    2.0743    0.2577   -4.5246 H   0  0  0  0  0  0  0  0  0  0  0  0
    1.9624    0.9956    1.1095 H   0  0  0  0  0  0  0  0  0  0  0  0
    4.5180    2.9528    2.2019 H   0  0  0  0  0  0  0  0  0  0  0  0
    3.4148    1.6903    2.1676 H   0  0  0  0  0  0  0  0  0  0  0  0
   -1.3105    0.3028   -1.1491 H   0  0  0  0  0  0  0  0  0  0  0  0
    1.5791   -1.6549    1.2354 H   0  0  0  0  0  0  0  0  0  0  0  0
   -0.1578   -2.9544    2.2709 H   0  0  0  0  0  0  0  0  0  0  0  0
   -3.0488   -0.9773   -0.0820 H   0  0  0  0  0  0  0  0  0  0  0  0
  1  2  2  0  0  0  0
  1  6  1  0  0  0  0
  2  3  1  0  0  0  0
  3  4  2  0  0  0  0
  4  5  1  0  0  0  0
  7  6  1  0  0  0  0
  5  6  2  0  0  0  0
  5  8  1  0  0  0  0
  7 10  1  0  0  0  0
  8  9  2  0  0  0  0
  9 10  1  0  0  0  0
  7 11  2  0  0  0  0
 11 12  1  0  0  0  0
  9 13  1  0  0  0  0
 14 13  1  0  0  0  0
 13 15  2  0  0  0  0
 14 18  2  0  0  0  0
 15 16  1  0  0  0  0
 16 17  2  0  0  0  0
 17 18  1  0  0  0  0
 17 19  1  0  0  0  0
  1 20  1  0  0  0  0
  2 21  1  0  0  0  0
  3 22  1  0  0  0  0
  4 23  1  0  0  0  0
 10 24  1  0  0  0  0
 12 25  1  0  0  0  0
 12 26  1  0  0  0  0
 14 27  1  0  0  0  0
 15 28  1  0  0  0  0
 16 29  1  0  0  0  0
 18 30  1  0  0  0  0
M  END
$$$$
> 735_AKC_slct.202203852
2-henicosyl-5,7-dihydroxy-4H-chromen-4-one
  Mrv0541 12122216003D              94.62000

 82 83  0  0  0  0            999 V2000
   -0.7010   15.3773   13.7685 C   0  0  0  0  0  0  0  0  0  0  0  0
   -0.4149   15.1576   12.4098 C   0  0  0  0  0  0  0  0  0  0  0  0
   -1.4592   15.0407   11.4825 C   0  0  0  0  0  0  0  0  0  0  0  0
   -2.7835   15.1282   11.9278 C   0  0  0  0  0  0  0  0  0  0  0  0
   -3.8303   15.0136   11.0675 O   0  0  0  0  0  0  0  0  0  0  0  0
   -5.1486   15.0849   11.4294 C   0  0  0  0  0  0  0  0  0  0  0  0
   -5.5412   15.2887   12.7768 C   0  0  0  0  0  0  0  0  0  0  0  0
   -4.5154   15.4203   13.7856 C   0  0  0  0  0  0  0  0  0  0  0  0
   -3.1321   15.3382   13.3277 C   0  0  0  0  0  0  0  0  0  0  0  0
   -2.0340   15.4556   14.2223 C   0  0  0  0  0  0  0  0  0  0  0  0
   -4.8689   15.5921   14.9751 O   0  0  0  0  0  0  0  0  0  0  0  0
   -2.2021   15.6312   15.5551 O   0  0  0  0  0  0  0  0  0  0  0  0
    0.8664   15.0429   11.9913 O   0  0  0  0  0  0  0  0  0  0  0  0
   -6.1342   14.8764   10.3492 C   0  0  1  0  0  0  0  0  0  0  0  0
   -6.5086   13.3758   10.2688 C   0  0  2  0  0  0  0  0  0  0  0  0
   -7.5529   13.0859    9.1663 C   0  0  1  0  0  0  0  0  0  0  0  0
   -7.9004   11.5783    9.0919 C   0  0  2  0  0  0  0  0  0  0  0  0
   -8.9812   11.2927    8.0236 C   0  0  2  0  0  0  0  0  0  0  0  0
   -9.3357    9.7880    7.9418 C   0  0  2  0  0  0  0  0  0  0  0  0
  -10.4170    9.5191    6.8660 C   0  0  1  0  0  0  0  0  0  0  0  0
  -10.7832    8.0176    6.7652 C   0  0  1  0  0  0  0  0  0  0  0  0
  -11.8639    7.7485    5.6866 C   0  0  2  0  0  0  0  0  0  0  0  0
  -12.2325    6.2455    5.5826 C   0  0  1  0  0  0  0  0  0  0  0  0
  -13.3144    5.9680    4.5045 C   0  0  2  0  0  0  0  0  0  0  0  0
  -13.6862    4.4634    4.3977 C   0  0  2  0  0  0  0  0  0  0  0  0
  -14.7695    4.1782    3.3198 C   0  0  1  0  0  0  0  0  0  0  0  0
  -15.1393    2.6710    3.2157 C   0  0  1  0  0  0  0  0  0  0  0  0
  -16.2221    2.3801    2.1393 C   0  0  1  0  0  0  0  0  0  0  0  0
  -16.5922    0.8742    2.0347 C   0  0  1  0  0  0  0  0  0  0  0  0
  -17.6750    0.6004    0.9552 C   0  0  1  0  0  0  0  0  0  0  0  0
  -18.0518   -0.9015    0.8427 C   0  0  2  0  0  0  0  0  0  0  0  0
  -19.1344   -1.1674   -0.2381 C   0  0  2  0  0  0  0  0  0  0  0  0
  -19.5100   -2.6692   -0.3492 C   0  0  1  0  0  0  0  0  0  0  0  0
  -20.5871   -2.9376   -1.4238 C   0  0  0  0  0  0  0  0  0  0  0  0
    0.0710   15.4652   14.4324 H   0  0  0  0  0  0  0  0  0  0  0  0
   -1.2582   14.8918   10.4916 H   0  0  0  0  0  0  0  0  0  0  0  0
   -6.6033   15.3230   12.9383 H   0  0  0  0  0  0  0  0  0  0  0  0
   -2.8059   14.9077   15.8294 H   0  0  0  0  0  0  0  0  0  0  0  0
    1.0966   14.1026   12.1525 H   0  0  0  0  0  0  0  0  0  0  0  0
   -7.0265   15.4834   10.5270 H   0  0  0  0  0  0  0  0  0  0  0  0
   -5.7000   15.1980    9.3973 H   0  0  0  0  0  0  0  0  0  0  0  0
   -6.9149   13.0521   11.2324 H   0  0  0  0  0  0  0  0  0  0  0  0
   -5.6055   12.7918   10.0640 H   0  0  0  0  0  0  0  0  0  0  0  0
   -8.4614   13.6571    9.3775 H   0  0  0  0  0  0  0  0  0  0  0  0
   -7.1570   13.4120    8.2002 H   0  0  0  0  0  0  0  0  0  0  0  0
   -8.2643   11.2401   10.0667 H   0  0  0  0  0  0  0  0  0  0  0  0
   -6.9964   11.0119    8.8489 H   0  0  0  0  0  0  0  0  0  0  0  0
   -8.6179   11.6302    7.0483 H   0  0  0  0  0  0  0  0  0  0  0  0
   -9.8846   11.8597    8.2680 H   0  0  0  0  0  0  0  0  0  0  0  0
   -9.7024    9.4507    8.9161 H   0  0  0  0  0  0  0  0  0  0  0  0
   -8.4334    9.2181    7.6998 H   0  0  0  0  0  0  0  0  0  0  0  0
  -11.3149   10.0930    7.1140 H   0  0  0  0  0  0  0  0  0  0  0  0
  -10.0468    9.8654    5.8965 H   0  0  0  0  0  0  0  0  0  0  0  0
   -9.8813    7.4490    6.5219 H   0  0  0  0  0  0  0  0  0  0  0  0
  -11.1506    7.6767    7.7372 H   0  0  0  0  0  0  0  0  0  0  0  0
  -11.4928    8.0955    4.7183 H   0  0  0  0  0  0  0  0  0  0  0  0
  -12.7614    8.3227    5.9327 H   0  0  0  0  0  0  0  0  0  0  0  0
  -11.3313    5.6762    5.3398 H   0  0  0  0  0  0  0  0  0  0  0  0
  -12.5993    5.9031    6.5539 H   0  0  0  0  0  0  0  0  0  0  0  0
  -12.9453    6.3131    3.5350 H   0  0  0  0  0  0  0  0  0  0  0  0
  -14.2133    6.5403    4.7490 H   0  0  0  0  0  0  0  0  0  0  0  0
  -14.0535    4.1197    5.3687 H   0  0  0  0  0  0  0  0  0  0  0  0
  -12.7857    3.8926    4.1547 H   0  0  0  0  0  0  0  0  0  0  0  0
  -15.6702    4.7491    3.5625 H   0  0  0  0  0  0  0  0  0  0  0  0
  -14.4025    4.5219    2.3486 H   0  0  0  0  0  0  0  0  0  0  0  0
  -14.2379    2.1014    2.9731 H   0  0  0  0  0  0  0  0  0  0  0  0
  -15.5059    2.3286    4.1873 H   0  0  0  0  0  0  0  0  0  0  0  0
  -17.1240    2.9491    2.3813 H   0  0  0  0  0  0  0  0  0  0  0  0
  -15.8561    2.7219    1.1673 H   0  0  0  0  0  0  0  0  0  0  0  0
  -15.6935    0.3010    1.7901 H   0  0  0  0  0  0  0  0  0  0  0  0
  -16.9614    0.5283    3.0042 H   0  0  0  0  0  0  0  0  0  0  0  0
  -18.5736    1.1734    1.2000 H   0  0  0  0  0  0  0  0  0  0  0  0
  -17.3056    0.9461   -0.0143 H   0  0  0  0  0  0  0  0  0  0  0  0
  -18.4232   -1.2492    1.8108 H   0  0  0  0  0  0  0  0  0  0  0  0
  -17.1548   -1.4765    0.5962 H   0  0  0  0  0  0  0  0  0  0  0  0
  -18.7641   -0.8209   -1.2072 H   0  0  0  0  0  0  0  0  0  0  0  0
  -20.0326   -0.5936    0.0075 H   0  0  0  0  0  0  0  0  0  0  0  0
  -18.6176   -3.2496   -0.5990 H   0  0  0  0  0  0  0  0  0  0  0  0
  -19.8855   -3.0224    0.6150 H   0  0  0  0  0  0  0  0  0  0  0  0
  -20.2315   -2.6232   -2.4069 H   0  0  0  0  0  0  0  0  0  0  0  0
  -21.5045   -2.3950   -1.1879 H   0  0  0  0  0  0  0  0  0  0  0  0
  -20.8140   -4.0046   -1.4612 H   0  0  0  0  0  0  0  0  0  0  0  0
  1  2  2  0  0  0  0
  2  3  1  0  0  0  0
  3  4  2  0  0  0  0
  4  5  1  0  0  0  0
  5  6  1  0  0  0  0
  6  7  2  0  0  0  0
  7  8  1  0  0  0  0
  8  9  1  0  0  0  0
  4  9  1  0  0  0  0
  9 10  2  0  0  0  0
  1 10  1  0  0  0  0
  8 11  2  0  0  0  0
 10 12  1  0  0  0  0
  2 13  1  0  0  0  0
 14 15  1  0  0  0  0
 15 16  1  0  0  0  0
 16 17  1  0  0  0  0
 17 18  1  0  0  0  0
 18 19  1  0  0  0  0
 19 20  1  0  0  0  0
 20 21  1  0  0  0  0
 21 22  1  0  0  0  0
 22 23  1  0  0  0  0
 23 24  1  0  0  0  0
 24 25  1  0  0  0  0
 25 26  1  0  0  0  0
 26 27  1  0  0  0  0
 27 28  1  0  0  0  0
 28 29  1  0  0  0  0
 29 30  1  0  0  0  0
 30 31  1  0  0  0  0
 31 32  1  0  0  0  0
 32 33  1  0  0  0  0
 33 34  1  0  0  0  0
  6 14  1  0  0  0  0
  1 35  1  0  0  0  0
  3 36  1  0  0  0  0
  7 37  1  0  0  0  0
 12 38  1  0  0  0  0
 13 39  1  0  0  0  0
 14 40  1  0  0  0  0
 14 41  1  0  0  0  0
 15 42  1  0  0  0  0
 15 43  1  0  0  0  0
 16 44  1  0  0  0  0
 16 45  1  0  0  0  0
 17 46  1  0  0  0  0
 17 47  1  0  0  0  0
 18 48  1  0  0  0  0
 18 49  1  0  0  0  0
 19 50  1  0  0  0  0
 19 51  1  0  0  0  0
 20 52  1  0  0  0  0
 20 53  1  0  0  0  0
 21 54  1  0  0  0  0
 21 55  1  0  0  0  0
 22 56  1  0  0  0  0
 22 57  1  0  0  0  0
 23 58  1  0  0  0  0
 23 59  1  0  0  0  0
 24 60  1  0  0  0  0
 24 61  1  0  0  0  0
 25 62  1  0  0  0  0
 25 63  1  0  0  0  0
 26 64  1  0  0  0  0
 26 65  1  0  0  0  0
 27 66  1  0  0  0  0
 27 67  1  0  0  0  0
 28 68  1  0  0  0  0
 28 69  1  0  0  0  0
 29 70  1  0  0  0  0
 29 71  1  0  0  0  0
 30 72  1  0  0  0  0
 30 73  1  0  0  0  0
 31 74  1  0  0  0  0
 31 75  1  0  0  0  0
 32 76  1  0  0  0  0
 32 77  1  0  0  0  0
 33 78  1  0  0  0  0
 33 79  1  0  0  0  0
 34 80  1  0  0  0  0
 34 81  1  0  0  0  0
 34 82  1  0  0  0  0
M  END
>  <type>
systematic

$$$$
> 736_AKC_j.ejmech.2022.114996

  Mrv0541 12132210173D              42.70000

 27 28  0  0  0  0            999 V2000
    3.9655   -1.0456   -0.3712 C   0  0  0  0  0  0  0  0  0  0  0  0
    5.2789   -1.5476   -0.2748 C   0  0  0  0  0  0  0  0  0  0  0  0
    6.1643   -1.3917   -1.3559 C   0  0  0  0  0  0  0  0  0  0  0  0
    5.7251   -0.7729   -2.5365 C   0  0  0  0  0  0  0  0  0  0  0  0
    4.4045   -0.2965   -2.6419 C   0  0  0  0  0  0  0  0  0  0  0  0
    3.5021   -0.3864   -1.5422 C   0  0  0  0  0  0  0  0  0  0  0  0
    5.7877   -2.3308    1.1393 Cl  0  0  0  0  0  0  0  0  0  0  0  0
    4.0534    0.2305   -3.8434 O   0  0  0  0  0  0  0  0  0  0  0  0
    2.1909    0.1887   -1.5860 C   0  0  0  0  0  0  0  0  0  0  0  0
    1.2329   -0.1354   -0.6618 N   0  0  0  0  0  0  0  0  0  0  0  0
    1.9386    1.0676   -2.4437 O   0  0  0  0  0  0  0  0  0  0  0  0
   -0.0248    0.3783   -0.5234 C   0  0  0  0  0  0  0  0  0  0  0  0
   -1.7895    1.0625    1.0335 C   0  0  0  0  0  0  0  0  0  0  0  0
   -0.5185    0.5084    0.7934 C   0  0  0  0  0  0  0  0  0  0  0  0
   -0.8520    0.7728   -1.6026 C   0  0  0  0  0  0  0  0  0  0  0  0
   -2.1215    1.3319   -1.3638 C   0  0  0  0  0  0  0  0  0  0  0  0
   -2.5932    1.4786   -0.0446 C   0  0  0  0  0  0  0  0  0  0  0  0
   -4.1197    2.1496    0.2468 Cl  0  0  0  0  0  0  0  0  0  0  0  0
    3.3527   -1.1577    0.4391 H   0  0  0  0  0  0  0  0  0  0  0  0
    7.1265   -1.7349   -1.2945 H   0  0  0  0  0  0  0  0  0  0  0  0
    6.3706   -0.6752   -3.3253 H   0  0  0  0  0  0  0  0  0  0  0  0
    3.1458   -0.0979   -4.0117 H   0  0  0  0  0  0  0  0  0  0  0  0
    1.4883   -0.7781    0.0160 H   0  0  0  0  0  0  0  0  0  0  0  0
   -2.1228    1.1647    1.9958 H   0  0  0  0  0  0  0  0  0  0  0  0
    0.0515    0.2133    1.5916 H   0  0  0  0  0  0  0  0  0  0  0  0
   -0.5429    0.6483   -2.5678 H   0  0  0  0  0  0  0  0  0  0  0  0
   -2.6945    1.6282   -2.1577 H   0  0  0  0  0  0  0  0  0  0  0  0
  1  2  1  0  0  0  0
  1  6  2  0  0  0  0
  2  3  2  0  0  0  0
  3  4  1  0  0  0  0
  4  5  2  0  0  0  0
  6  5  1  0  0  0  0
  2  7  1  0  0  0  0
  5  8  1  0  0  0  0
  6  9  1  0  0  0  0
  9 10  1  0  0  0  0
  9 11  2  0  0  0  0
 10 12  1  0  0  0  0
 14 12  2  0  0  0  0
 12 15  1  0  0  0  0
 13 14  1  0  0  0  0
 13 17  2  0  0  0  0
 15 16  2  0  0  0  0
 16 17  1  0  0  0  0
 17 18  1  0  0  0  0
  1 19  1  0  0  0  0
  3 20  1  0  0  0  0
  4 21  1  0  0  0  0
  8 22  1  0  0  0  0
 10 23  1  0  0  0  0
 13 24  1  0  0  0  0
 14 25  1  0  0  0  0
 15 26  1  0  0  0  0
 16 27  1  0  0  0  0
M  END
$$$$
> 737_AKC_s00044-022-02994-9

  Mrv0541 12132210203D              37.23000

 27 28  0  0  0  0            999 V2000
   -0.3975    1.7166   -1.5378 C   0  0  0  0  0  0  0  0  0  0  0  0
   -1.2872    2.6450   -2.1117 C   0  0  0  0  0  0  0  0  0  0  0  0
   -2.5015    2.9558   -1.4701 C   0  0  0  0  0  0  0  0  0  0  0  0
   -2.8201    2.3308   -0.2496 C   0  0  0  0  0  0  0  0  0  0  0  0
   -1.9313    1.4023    0.3254 C   0  0  0  0  0  0  0  0  0  0  0  0
   -0.7123    1.0832   -0.3100 C   0  0  0  0  0  0  0  0  0  0  0  0
    0.0749    0.1987    0.2858 N   0  0  0  0  0  0  0  0  0  0  0  0
    1.1585   -0.1936   -0.1364 N   0  0  0  0  0  0  0  0  0  0  0  0
    1.9364   -1.0382    0.4086 N   0  0  0  0  0  0  0  0  0  0  0  0
    3.7094   -2.3203    0.6893 N   0  0  0  0  0  0  0  0  0  0  0  0
    3.1236   -1.4128   -0.1165 C   0  0  0  0  0  0  0  0  0  0  0  0
    1.7730   -1.7058    1.5659 C   0  0  0  0  0  0  0  0  0  0  0  0
    2.8902   -2.5086    1.7343 C   0  0  0  0  0  0  0  0  0  0  0  0
   -3.5711    4.0722   -2.1630 Cl  0  0  0  0  0  0  0  0  0  0  0  0
    3.7343   -0.9066   -1.3689 C   0  0  2  0  0  0  0  0  0  0  0  0
    4.5924    0.3539   -1.1269 C   0  0  0  0  0  0  0  0  0  0  0  0
    0.4803    1.5049   -2.0193 H   0  0  0  0  0  0  0  0  0  0  0  0
   -1.0485    3.0937   -2.9986 H   0  0  0  0  0  0  0  0  0  0  0  0
   -3.6992    2.5482    0.2242 H   0  0  0  0  0  0  0  0  0  0  0  0
   -2.1826    0.9592    1.2140 H   0  0  0  0  0  0  0  0  0  0  0  0
    0.9803   -1.6370    2.2092 H   0  0  0  0  0  0  0  0  0  0  0  0
    3.0636   -3.1332    2.5236 H   0  0  0  0  0  0  0  0  0  0  0  0
    2.9491   -0.6677   -2.0905 H   0  0  0  0  0  0  0  0  0  0  0  0
    4.3627   -1.6852   -1.8065 H   0  0  0  0  0  0  0  0  0  0  0  0
    5.0315    0.6909   -2.0687 H   0  0  0  0  0  0  0  0  0  0  0  0
    5.4013    0.1356   -0.4264 H   0  0  0  0  0  0  0  0  0  0  0  0
    3.9771    1.1611   -0.7234 H   0  0  0  0  0  0  0  0  0  0  0  0
  1  2  1  0  0  0  0
  1  6  2  0  0  0  0
  2  3  2  0  0  0  0
  3  4  1  0  0  0  0
  4  5  2  0  0  0  0
  5  6  1  0  0  0  0
  6  7  1  0  0  0  0
  7  8  2  0  0  0  0
  8  9  1  0  0  0  0
 11  9  1  0  0  0  0
  9 12  1  0  0  0  0
 10 11  2  0  0  0  0
 10 13  1  0  0  0  0
 12 13  2  0  0  0  0
  3 14  1  0  0  0  0
 11 15  1  0  0  0  0
 15 16  1  0  0  0  0
  1 17  1  0  0  0  0
  2 18  1  0  0  0  0
  4 19  1  0  0  0  0
  5 20  1  0  0  0  0
 12 21  1  0  0  0  0
 13 22  1  0  0  0  0
 15 23  1  0  0  0  0
 15 24  1  0  0  0  0
 16 25  1  0  0  0  0
 16 26  1  0  0  0  0
 16 27  1  0  0  0  0
M  END
$$$$
> 738_AKC_j.bmc.2022.117136

  Mrv0541 01302309203D              53.90000

 45 46  0  0  0  0            999 V2000
   -3.9198   -4.5986    3.3329 C   0  0  0  0  0  0  0  0  0  0  0  0
   -3.3040   -4.7746    2.0733 C   0  0  0  0  0  0  0  0  0  0  0  0
   -2.8599   -6.0661    1.7084 C   0  0  0  0  0  0  0  0  0  0  0  0
   -3.0101   -7.1577    2.5863 C   0  0  0  0  0  0  0  0  0  0  0  0
   -3.6643   -6.9710    3.8210 C   0  0  0  0  0  0  0  0  0  0  0  0
   -4.1069   -5.6911    4.1972 C   0  0  0  0  0  0  0  0  0  0  0  0
   -3.1040   -3.6151    1.1632 C   0  0  2  0  0  0  0  0  0  0  0  0
   -1.7459   -2.9095    1.4311 C   0  0  2  0  0  0  0  0  0  0  0  0
   -1.4978   -1.7684    0.5661 C   0  0  0  0  0  0  0  0  0  0  0  0
   -0.4094   -0.9951    0.7136 C   0  0  0  0  0  0  0  0  0  0  0  0
   -0.0828    0.0701   -0.1168 C   0  0  0  0  0  0  0  0  0  0  0  0
   -0.8860    0.4655   -0.9978 O   0  0  0  0  0  0  0  0  0  0  0  0
    1.2160    0.7747   -0.0002 C   0  0  1  0  0  0  0  0  0  0  0  0
    2.4339   -0.1432   -0.3068 C   0  0  1  0  0  0  0  0  0  0  0  0
    3.7032    0.6183   -0.1859 C   0  0  0  0  0  0  0  0  0  0  0  0
    4.2590    1.2717   -1.3092 C   0  0  0  0  0  0  0  0  0  0  0  0
    4.3561    0.7360    1.0631 C   0  0  0  0  0  0  0  0  0  0  0  0
    5.5311    1.4993    1.1881 C   0  0  0  0  0  0  0  0  0  0  0  0
    6.0675    2.1519    0.0653 C   0  0  0  0  0  0  0  0  0  0  0  0
    5.4329    2.0357   -1.1833 C   0  0  0  0  0  0  0  0  0  0  0  0
   -3.8760   -8.0194    4.6481 O   0  0  0  0  0  0  0  0  0  0  0  0
   -2.5463   -8.3923    2.2250 O   0  0  0  0  0  0  0  0  0  0  0  0
   -1.1720   -8.6051    2.5959 C   0  0  0  0  0  0  0  0  0  0  0  0
   -4.2361   -3.6727    3.6315 H   0  0  0  0  0  0  0  0  0  0  0  0
   -2.4159   -6.2184    0.8002 H   0  0  0  0  0  0  0  0  0  0  0  0
   -4.5632   -5.5505    5.1011 H   0  0  0  0  0  0  0  0  0  0  0  0
   -3.9208   -2.8971    1.2939 H   0  0  0  0  0  0  0  0  0  0  0  0
   -3.1414   -3.9498    0.1213 H   0  0  0  0  0  0  0  0  0  0  0  0
   -0.9366   -3.6295    1.2795 H   0  0  0  0  0  0  0  0  0  0  0  0
   -1.7124   -2.5803    2.4741 H   0  0  0  0  0  0  0  0  0  0  0  0
   -2.1423   -1.5742   -0.1686 H   0  0  0  0  0  0  0  0  0  0  0  0
    0.2148   -1.2052    1.4604 H   0  0  0  0  0  0  0  0  0  0  0  0
    1.2311    1.6200   -0.6951 H   0  0  0  0  0  0  0  0  0  0  0  0
    1.2995    1.1861    1.0096 H   0  0  0  0  0  0  0  0  0  0  0  0
    2.4558   -0.9919    0.3831 H   0  0  0  0  0  0  0  0  0  0  0  0
    2.3361   -0.5609   -1.3139 H   0  0  0  0  0  0  0  0  0  0  0  0
    3.8094    1.2023   -2.2253 H   0  0  0  0  0  0  0  0  0  0  0  0
    3.9789    0.2718    1.8927 H   0  0  0  0  0  0  0  0  0  0  0  0
    5.9919    1.5811    2.0965 H   0  0  0  0  0  0  0  0  0  0  0  0
    6.9182    2.7097    0.1564 H   0  0  0  0  0  0  0  0  0  0  0  0
    5.8214    2.5089   -2.0006 H   0  0  0  0  0  0  0  0  0  0  0  0
   -4.7224   -8.4029    4.3376 H   0  0  0  0  0  0  0  0  0  0  0  0
   -0.8770   -9.5965    2.2517 H   0  0  0  0  0  0  0  0  0  0  0  0
   -0.5111   -7.8723    2.1268 H   0  0  0  0  0  0  0  0  0  0  0  0
   -1.0427   -8.5677    3.6798 H   0  0  0  0  0  0  0  0  0  0  0  0
  1  2  1  0  0  0  0
  1  6  2  0  0  0  0
  2  3  2  0  0  0  0
  3  4  1  0  0  0  0
  4  5  2  0  0  0  0
  5  6  1  0  0  0  0
  2  7  1  0  0  0  0
  7  8  1  0  0  0  0
  8  9  1  0  0  0  0
  9 10  2  0  0  0  0
 10 11  1  0  0  0  0
 11 12  2  0  0  0  0
 11 13  1  0  0  0  0
 13 14  1  0  0  0  0
 14 15  1  0  0  0  0
 16 15  1  0  0  0  0
 15 17  2  0  0  0  0
 16 20  2  0  0  0  0
 17 18  1  0  0  0  0
 18 19  2  0  0  0  0
 19 20  1  0  0  0  0
  5 21  1  0  0  0  0
  4 22  1  0  0  0  0
 22 23  1  0  0  0  0
  1 24  1  0  0  0  0
  3 25  1  0  0  0  0
  6 26  1  0  0  0  0
  7 27  1  0  0  0  0
  7 28  1  0  0  0  0
  8 29  1  0  0  0  0
  8 30  1  0  0  0  0
  9 31  1  0  0  0  0
 10 32  1  0  0  0  0
 13 33  1  0  0  0  0
 13 34  1  0  0  0  0
 14 35  1  0  0  0  0
 14 36  1  0  0  0  0
 16 37  1  0  0  0  0
 17 38  1  0  0  0  0
 18 39  1  0  0  0  0
 19 40  1  0  0  0  0
 20 41  1  0  0  0  0
 21 42  1  0  0  0  0
 23 43  1  0  0  0  0
 23 44  1  0  0  0  0
 23 45  1  0  0  0  0
M  END
$$$$
> 739_AKC_s11030-022-10569-4
Dimethyl 4-(4-fluorophenyl)-2,6-dimethyl-1,4-dihydropyridine-3,5-dicarboxylate
  Mrv0541 01302309233D              63.27000

 41 42  0  0  0  0            999 V2000
   -4.0317    0.2785    0.2502 N   0  0  0  0  0  0  0  0  0  0  0  0
   -4.7258    0.7565    1.2919 C   0  0  0  0  0  0  0  0  0  0  0  0
   -4.0686    1.2749    2.3654 C   0  0  0  0  0  0  0  0  0  0  0  0
   -2.5773    1.3017    2.3129 C   0  0  1  0  0  0  0  0  0  0  0  0
   -1.9198    0.5834    1.1863 C   0  0  0  0  0  0  0  0  0  0  0  0
   -2.7072    0.0981    0.1926 C   0  0  0  0  0  0  0  0  0  0  0  0
   -4.7099    1.7872    3.5210 C   0  0  0  0  0  0  0  0  0  0  0  0
   -5.9344    1.6425    3.7461 O   0  0  0  0  0  0  0  0  0  0  0  0
   -3.9955    2.4784    4.4679 O   0  0  0  0  0  0  0  0  0  0  0  0
   -0.5202    0.4243    1.2145 C   0  0  0  0  0  0  0  0  0  0  0  0
    0.0816    0.3777    2.3149 O   0  0  0  0  0  0  0  0  0  0  0  0
    0.2380    0.3421    0.0775 O   0  0  0  0  0  0  0  0  0  0  0  0
   -6.1758    0.6435    1.1436 C   0  0  0  0  0  0  0  0  0  0  0  0
   -2.2460   -0.6588   -0.9673 C   0  0  0  0  0  0  0  0  0  0  0  0
   -2.0697    2.7178    2.3533 C   0  0  0  0  0  0  0  0  0  0  0  0
   -2.4904    3.6737    1.3950 C   0  0  0  0  0  0  0  0  0  0  0  0
   -2.0761    5.0151    1.4824 C   0  0  0  0  0  0  0  0  0  0  0  0
   -1.2195    5.4223    2.5222 C   0  0  0  0  0  0  0  0  0  0  0  0
   -0.7636    4.4796    3.4629 C   0  0  0  0  0  0  0  0  0  0  0  0
   -1.1786    3.1377    3.3725 C   0  0  0  0  0  0  0  0  0  0  0  0
   -0.8448    6.6712    2.6095 F   0  0  0  0  0  0  0  0  0  0  0  0
    1.6626    0.1949    0.0118 C   0  0  0  0  0  0  0  0  0  0  0  0
   -4.4879    3.1191    5.6513 C   0  0  0  0  0  0  0  0  0  0  0  0
   -4.5456    0.0056   -0.5273 H   0  0  0  0  0  0  0  0  0  0  0  0
   -2.2686    0.7641    3.2182 H   0  0  0  0  0  0  0  0  0  0  0  0
   -6.4707    0.2414    0.1705 H   0  0  0  0  0  0  0  0  0  0  0  0
   -6.6536    1.6200    1.2452 H   0  0  0  0  0  0  0  0  0  0  0  0
   -6.5682   -0.0362    1.9016 H   0  0  0  0  0  0  0  0  0  0  0  0
   -1.6336   -0.0232   -1.6068 H   0  0  0  0  0  0  0  0  0  0  0  0
   -1.6632   -1.5253   -0.6489 H   0  0  0  0  0  0  0  0  0  0  0  0
   -3.0730   -1.0346   -1.5774 H   0  0  0  0  0  0  0  0  0  0  0  0
   -3.1156    3.4014    0.6322 H   0  0  0  0  0  0  0  0  0  0  0  0
   -2.4069    5.6943    0.7899 H   0  0  0  0  0  0  0  0  0  0  0  0
   -0.1328    4.7668    4.2170 H   0  0  0  0  0  0  0  0  0  0  0  0
   -0.8290    2.4694    4.0647 H   0  0  0  0  0  0  0  0  0  0  0  0
    2.1511    1.0522    0.4803 H   0  0  0  0  0  0  0  0  0  0  0  0
    1.9716    0.1366   -1.0336 H   0  0  0  0  0  0  0  0  0  0  0  0
    1.9635   -0.7209    0.5227 H   0  0  0  0  0  0  0  0  0  0  0  0
   -4.9156    2.3839    6.3374 H   0  0  0  0  0  0  0  0  0  0  0  0
   -3.6605    3.6303    6.1486 H   0  0  0  0  0  0  0  0  0  0  0  0
   -5.2480    3.8584    5.3874 H   0  0  0  0  0  0  0  0  0  0  0  0
  1  2  1  0  0  0  0
  2  3  2  0  0  0  0
  3  4  1  0  0  0  0
  4  5  1  0  0  0  0
  5  6  2  0  0  0  0
  1  6  1  0  0  0  0
  7  8  2  0  0  0  0
  7  9  1  0  0  0  0
  3  7  1  0  0  0  0
 10 11  2  0  0  0  0
 10 12  1  0  0  0  0
  5 10  1  0  0  0  0
  2 13  1  0  0  0  0
  6 14  1  0  0  0  0
 15 16  2  0  0  0  0
 16 17  1  0  0  0  0
 17 18  2  0  0  0  0
 18 19  1  0  0  0  0
 19 20  2  0  0  0  0
 15 20  1  0  0  0  0
 18 21  1  0  0  0  0
  4 15  1  0  0  0  0
 12 22  1  0  0  0  0
  9 23  1  0  0  0  0
  1 24  1  0  0  0  0
  4 25  1  0  0  0  0
 13 26  1  0  0  0  0
 13 27  1  0  0  0  0
 13 28  1  0  0  0  0
 14 29  1  0  0  0  0
 14 30  1  0  0  0  0
 14 31  1  0  0  0  0
 16 32  1  0  0  0  0
 17 33  1  0  0  0  0
 19 34  1  0  0  0  0
 20 35  1  0  0  0  0
 22 36  1  0  0  0  0
 22 37  1  0  0  0  0
 22 38  1  0  0  0  0
 23 39  1  0  0  0  0
 23 40  1  0  0  0  0
 23 41  1  0  0  0  0
M  END
>  <type>
systematic

$$$$
> 740_AKC_j.ejmech.2022.115049
Ethyl 4-[2-(3,4-dichlorobenzamido)thiazolo [5,4-d]pyrimidin-5-yl]piperazine-1- carboxylate
  Mrv0541 01302309353D              88.31000

 49 52  0  0  0  0            999 V2000
    2.6691   -2.0364    1.6575 C   0  0  2  0  0  0  0  0  0  0  0  0
    4.0467   -1.9604    2.3643 C   0  0  2  0  0  0  0  0  0  0  0  0
    4.9892   -2.8676    1.7419 N   0  0  0  0  0  0  0  0  0  0  0  0
    5.1631   -2.7035    0.3142 C   0  0  1  0  0  0  0  0  0  0  0  0
    3.7885   -2.7835   -0.4049 C   0  0  2  0  0  0  0  0  0  0  0  0
    2.7990   -1.9190    0.2162 N   0  0  0  0  0  0  0  0  0  0  0  0
    2.0114   -1.0468   -0.5177 C   0  0  0  0  0  0  0  0  0  0  0  0
    2.1277   -0.9490   -1.7634 O   0  0  0  0  0  0  0  0  0  0  0  0
    1.0573   -0.2741    0.0902 O   0  0  0  0  0  0  0  0  0  0  0  0
    6.9217   -4.2335    2.0880 N   0  0  0  0  0  0  0  0  0  0  0  0
    5.6678   -3.8336    2.4616 C   0  0  0  0  0  0  0  0  0  0  0  0
    5.1135   -4.4010    3.5778 N   0  0  0  0  0  0  0  0  0  0  0  0
    5.7558   -5.3292    4.3404 C   0  0  0  0  0  0  0  0  0  0  0  0
    9.1834   -5.8492    2.6622 S   0  0  0  0  0  0  0  0  0  0  0  0
    9.0734   -6.8420    4.1164 C   0  0  0  0  0  0  0  0  0  0  0  0
    7.8449   -6.6186    4.6445 N   0  0  0  0  0  0  0  0  0  0  0  0
    7.0510   -5.7329    3.9812 C   0  0  0  0  0  0  0  0  0  0  0  0
    7.5875   -5.1521    2.8276 C   0  0  0  0  0  0  0  0  0  0  0  0
   12.1527   -8.7287    5.0450 C   0  0  0  0  0  0  0  0  0  0  0  0
   11.6751   -9.9013    5.6823 C   0  0  0  0  0  0  0  0  0  0  0  0
   12.5495  -10.7732    6.3682 C   0  0  0  0  0  0  0  0  0  0  0  0
   13.9292  -10.4685    6.4418 C   0  0  0  0  0  0  0  0  0  0  0  0
   14.4088   -9.2870    5.8450 C   0  0  0  0  0  0  0  0  0  0  0  0
   13.5328   -8.4291    5.1564 C   0  0  0  0  0  0  0  0  0  0  0  0
   11.2892   -7.8727    4.3044 C   0  0  0  0  0  0  0  0  0  0  0  0
    9.9952   -7.6661    4.6932 N   0  0  0  0  0  0  0  0  0  0  0  0
   11.7550   -7.3051    3.2876 O   0  0  0  0  0  0  0  0  0  0  0  0
   11.8992  -12.1756    7.0710 Cl  0  0  0  0  0  0  0  0  0  0  0  0
   15.0472  -11.4820    7.2201 Cl  0  0  0  0  0  0  0  0  0  0  0  0
    0.1340    0.6303   -0.5319 C   0  0  2  0  0  0  0  0  0  0  0  0
   -0.7190    1.3206    0.5482 C   0  0  0  0  0  0  0  0  0  0  0  0
    2.0291   -1.2681    2.0965 H   0  0  0  0  0  0  0  0  0  0  0  0
    2.2163   -3.0046    1.8883 H   0  0  0  0  0  0  0  0  0  0  0  0
    3.8973   -2.1577    3.4284 H   0  0  0  0  0  0  0  0  0  0  0  0
    4.4389   -0.9418    2.2859 H   0  0  0  0  0  0  0  0  0  0  0  0
    5.6197   -1.7302    0.1125 H   0  0  0  0  0  0  0  0  0  0  0  0
    5.8166   -3.4657   -0.1186 H   0  0  0  0  0  0  0  0  0  0  0  0
    3.4282   -3.8128   -0.3424 H   0  0  0  0  0  0  0  0  0  0  0  0
    3.9489   -2.5603   -1.4628 H   0  0  0  0  0  0  0  0  0  0  0  0
    5.3024   -5.7193    5.1674 H   0  0  0  0  0  0  0  0  0  0  0  0
   10.6800  -10.1377    5.6379 H   0  0  0  0  0  0  0  0  0  0  0  0
   15.4005   -9.0430    5.9032 H   0  0  0  0  0  0  0  0  0  0  0  0
   13.9194   -7.5756    4.7421 H   0  0  0  0  0  0  0  0  0  0  0  0
    9.7068   -8.1390    5.4894 H   0  0  0  0  0  0  0  0  0  0  0  0
   -0.5196    0.0798   -1.2139 H   0  0  0  0  0  0  0  0  0  0  0  0
    0.6815    1.3864   -1.1010 H   0  0  0  0  0  0  0  0  0  0  0  0
   -1.4487    1.9835    0.0806 H   0  0  0  0  0  0  0  0  0  0  0  0
   -0.0822    1.9099    1.2108 H   0  0  0  0  0  0  0  0  0  0  0  0
   -1.2503    0.5734    1.1405 H   0  0  0  0  0  0  0  0  0  0  0  0
  1  2  1  0  0  0  0
  2  3  1  0  0  0  0
  3  4  1  0  0  0  0
  4  5  1  0  0  0  0
  5  6  1  0  0  0  0
  1  6  1  0  0  0  0
  7  8  2  0  0  0  0
  7  9  1  0  0  0  0
  6  7  1  0  0  0  0
 18 10  2  0  0  0  0
 10 11  1  0  0  0  0
 11 12  2  0  0  0  0
 12 13  1  0  0  0  0
 17 13  2  0  0  0  0
 14 15  1  0  0  0  0
 15 16  2  0  0  0  0
 16 17  1  0  0  0  0
 17 18  1  0  0  0  0
 14 18  1  0  0  0  0
 19 20  2  0  0  0  0
 20 21  1  0  0  0  0
 21 22  2  0  0  0  0
 22 23  1  0  0  0  0
 23 24  2  0  0  0  0
 19 24  1  0  0  0  0
 25 26  1  0  0  0  0
 25 27  2  0  0  0  0
 19 25  1  0  0  0  0
 21 28  1  0  0  0  0
 22 29  1  0  0  0  0
 15 26  1  0  0  0  0
  3 11  1  0  0  0  0
 30 31  1  0  0  0  0
  9 30  1  0  0  0  0
  1 32  1  0  0  0  0
  1 33  1  0  0  0  0
  2 34  1  0  0  0  0
  2 35  1  0  0  0  0
  4 36  1  0  0  0  0
  4 37  1  0  0  0  0
  5 38  1  0  0  0  0
  5 39  1  0  0  0  0
 13 40  1  0  0  0  0
 20 41  1  0  0  0  0
 23 42  1  0  0  0  0
 24 43  1  0  0  0  0
 26 44  1  0  0  0  0
 30 45  1  0  0  0  0
 30 46  1  0  0  0  0
 31 47  1  0  0  0  0
 31 48  1  0  0  0  0
 31 49  1  0  0  0  0
M  END
>  <type>
systematic

$$$$
> 741_AKC_j.ejmech.2022.115049
4-Chloro-3-nitro-N-[5-(dimethylamino)thiazolo [5,4-d]pyrimidin-2-yl]benzamide
  Mrv0541 01302309363D              78.34000

 36 38  0  0  0  0            999 V2000
    1.3211    0.6517   -0.5322 C   0  0  0  0  0  0  0  0  0  0  0  0
    2.4559   -0.1229   -0.8826 C   0  0  0  0  0  0  0  0  0  0  0  0
    3.7452    0.4356   -1.1129 C   0  0  0  0  0  0  0  0  0  0  0  0
    3.8642    1.8548   -1.0024 C   0  0  0  0  0  0  0  0  0  0  0  0
    2.7416    2.6453   -0.6885 C   0  0  0  0  0  0  0  0  0  0  0  0
    1.4911    2.0545   -0.4627 C   0  0  0  0  0  0  0  0  0  0  0  0
    0.0546    0.0551   -0.2289 C   0  0  0  0  0  0  0  0  0  0  0  0
   -0.9482    0.7977   -0.0817 O   0  0  0  0  0  0  0  0  0  0  0  0
   -0.0798   -1.2962   -0.0399 N   0  0  0  0  0  0  0  0  0  0  0  0
   -3.6573   -4.4590    2.1344 N   0  0  0  0  0  0  0  0  0  0  0  0
   -4.9383   -4.1426    2.4972 C   0  0  0  0  0  0  0  0  0  0  0  0
   -5.4091   -2.8982    2.1672 N   0  0  0  0  0  0  0  0  0  0  0  0
   -4.6651   -1.9639    1.5138 C   0  0  0  0  0  0  0  0  0  0  0  0
   -1.2296   -3.6179    0.9262 S   0  0  0  0  0  0  0  0  0  0  0  0
   -1.1942   -1.9428    0.3897 C   0  0  0  0  0  0  0  0  0  0  0  0
   -2.4369   -1.4365    0.5895 N   0  0  0  0  0  0  0  0  0  0  0  0
   -3.3407   -2.2717    1.1675 C   0  0  0  0  0  0  0  0  0  0  0  0
   -2.8880   -3.5560    1.4860 C   0  0  0  0  0  0  0  0  0  0  0  0
   -5.7301   -5.0535    3.1771 N   0  0  0  0  0  0  0  0  0  0  0  0
   -5.2301   -6.3865    3.4321 C   0  0  0  0  0  0  0  0  0  0  0  0
   -7.0398   -4.6666    3.6539 C   0  0  0  0  0  0  0  0  0  0  0  0
    4.7772   -0.3929   -1.4112 N   0  3  0  0  0  0  0  0  0  0  0  0
    5.8582   -0.0332   -1.6638 O   0  0  0  0  0  0  0  0  0  0  0  0
    4.6650   -1.6625   -1.4439 O   0  5  0  0  0  0  0  0  0  0  0  0
    5.3106    2.7209   -1.2218 Cl  0  0  0  0  0  0  0  0  0  0  0  0
    2.3408   -1.1332   -0.9753 H   0  0  0  0  0  0  0  0  0  0  0  0
    2.8228    3.6640   -0.6113 H   0  0  0  0  0  0  0  0  0  0  0  0
    0.7063    2.6705   -0.2332 H   0  0  0  0  0  0  0  0  0  0  0  0
    0.7056   -1.8488   -0.1737 H   0  0  0  0  0  0  0  0  0  0  0  0
   -5.0641   -1.0498    1.2934 H   0  0  0  0  0  0  0  0  0  0  0  0
   -5.9598   -7.0374    3.9172 H   0  0  0  0  0  0  0  0  0  0  0  0
   -4.9467   -6.8634    2.4913 H   0  0  0  0  0  0  0  0  0  0  0  0
   -4.3513   -6.3367    4.0790 H   0  0  0  0  0  0  0  0  0  0  0  0
   -7.5834   -5.4848    4.1309 H   0  0  0  0  0  0  0  0  0  0  0  0
   -7.6530   -4.3133    2.8221 H   0  0  0  0  0  0  0  0  0  0  0  0
   -6.9464   -3.8631    4.3884 H   0  0  0  0  0  0  0  0  0  0  0  0
  1  2  2  0  0  0  0
  2  3  1  0  0  0  0
  3  4  2  0  0  0  0
  4  5  1  0  0  0  0
  5  6  2  0  0  0  0
  1  6  1  0  0  0  0
  7  8  2  0  0  0  0
  7  9  1  0  0  0  0
  1  7  1  0  0  0  0
 18 10  2  0  0  0  0
 10 11  1  0  0  0  0
 11 12  2  0  0  0  0
 12 13  1  0  0  0  0
 17 13  2  0  0  0  0
 14 15  1  0  0  0  0
 15 16  2  0  0  0  0
 16 17  1  0  0  0  0
 17 18  1  0  0  0  0
 14 18  1  0  0  0  0
 19 20  1  0  0  0  0
 19 21  1  0  0  0  0
 11 19  1  0  0  0  0
  9 15  1  0  0  0  0
 22 23  2  0  0  0  0
 22 24  1  0  0  0  0
  3 22  1  0  0  0  0
  4 25  1  0  0  0  0
  2 26  1  0  0  0  0
  5 27  1  0  0  0  0
  6 28  1  0  0  0  0
  9 29  1  0  0  0  0
 13 30  1  0  0  0  0
 20 31  1  0  0  0  0
 20 32  1  0  0  0  0
 20 33  1  0  0  0  0
 21 34  1  0  0  0  0
 21 35  1  0  0  0  0
 21 36  1  0  0  0  0
M  CHG  2  22   1  24  -1
M  END
>  <type>
systematic

$$$$
> 742_AKC_fcimb.2022.974910

  Mrv0541 01302309443D              68.27000

 43 44  0  0  0  0            999 V2000
   -4.9946   -1.3073   -0.9399 C   0  0  0  0  0  0  0  0  0  0  0  0
   -5.8514   -2.1778   -1.6455 C   0  0  0  0  0  0  0  0  0  0  0  0
   -5.7344   -2.3439   -3.0379 C   0  0  0  0  0  0  0  0  0  0  0  0
   -4.7143   -1.6440   -3.7084 C   0  0  0  0  0  0  0  0  0  0  0  0
   -3.8370   -0.7802   -3.0161 C   0  0  0  0  0  0  0  0  0  0  0  0
   -3.9840   -0.5558   -1.6122 C   0  0  0  0  0  0  0  0  0  0  0  0
   -5.1810   -1.2376    0.4053 O   0  0  0  0  0  0  0  0  0  0  0  0
   -6.6520   -3.2225   -3.8028 C   0  0  0  0  0  0  0  0  0  0  0  0
   -2.8890   -0.1387   -3.7784 O   0  0  0  0  0  0  0  0  0  0  0  0
   -1.7035   -0.9233   -4.0296 C   0  0  0  0  0  0  0  0  0  0  0  0
   -3.1422    0.3918   -0.9191 C   0  0  0  0  0  0  0  0  0  0  0  0
   -2.1408    0.8982   -1.4776 O   0  0  0  0  0  0  0  0  0  0  0  0
   -3.3527    0.8769    0.4019 C   0  0  0  0  0  0  0  0  0  0  0  0
   -2.4368    0.6225    1.4731 C   0  0  0  0  0  0  0  0  0  0  0  0
   -4.5072    1.6729    0.6384 C   0  0  0  0  0  0  0  0  0  0  0  0
   -4.8093    2.1161    1.9398 C   0  0  0  0  0  0  0  0  0  0  0  0
   -3.9305    1.8573    2.9989 C   0  0  0  0  0  0  0  0  0  0  0  0
   -2.7548    1.1264    2.7617 C   0  0  0  0  0  0  0  0  0  0  0  0
   -1.2193   -0.1130    1.3255 C   0  0  0  0  0  0  0  0  0  0  0  0
   -0.2698    0.0693    2.1268 O   0  0  0  0  0  0  0  0  0  0  0  0
   -1.0517   -1.0333    0.3277 O   0  0  0  0  0  0  0  0  0  0  0  0
   -5.3701    2.0217   -0.3716 O   0  0  0  0  0  0  0  0  0  0  0  0
   -5.0577    3.3028   -0.9544 C   0  0  0  0  0  0  0  0  0  0  0  0
   -4.2285    2.3259    4.2371 O   0  0  0  0  0  0  0  0  0  0  0  0
    0.1328   -1.7911    0.0570 C   0  0  0  0  0  0  0  0  0  0  0  0
   -6.5726   -2.6970   -1.1373 H   0  0  0  0  0  0  0  0  0  0  0  0
   -4.6070   -1.7616   -4.7205 H   0  0  0  0  0  0  0  0  0  0  0  0
   -6.0347   -1.6822    0.5882 H   0  0  0  0  0  0  0  0  0  0  0  0
   -6.0831   -4.0096   -4.2999 H   0  0  0  0  0  0  0  0  0  0  0  0
   -7.4018   -3.6929   -3.1640 H   0  0  0  0  0  0  0  0  0  0  0  0
   -7.1758   -2.6354   -4.5604 H   0  0  0  0  0  0  0  0  0  0  0  0
   -1.0261   -0.3314   -4.6474 H   0  0  0  0  0  0  0  0  0  0  0  0
   -1.1852   -1.1682   -3.0992 H   0  0  0  0  0  0  0  0  0  0  0  0
   -1.9313   -1.8456   -4.5720 H   0  0  0  0  0  0  0  0  0  0  0  0
   -5.6701    2.6381    2.1188 H   0  0  0  0  0  0  0  0  0  0  0  0
   -2.1324    0.9580    3.5570 H   0  0  0  0  0  0  0  0  0  0  0  0
   -5.7943    3.5198   -1.7293 H   0  0  0  0  0  0  0  0  0  0  0  0
   -5.1066    4.1019   -0.2090 H   0  0  0  0  0  0  0  0  0  0  0  0
   -4.0696    3.3049   -1.4199 H   0  0  0  0  0  0  0  0  0  0  0  0
   -3.4216    2.1925    4.7765 H   0  0  0  0  0  0  0  0  0  0  0  0
    0.4002   -2.4001    0.9232 H   0  0  0  0  0  0  0  0  0  0  0  0
   -0.0479   -2.4447   -0.7965 H   0  0  0  0  0  0  0  0  0  0  0  0
    0.9580   -1.1186   -0.1810 H   0  0  0  0  0  0  0  0  0  0  0  0
  1  2  1  0  0  0  0
  2  3  2  0  0  0  0
  3  4  1  0  0  0  0
  4  5  2  0  0  0  0
  5  6  1  0  0  0  0
  1  6  2  0  0  0  0
  1  7  1  0  0  0  0
  3  8  1  0  0  0  0
  5  9  1  0  0  0  0
  9 10  1  0  0  0  0
  6 11  1  0  0  0  0
 11 12  2  0  0  0  0
 11 13  1  0  0  0  0
 14 13  1  0  0  0  0
 13 15  2  0  0  0  0
 15 16  1  0  0  0  0
 16 17  2  0  0  0  0
 17 18  1  0  0  0  0
 14 18  2  0  0  0  0
 14 19  1  0  0  0  0
 19 20  2  0  0  0  0
 19 21  1  0  0  0  0
 15 22  1  0  0  0  0
 22 23  1  0  0  0  0
 17 24  1  0  0  0  0
 21 25  1  0  0  0  0
  2 26  1  0  0  0  0
  4 27  1  0  0  0  0
  7 28  1  0  0  0  0
  8 29  1  0  0  0  0
  8 30  1  0  0  0  0
  8 31  1  0  0  0  0
 10 32  1  0  0  0  0
 10 33  1  0  0  0  0
 10 34  1  0  0  0  0
 16 35  1  0  0  0  0
 18 36  1  0  0  0  0
 23 37  1  0  0  0  0
 23 38  1  0  0  0  0
 23 39  1  0  0  0  0
 24 40  1  0  0  0  0
 25 41  1  0  0  0  0
 25 42  1  0  0  0  0
 25 43  1  0  0  0  0
M  END
>  <type>
systematic

$$$$
> 743_AKC_biomedicines11010219
4-Amino-2-(3-fluorophenyl)-1,2-dihydropyrimido[1,2-a]benzimidazole-3-carbonitrile
  Mrv0541 01302309533D              68.95000

 35 38  0  0  0  0            999 V2000
    0.5929    7.4746    0.2647 C   0  0  0  0  0  0  0  0  0  0  0  0
    1.2597    6.4910    2.1663 N   0  0  0  0  0  0  0  0  0  0  0  0
    1.3306    7.6175    1.4454 C   0  0  0  0  0  0  0  0  0  0  0  0
    2.0207    8.8012    1.7550 C   0  0  0  0  0  0  0  0  0  0  0  0
    1.9683    9.8717    0.8393 C   0  0  0  0  0  0  0  0  0  0  0  0
    1.2537    9.7347   -0.3690 C   0  0  0  0  0  0  0  0  0  0  0  0
    0.5669    8.5379   -0.6680 C   0  0  0  0  0  0  0  0  0  0  0  0
   -1.1233    4.2765   -0.3164 C   0  0  0  0  0  0  0  0  0  0  0  0
   -0.6068    3.5680    0.8823 C   0  0  2  0  0  0  0  0  0  0  0  0
    0.1703    4.3958    1.7699 N   0  0  0  0  0  0  0  0  0  0  0  0
    0.4869    5.6690    1.4384 C   0  0  0  0  0  0  0  0  0  0  0  0
    0.0352    6.2360    0.2949 N   0  0  0  0  0  0  0  0  0  0  0  0
   -0.8075    5.5801   -0.5481 C   0  0  0  0  0  0  0  0  0  0  0  0
   -1.9189    3.6283   -1.0985 C   0  0  0  0  0  0  0  0  0  0  0  0
   -2.6186    3.0429   -1.7967 N   0  0  0  0  0  0  0  0  0  0  0  0
    0.1227    2.3004    0.5337 C   0  0  0  0  0  0  0  0  0  0  0  0
   -0.6069    1.0983    0.3442 C   0  0  0  0  0  0  0  0  0  0  0  0
    0.0362   -0.0950   -0.0351 C   0  0  0  0  0  0  0  0  0  0  0  0
    1.4322   -0.1146   -0.2011 C   0  0  0  0  0  0  0  0  0  0  0  0
    2.1765    1.0617   -0.0054 C   0  0  0  0  0  0  0  0  0  0  0  0
    1.5272    2.2605    0.3460 C   0  0  0  0  0  0  0  0  0  0  0  0
   -0.6621   -1.1793   -0.2372 F   0  0  0  0  0  0  0  0  0  0  0  0
   -1.3564    6.2292   -1.5724 N   0  0  0  0  0  0  0  0  0  0  0  0
    2.5456    8.8856    2.6275 H   0  0  0  0  0  0  0  0  0  0  0  0
    2.4472   10.7508    1.0534 H   0  0  0  0  0  0  0  0  0  0  0  0
    1.2359   10.5106   -1.0355 H   0  0  0  0  0  0  0  0  0  0  0  0
    0.0784    8.4652   -1.5599 H   0  0  0  0  0  0  0  0  0  0  0  0
   -1.4763    3.3041    1.4951 H   0  0  0  0  0  0  0  0  0  0  0  0
    0.4812    4.0336    2.6162 H   0  0  0  0  0  0  0  0  0  0  0  0
   -1.6227    1.0882    0.4707 H   0  0  0  0  0  0  0  0  0  0  0  0
    1.9074   -0.9813   -0.4675 H   0  0  0  0  0  0  0  0  0  0  0  0
    3.1919    1.0453   -0.1237 H   0  0  0  0  0  0  0  0  0  0  0  0
    2.0927    3.1037    0.4626 H   0  0  0  0  0  0  0  0  0  0  0  0
   -1.8931    5.7458   -2.2204 H   0  0  0  0  0  0  0  0  0  0  0  0
   -1.2573    7.1839   -1.6660 H   0  0  0  0  0  0  0  0  0  0  0  0
  1 12  1  0  0  0  0
 11  2  2  0  0  0  0
  2  3  1  0  0  0  0
  1  3  1  0  0  0  0
  3  4  2  0  0  0  0
  4  5  1  0  0  0  0
  5  6  2  0  0  0  0
  6  7  1  0  0  0  0
  1  7  2  0  0  0  0
  8  9  1  0  0  0  0
  9 10  1  0  0  0  0
 10 11  1  0  0  0  0
 11 12  1  0  0  0  0
 12 13  1  0  0  0  0
  8 13  2  0  0  0  0
 14 15  3  0  0  0  0
  8 14  1  0  0  0  0
 16 17  2  0  0  0  0
 17 18  1  0  0  0  0
 18 19  2  0  0  0  0
 19 20  1  0  0  0  0
 20 21  2  0  0  0  0
 16 21  1  0  0  0  0
 18 22  1  0  0  0  0
  9 16  1  0  0  0  0
 13 23  1  0  0  0  0
  4 24  1  0  0  0  0
  5 25  1  0  0  0  0
  6 26  1  0  0  0  0
  7 27  1  0  0  0  0
  9 28  1  0  0  0  0
 10 29  1  0  0  0  0
 17 30  1  0  0  0  0
 19 31  1  0  0  0  0
 20 32  1  0  0  0  0
 21 33  1  0  0  0  0
 23 34  1  0  0  0  0
 23 35  1  0  0  0  0
M  END
>  <type>
systematic

$$$$
> 744_AKC_M1573
 6-chloro-3-nitro-2-[(phenylsulfonyl)methyl]imidazo[1,2-b]pyridazine
  Mrv0541 02062315283D              85.20000

 32 34  0  0  0  0            999 V2000
    3.9726   -1.0624   -4.7428 N   0  0  0  0  0  0  0  0  0  0  0  0
    1.2231   -1.2759   -4.5751 C   0  0  0  0  0  0  0  0  0  0  0  0
    1.9086   -1.8151   -5.6810 C   0  0  0  0  0  0  0  0  0  0  0  0
    3.3151   -1.7046   -5.7456 C   0  0  0  0  0  0  0  0  0  0  0  0
    3.3283   -0.5599   -3.7159 N   0  0  0  0  0  0  0  0  0  0  0  0
    1.9905   -0.6455   -3.5849 C   0  0  0  0  0  0  0  0  0  0  0  0
    1.5908   -0.0699   -2.4445 N   0  0  0  0  0  0  0  0  0  0  0  0
    2.7009    0.3973   -1.8407 C   0  0  0  0  0  0  0  0  0  0  0  0
    3.8131    0.1165   -2.6566 C   0  0  0  0  0  0  0  0  0  0  0  0
    2.6564    1.0570   -0.5166 C   0  0  2  0  0  0  0  0  0  0  0  0
    3.5279    0.0877    0.7807 S   0  0  2  0  0  0  0  0  0  0  0  0
    5.0809    0.4934    0.7922 O   0  0  0  0  0  0  0  0  0  0  0  0
    3.4251   -1.4747    0.4236 O   0  0  0  0  0  0  0  0  0  0  0  0
    2.8579    0.3851    2.3981 C   0  0  0  0  0  0  0  0  0  0  0  0
    2.2578    1.6223    2.7182 C   0  0  0  0  0  0  0  0  0  0  0  0
    1.7455    1.8533    4.0078 C   0  0  0  0  0  0  0  0  0  0  0  0
    1.8366    0.8511    4.9900 C   0  0  0  0  0  0  0  0  0  0  0  0
    2.4322   -0.3849    4.6813 C   0  0  0  0  0  0  0  0  0  0  0  0
    2.9377   -0.6181    3.3888 C   0  0  0  0  0  0  0  0  0  0  0  0
    5.0868    0.4520   -2.4718 N   0  3  0  0  0  0  0  0  0  0  0  0
    5.9560   -0.1507   -2.9658 O   0  0  0  0  0  0  0  0  0  0  0  0
    5.4164    1.4732   -1.8000 O   0  5  0  0  0  0  0  0  0  0  0  0
    4.2021   -2.3565   -7.0283 Cl  0  0  0  0  0  0  0  0  0  0  0  0
    0.2071   -1.3393   -4.4920 H   0  0  0  0  0  0  0  0  0  0  0  0
    1.3899   -2.2866   -6.4229 H   0  0  0  0  0  0  0  0  0  0  0  0
    1.6143    1.1584   -0.2061 H   0  0  0  0  0  0  0  0  0  0  0  0
    3.0851    2.0579   -0.5793 H   0  0  0  0  0  0  0  0  0  0  0  0
    2.1889    2.3643    2.0198 H   0  0  0  0  0  0  0  0  0  0  0  0
    1.3084    2.7505    4.2300 H   0  0  0  0  0  0  0  0  0  0  0  0
    1.4690    1.0202    5.9275 H   0  0  0  0  0  0  0  0  0  0  0  0
    2.4985   -1.1143    5.3950 H   0  0  0  0  0  0  0  0  0  0  0  0
    3.3650   -1.5226    3.1781 H   0  0  0  0  0  0  0  0  0  0  0  0
  1  5  1  0  0  0  0
  6  2  1  0  0  0  0
  2  3  2  0  0  0  0
  3  4  1  0  0  0  0
  1  4  2  0  0  0  0
  5  6  1  0  0  0  0
  6  7  2  0  0  0  0
  7  8  1  0  0  0  0
  8  9  2  0  0  0  0
  5  9  1  0  0  0  0
 11 12  2  0  0  0  0
 11 13  2  0  0  0  0
 14 15  2  0  0  0  0
 15 16  1  0  0  0  0
 16 17  2  0  0  0  0
 17 18  1  0  0  0  0
 18 19  2  0  0  0  0
 14 19  1  0  0  0  0
 11 14  1  0  0  0  0
 10 11  1  0  0  0  0
  8 10  1  0  0  0  0
 20 21  2  0  0  0  0
 20 22  1  0  0  0  0
  9 20  1  0  0  0  0
  4 23  1  0  0  0  0
  2 24  1  0  0  0  0
  3 25  1  0  0  0  0
 10 26  1  0  0  0  0
 10 27  1  0  0  0  0
 15 28  1  0  0  0  0
 16 29  1  0  0  0  0
 17 30  1  0  0  0  0
 18 31  1  0  0  0  0
 19 32  1  0  0  0  0
M  CHG  2  20   1  22  -1
M  END
>  <type>
systematic

$$$$
> 745_AKC_j.bjid.2023.102743

  Mrv0541 02062315323D             176.53000

 35 38  0  0  0  0            999 V2000
   -2.2400    4.6486   -0.9522 C   0  0  0  0  0  0  0  0  0  0  0  0
   -2.1480    3.7599    0.3256 C   0  0  2  0  0  0  0  0  0  0  0  0
   -0.6698    3.5952    0.8086 C   0  0  1  0  0  0  0  0  0  0  0  0
    0.0316    2.4969   -0.0248 C   0  0  1  0  0  0  0  0  0  0  0  0
   -0.7293    1.2415   -0.0021 C   0  0  0  0  0  0  0  0  0  0  0  0
   -2.0841    1.3124    0.0051 C   0  0  0  0  0  0  0  0  0  0  0  0
   -2.7699    2.4897   -0.0197 O   0  0  0  0  0  0  0  0  0  0  0  0
   -2.8906    0.0870    0.0513 C   0  0  1  0  0  0  0  0  0  0  0  0
   -4.1333    0.1621    0.9311 C   0  0  1  0  0  0  0  0  0  0  0  0
   -4.2122    0.1768   -0.5048 O   0  0  0  0  0  0  0  0  0  0  0  0
   -2.1987   -1.2406   -0.0116 C   0  0  0  0  0  0  0  0  0  0  0  0
   -2.8948   -2.4762   -0.0675 C   0  0  0  0  0  0  0  0  0  0  0  0
   -2.2020   -3.6989   -0.0404 C   0  0  0  0  0  0  0  0  0  0  0  0
   -0.8012   -3.7053   -0.0068 C   0  0  0  0  0  0  0  0  0  0  0  0
   -0.0956   -2.4915   -0.0021 C   0  0  0  0  0  0  0  0  0  0  0  0
   -0.7778   -1.2473   -0.0011 C   0  0  0  0  0  0  0  0  0  0  0  0
   -0.0686   -0.0044    0.0019 C   0  0  0  0  0  0  0  0  0  0  0  0
    1.1869   -0.0354   -0.0167 O   0  0  0  0  0  0  0  0  0  0  0  0
   -3.0096    4.4082    1.4508 C   0  0  0  0  0  0  0  0  0  0  0  0
   -3.2819    4.7650   -1.2612 H   0  0  0  0  0  0  0  0  0  0  0  0
   -1.8228    5.6426   -0.7728 H   0  0  0  0  0  0  0  0  0  0  0  0
   -1.6976    4.1902   -1.7795 H   0  0  0  0  0  0  0  0  0  0  0  0
   -0.1222    4.5376    0.7342 H   0  0  0  0  0  0  0  0  0  0  0  0
   -0.6522    3.2826    1.8570 H   0  0  0  0  0  0  0  0  0  0  0  0
    0.1359    2.8282   -1.0625 H   0  0  0  0  0  0  0  0  0  0  0  0
    1.0415    2.3705    0.3799 H   0  0  0  0  0  0  0  0  0  0  0  0
   -4.5678   -0.7459    1.3520 H   0  0  0  0  0  0  0  0  0  0  0  0
   -4.4333    1.1175    1.3641 H   0  0  0  0  0  0  0  0  0  0  0  0
   -3.9151   -2.5018   -0.1169 H   0  0  0  0  0  0  0  0  0  0  0  0
   -2.7169   -4.5841   -0.0421 H   0  0  0  0  0  0  0  0  0  0  0  0
   -0.2960   -4.5921    0.0118 H   0  0  0  0  0  0  0  0  0  0  0  0
    0.9255   -2.5303    0.0036 H   0  0  0  0  0  0  0  0  0  0  0  0
   -4.0453    4.5305    1.1237 H   0  0  0  0  0  0  0  0  0  0  0  0
   -2.6169    5.3906    1.7269 H   0  0  0  0  0  0  0  0  0  0  0  0
   -3.0117    3.7750    2.3405 H   0  0  0  0  0  0  0  0  0  0  0  0
  1  2  1  0  0  0  0
  2  3  1  0  0  0  0
  3  4  1  0  0  0  0
  4  5  1  0  0  0  0
  5  6  2  0  0  0  0
  6  7  1  0  0  0  0
  2  7  1  0  0  0  0
  6  8  1  0  0  0  0
  8  9  1  0  0  0  0
  9 10  1  0  0  0  0
  8 10  1  0  0  0  0
  8 11  1  0  0  0  0
 11 12  2  0  0  0  0
 12 13  1  0  0  0  0
 13 14  2  0  0  0  0
 14 15  1  0  0  0  0
 15 16  2  0  0  0  0
 11 16  1  0  0  0  0
 16 17  1  0  0  0  0
  5 17  1  0  0  0  0
 17 18  2  0  0  0  0
  2 19  1  0  0  0  0
  1 20  1  0  0  0  0
  1 21  1  0  0  0  0
  1 22  1  0  0  0  0
  3 23  1  0  0  0  0
  3 24  1  0  0  0  0
  4 25  1  0  0  0  0
  4 26  1  0  0  0  0
  9 27  1  0  0  0  0
  9 28  1  0  0  0  0
 12 29  1  0  0  0  0
 13 30  1  0  0  0  0
 14 31  1  0  0  0  0
 15 32  1  0  0  0  0
 19 33  1  0  0  0  0
 19 34  1  0  0  0  0
 19 35  1  0  0  0  0
M  END
$$$$
> 746_AKC_j.ejmech.2023.115223

  Mrv0541 03062315113D              49.80000

 28 29  0  0  0  0            999 V2000
   -0.9265   -0.7117    0.1588 C   0  0  0  0  0  0  0  0  0  0  0  0
   -1.9893   -1.1009   -0.7074 C   0  0  0  0  0  0  0  0  0  0  0  0
   -1.9222   -0.5298   -1.9965 C   0  0  0  0  0  0  0  0  0  0  0  0
   -0.5233    0.5290   -2.0256 S   0  0  0  0  0  0  0  0  0  0  0  0
   -0.0129    0.2032   -0.3857 C   0  0  0  0  0  0  0  0  0  0  0  0
   -2.8452   -0.6792   -3.1425 C   0  0  2  0  0  0  0  0  0  0  0  0
   -4.0494    0.3052   -3.0776 C   0  0  1  0  0  0  0  0  0  0  0  0
   -5.3898   -0.1842   -2.4429 C   0  0  1  0  0  0  0  0  0  0  0  0
   -3.1037   -2.0108   -0.3196 C   0  0  1  0  0  0  0  0  0  0  0  0
   -4.4787   -1.2801   -0.2147 C   0  0  1  0  0  0  0  0  0  0  0  0
   -5.3958   -1.3938   -1.4688 C   0  0  2  0  0  0  0  0  0  0  0  0
   -0.7699   -1.1356    1.3844 C   0  0  0  0  0  0  0  0  0  0  0  0
   -0.6154   -1.5021    2.4620 N   0  0  0  0  0  0  0  0  0  0  0  0
    1.0622    0.7608    0.2030 N   0  0  0  0  0  0  0  0  0  0  0  0
   -3.1794   -1.7121   -3.2338 H   0  0  0  0  0  0  0  0  0  0  0  0
   -2.2739   -0.4640   -4.0502 H   0  0  0  0  0  0  0  0  0  0  0  0
   -3.7367    1.2261   -2.5754 H   0  0  0  0  0  0  0  0  0  0  0  0
   -4.2783    0.6017   -4.1060 H   0  0  0  0  0  0  0  0  0  0  0  0
   -5.8463    0.6656   -1.9276 H   0  0  0  0  0  0  0  0  0  0  0  0
   -6.0722   -0.4468   -3.2571 H   0  0  0  0  0  0  0  0  0  0  0  0
   -3.1471   -2.8421   -1.0268 H   0  0  0  0  0  0  0  0  0  0  0  0
   -2.8982   -2.4667    0.6498 H   0  0  0  0  0  0  0  0  0  0  0  0
   -5.0214   -1.7290    0.6216 H   0  0  0  0  0  0  0  0  0  0  0  0
   -4.3424   -0.2263    0.0528 H   0  0  0  0  0  0  0  0  0  0  0  0
   -5.1828   -2.3088   -2.0265 H   0  0  0  0  0  0  0  0  0  0  0  0
   -6.4285   -1.4975   -1.1173 H   0  0  0  0  0  0  0  0  0  0  0  0
    1.2714    0.5499    1.1282 H   0  0  0  0  0  0  0  0  0  0  0  0
    1.6238    1.3771   -0.2940 H   0  0  0  0  0  0  0  0  0  0  0  0
  1  2  1  0  0  0  0
  1  5  2  0  0  0  0
  2  3  2  0  0  0  0
  3  4  1  0  0  0  0
  4  5  1  0  0  0  0
  3  6  1  0  0  0  0
  6  7  1  0  0  0  0
  7  8  1  0  0  0  0
  9 10  1  0  0  0  0
 10 11  1  0  0  0  0
 11  8  1  0  0  0  0
  9  2  1  0  0  0  0
  1 12  1  0  0  0  0
 12 13  3  0  0  0  0
  5 14  1  0  0  0  0
  6 15  1  0  0  0  0
  6 16  1  0  0  0  0
  7 17  1  0  0  0  0
  7 18  1  0  0  0  0
  8 19  1  0  0  0  0
  8 20  1  0  0  0  0
  9 21  1  0  0  0  0
  9 22  1  0  0  0  0
 10 23  1  0  0  0  0
 10 24  1  0  0  0  0
 11 25  1  0  0  0  0
 11 26  1  0  0  0  0
 14 27  1  0  0  0  0
 14 28  1  0  0  0  0
M  END
$$$$
> 747_AKC_j.ejmech.2023.115223

  Mrv0541 03062315133D              56.20000

 27 29  0  0  0  0            999 V2000
   -3.0990    1.1444    0.7889 C   0  0  0  0  0  0  0  0  0  0  0  0
   -3.3404    2.2530    1.6283 C   0  0  0  0  0  0  0  0  0  0  0  0
   -2.2035    2.8570    2.1665 C   0  0  0  0  0  0  0  0  0  0  0  0
   -0.8222    1.9651    1.5669 S   0  0  0  0  0  0  0  0  0  0  0  0
   -1.7433    0.8065    0.6149 C   0  0  0  0  0  0  0  0  0  0  0  0
   -4.0841    0.5011    0.2301 C   0  0  0  0  0  0  0  0  0  0  0  0
   -4.9606   -0.0574   -0.2564 N   0  0  0  0  0  0  0  0  0  0  0  0
   -1.2618   -0.1901   -0.1228 N   0  0  0  0  0  0  0  0  0  0  0  0
   -0.0336   -0.5265   -0.3038 C   0  0  0  0  0  0  0  0  0  0  0  0
    0.3135   -1.5959   -1.1063 C   0  0  0  0  0  0  0  0  0  0  0  0
    0.1607   -3.3627   -2.4782 N   0  0  0  0  0  0  0  0  0  0  0  0
   -0.5517   -2.4393   -1.8117 C   0  0  0  0  0  0  0  0  0  0  0  0
    1.6009   -2.0669   -1.3873 C   0  0  0  0  0  0  0  0  0  0  0  0
    1.4645   -3.1632   -2.2413 C   0  0  0  0  0  0  0  0  0  0  0  0
    2.5865   -3.8677   -2.7129 C   0  0  0  0  0  0  0  0  0  0  0  0
    3.8678   -3.4433   -2.3039 C   0  0  0  0  0  0  0  0  0  0  0  0
    4.0143   -2.3343   -1.4395 C   0  0  0  0  0  0  0  0  0  0  0  0
    2.8776   -1.6366   -0.9741 C   0  0  0  0  0  0  0  0  0  0  0  0
    5.7167   -1.7970   -0.9167 Br  0  0  0  0  0  0  0  0  0  0  0  0
   -4.2798    2.6009    1.8367 H   0  0  0  0  0  0  0  0  0  0  0  0
   -2.1799    3.6650    2.7910 H   0  0  0  0  0  0  0  0  0  0  0  0
    0.6937   -0.0155    0.1365 H   0  0  0  0  0  0  0  0  0  0  0  0
   -0.2119   -4.0606   -3.0401 H   0  0  0  0  0  0  0  0  0  0  0  0
   -1.5708   -2.3734   -1.8259 H   0  0  0  0  0  0  0  0  0  0  0  0
    2.4780   -4.6696   -3.3381 H   0  0  0  0  0  0  0  0  0  0  0  0
    4.6954   -3.9430   -2.6365 H   0  0  0  0  0  0  0  0  0  0  0  0
    2.9860   -0.8362   -0.3501 H   0  0  0  0  0  0  0  0  0  0  0  0
  1  2  1  0  0  0  0
  1  5  2  0  0  0  0
  2  3  2  0  0  0  0
  3  4  1  0  0  0  0
  4  5  1  0  0  0  0
  1  6  1  0  0  0  0
  6  7  3  0  0  0  0
  5  8  1  0  0  0  0
  8  9  2  0  0  0  0
  9 10  1  0  0  0  0
 12 10  2  0  0  0  0
 10 13  1  0  0  0  0
 11 12  1  0  0  0  0
 11 14  1  0  0  0  0
 13 18  2  0  0  0  0
 13 14  1  0  0  0  0
 14 15  2  0  0  0  0
 15 16  1  0  0  0  0
 16 17  2  0  0  0  0
 17 18  1  0  0  0  0
 17 19  1  0  0  0  0
  2 20  1  0  0  0  0
  3 21  1  0  0  0  0
  9 22  1  0  0  0  0
 11 23  1  0  0  0  0
 12 24  1  0  0  0  0
 15 25  1  0  0  0  0
 16 26  1  0  0  0  0
 18 27  1  0  0  0  0
M  END
$$$$
> 748_AKC_j.ejmech.2022.114959

  Mrv0541 03062315213D              72.79000

 38 41  0  0  0  0            999 V2000
    1.4267    2.1210    0.7031 C   0  0  0  0  0  0  0  0  0  0  0  0
    2.5547    1.4267    1.2083 C   0  0  0  0  0  0  0  0  0  0  0  0
    3.5631    2.1045    1.9170 C   0  0  0  0  0  0  0  0  0  0  0  0
    3.4589    3.4877    2.1492 C   0  0  0  0  0  0  0  0  0  0  0  0
    2.3527    4.1991    1.6474 C   0  0  0  0  0  0  0  0  0  0  0  0
    1.3496    3.5267    0.9202 C   0  0  0  0  0  0  0  0  0  0  0  0
    0.2934    4.2319    0.4434 N   0  0  0  0  0  0  0  0  0  0  0  0
   -0.7247    3.6577   -0.2386 C   0  0  0  0  0  0  0  0  0  0  0  0
   -0.7227    2.2702   -0.4544 C   0  0  0  0  0  0  0  0  0  0  0  0
    0.3504    1.4816    0.0276 C   0  0  0  0  0  0  0  0  0  0  0  0
    4.6637    4.2865    3.0292 Cl  0  0  0  0  0  0  0  0  0  0  0  0
    0.3452    0.1232   -0.1004 N   0  0  0  0  0  0  0  0  0  0  0  0
   -0.7169   -0.5601   -0.2052 N   0  0  0  0  0  0  0  0  0  0  0  0
   -0.8454   -1.8215   -0.0097 C   0  0  0  0  0  0  0  0  0  0  0  0
   -1.8187   -3.8031    0.3062 C   0  0  0  0  0  0  0  0  0  0  0  0
   -0.5137   -3.9485    0.5571 N   0  0  0  0  0  0  0  0  0  0  0  0
    0.0937   -2.7609    0.3643 C   0  0  0  0  0  0  0  0  0  0  0  0
   -2.0405   -2.4806   -0.0737 C   0  0  0  0  0  0  0  0  0  0  0  0
   -3.3353   -2.0410   -0.4093 C   0  0  0  0  0  0  0  0  0  0  0  0
   -4.4108   -2.9557   -0.3118 C   0  0  0  0  0  0  0  0  0  0  0  0
   -4.1715   -4.2969    0.0748 C   0  0  0  0  0  0  0  0  0  0  0  0
   -2.8666   -4.7334    0.3864 C   0  0  0  0  0  0  0  0  0  0  0  0
    1.3213   -2.5732    0.5229 O   0  0  0  0  0  0  0  0  0  0  0  0
   -5.6827   -2.5487   -0.6100 O   0  0  0  0  0  0  0  0  0  0  0  0
   -6.4029   -1.9803    0.5028 C   0  0  2  0  0  0  0  0  0  0  0  0
   -5.8077   -0.8445    1.0034 F   0  0  0  0  0  0  0  0  0  0  0  0
   -6.5957   -2.8807    1.5257 F   0  0  0  0  0  0  0  0  0  0  0  0
   -7.6394   -1.6188    0.0353 F   0  0  0  0  0  0  0  0  0  0  0  0
    2.6601    0.4195    1.0745 H   0  0  0  0  0  0  0  0  0  0  0  0
    4.3692    1.5812    2.2674 H   0  0  0  0  0  0  0  0  0  0  0  0
    2.2699    5.2045    1.8216 H   0  0  0  0  0  0  0  0  0  0  0  0
   -1.4942    4.2361   -0.5802 H   0  0  0  0  0  0  0  0  0  0  0  0
   -1.5085    1.8438   -0.9526 H   0  0  0  0  0  0  0  0  0  0  0  0
    1.1852   -0.3509   -0.0182 H   0  0  0  0  0  0  0  0  0  0  0  0
   -0.0780   -4.7687    0.8365 H   0  0  0  0  0  0  0  0  0  0  0  0
   -3.5010   -1.0763   -0.7097 H   0  0  0  0  0  0  0  0  0  0  0  0
   -4.9505   -4.9581    0.1339 H   0  0  0  0  0  0  0  0  0  0  0  0
   -2.6879   -5.6992    0.6672 H   0  0  0  0  0  0  0  0  0  0  0  0
  1  2  2  0  0  0  0
  1  6  1  0  0  0  0
  1 10  1  0  0  0  0
  2  3  1  0  0  0  0
  3  4  2  0  0  0  0
  4  5  1  0  0  0  0
  5  6  2  0  0  0  0
  6  7  1  0  0  0  0
  7  8  2  0  0  0  0
  8  9  1  0  0  0  0
  9 10  2  0  0  0  0
  4 11  1  0  0  0  0
 10 12  1  0  0  0  0
 12 13  1  0  0  0  0
 13 14  2  0  0  0  0
 17 14  1  0  0  0  0
 14 18  1  0  0  0  0
 15 16  1  0  0  0  0
 16 17  1  0  0  0  0
 15 22  2  0  0  0  0
 15 18  1  0  0  0  0
 18 19  2  0  0  0  0
 19 20  1  0  0  0  0
 20 21  2  0  0  0  0
 21 22  1  0  0  0  0
 17 23  2  0  0  0  0
 20 24  1  0  0  0  0
 24 25  1  0  0  0  0
 25 26  1  0  0  0  0
 25 27  1  0  0  0  0
 25 28  1  0  0  0  0
  2 29  1  0  0  0  0
  3 30  1  0  0  0  0
  5 31  1  0  0  0  0
  8 32  1  0  0  0  0
  9 33  1  0  0  0  0
 12 34  1  0  0  0  0
 16 35  1  0  0  0  0
 19 36  1  0  0  0  0
 21 37  1  0  0  0  0
 22 38  1  0  0  0  0
M  END
$$$$
> 749_AKC_pj.2023.15.11

  Mrv1816 03272313503D              86.81000

 57 60  0  0  0  0            999 V2000
   -5.2030    1.7728   -6.3876 O   0  0  0  0  0  0  0  0  0  0  0  0
   -4.7895    0.8905   -5.3522 C   0  0  1  0  0  0  0  0  0  0  0  0
   -3.8027    1.6018   -4.3943 C   0  0  2  0  0  0  0  0  0  0  0  0
   -3.5345    0.8408   -3.1288 N   0  3  1  0  0  0  0  0  0  0  0  0
   -2.7400   -0.4114   -3.3351 C   0  0  2  0  0  0  0  0  0  0  0  0
   -2.6006   -1.2104   -2.0178 C   0  0  2  0  0  0  0  0  0  0  0  0
   -1.9962   -0.3645   -0.9436 N   0  0  2  0  0  0  0  0  0  0  0  0
   -1.7494   -1.1409    0.3139 C   0  0  1  0  0  0  0  0  0  0  0  0
   -0.7085   -0.4969    1.2674 C   0  0  2  0  0  0  0  0  0  0  0  0
    0.6064   -0.0147    0.5907 C   0  0  1  0  0  0  0  0  0  0  0  0
    1.3224   -1.0272   -0.1791 N   0  0  0  0  0  0  0  0  0  0  0  0
    1.6843   -2.2395    0.4144 C   0  0  0  0  0  0  0  0  0  0  0  0
    2.2098   -2.3120    1.7308 C   0  0  0  0  0  0  0  0  0  0  0  0
    2.5360   -3.5484    2.3199 C   0  0  0  0  0  0  0  0  0  0  0  0
    2.3577   -4.7423    1.6005 C   0  0  0  0  0  0  0  0  0  0  0  0
    1.8607   -4.6990    0.2883 C   0  0  0  0  0  0  0  0  0  0  0  0
    1.5309   -3.4603   -0.2951 C   0  0  0  0  0  0  0  0  0  0  0  0
    0.9494   -3.4179   -1.9559 S   0  0  0  0  0  0  0  0  0  0  0  0
    1.4609   -1.8220   -2.4905 C   0  0  0  0  0  0  0  0  0  0  0  0
    1.7442   -1.5963   -3.8506 C   0  0  0  0  0  0  0  0  0  0  0  0
    2.1821   -0.3295   -4.2758 C   0  0  0  0  0  0  0  0  0  0  0  0
    2.3572    0.7262   -3.3510 C   0  0  0  0  0  0  0  0  0  0  0  0
    2.0910    0.4612   -1.9848 C   0  0  0  0  0  0  0  0  0  0  0  0
    1.6144   -0.7948   -1.5266 C   0  0  0  0  0  0  0  0  0  0  0  0
    2.8011    2.0913   -3.7615 C   0  0  1  0  0  0  0  0  0  0  0  0
    3.0212    2.2461   -5.1100 F   0  0  0  0  0  0  0  0  0  0  0  0
    1.8482    3.0167   -3.4086 F   0  0  0  0  0  0  0  0  0  0  0  0
    3.9772    2.4163   -3.1313 F   0  0  0  0  0  0  0  0  0  0  0  0
   -2.7599    0.9074   -0.7375 C   0  0  1  0  0  0  0  0  0  0  0  0
   -2.9233    1.6962   -2.0624 C   0  0  2  0  0  0  0  0  0  0  0  0
   -5.7770    1.2281   -6.9650 H   0  0  0  0  0  0  0  0  0  0  0  0
   -5.6755    0.5589   -4.8049 H   0  0  0  0  0  0  0  0  0  0  0  0
   -4.3151    0.0295   -5.8249 H   0  0  0  0  0  0  0  0  0  0  0  0
   -4.2519    2.5682   -4.1480 H   0  0  0  0  0  0  0  0  0  0  0  0
   -2.8672    1.8015   -4.9262 H   0  0  0  0  0  0  0  0  0  0  0  0
   -4.4468    0.5493   -2.7694 H   0  0  0  0  0  0  0  0  0  0  0  0
   -1.7393   -0.1678   -3.7078 H   0  0  0  0  0  0  0  0  0  0  0  0
   -3.2287   -1.0622   -4.0639 H   0  0  0  0  0  0  0  0  0  0  0  0
   -1.9554   -2.0702   -2.2204 H   0  0  0  0  0  0  0  0  0  0  0  0
   -3.5820   -1.5883   -1.7102 H   0  0  0  0  0  0  0  0  0  0  0  0
   -2.6884   -1.2865    0.8572 H   0  0  0  0  0  0  0  0  0  0  0  0
   -1.3732   -2.1380    0.0700 H   0  0  0  0  0  0  0  0  0  0  0  0
   -0.4668   -1.2193    2.0501 H   0  0  0  0  0  0  0  0  0  0  0  0
   -1.1671    0.3601    1.7642 H   0  0  0  0  0  0  0  0  0  0  0  0
    0.3228    0.8365   -0.0319 H   0  0  0  0  0  0  0  0  0  0  0  0
    1.2698    0.3918    1.3579 H   0  0  0  0  0  0  0  0  0  0  0  0
    2.3704   -1.4625    2.2731 H   0  0  0  0  0  0  0  0  0  0  0  0
    2.9072   -3.5807    3.2729 H   0  0  0  0  0  0  0  0  0  0  0  0
    2.5967   -5.6398    2.0298 H   0  0  0  0  0  0  0  0  0  0  0  0
    1.7466   -5.5686   -0.2370 H   0  0  0  0  0  0  0  0  0  0  0  0
    1.6401   -2.3514   -4.5361 H   0  0  0  0  0  0  0  0  0  0  0  0
    2.3742   -0.1895   -5.2708 H   0  0  0  0  0  0  0  0  0  0  0  0
    2.2549    1.2085   -1.3071 H   0  0  0  0  0  0  0  0  0  0  0  0
   -3.7529    0.6953   -0.3281 H   0  0  0  0  0  0  0  0  0  0  0  0
   -2.2332    1.5519   -0.0315 H   0  0  0  0  0  0  0  0  0  0  0  0
   -3.5659    2.5601   -1.8631 H   0  0  0  0  0  0  0  0  0  0  0  0
   -1.9462    2.0696   -2.3889 H   0  0  0  0  0  0  0  0  0  0  0  0
  1  2  1  0  0  0  0
  2  3  1  0  0  0  0
  3  4  1  0  0  0  0
  4  5  1  0  0  0  0
  5  6  1  0  0  0  0
  6  7  1  0  0  0  0
  7  8  1  0  0  0  0
  8  9  1  0  0  0  0
  9 10  1  0  0  0  0
 10 11  1  0  0  0  0
 11 12  1  0  0  0  0
 12 13  2  0  0  0  0
 13 14  1  0  0  0  0
 14 15  2  0  0  0  0
 15 16  1  0  0  0  0
 16 17  2  0  0  0  0
 12 17  1  0  0  0  0
 17 18  1  0  0  0  0
 18 19  1  0  0  0  0
 19 20  2  0  0  0  0
 20 21  1  0  0  0  0
 21 22  2  0  0  0  0
 22 23  1  0  0  0  0
 23 24  2  0  0  0  0
 11 24  1  0  0  0  0
 19 24  1  0  0  0  0
 22 25  1  0  0  0  0
 25 26  1  0  0  0  0
 25 27  1  0  0  0  0
 25 28  1  0  0  0  0
  7 29  1  0  0  0  0
 29 30  1  0  0  0  0
  4 30  1  0  0  0  0
  1 31  1  0  0  0  0
  2 32  1  0  0  0  0
  2 33  1  0  0  0  0
  3 34  1  0  0  0  0
  3 35  1  0  0  0  0
  4 36  1  0  0  0  0
  5 37  1  0  0  0  0
  5 38  1  0  0  0  0
  6 39  1  0  0  0  0
  6 40  1  0  0  0  0
  8 41  1  0  0  0  0
  8 42  1  0  0  0  0
  9 43  1  0  0  0  0
  9 44  1  0  0  0  0
 10 45  1  0  0  0  0
 10 46  1  0  0  0  0
 13 47  1  0  0  0  0
 14 48  1  0  0  0  0
 15 49  1  0  0  0  0
 16 50  1  0  0  0  0
 20 51  1  0  0  0  0
 21 52  1  0  0  0  0
 23 53  1  0  0  0  0
 29 54  1  0  0  0  0
 29 55  1  0  0  0  0
 30 56  1  0  0  0  0
 30 57  1  0  0  0  0
M  CHG  1   4   1
M  END
>  <type>
common

$$$$
> 750_AKC_S0223523423002222

  Mrv1816 03272313543D              89.03000

 55 58  0  0  0  0            999 V2000
   -2.0832   -0.8577    2.8414 C   0  0  0  0  0  0  0  0  0  0  0  0
   -1.1858   -1.8359    2.3533 C   0  0  0  0  0  0  0  0  0  0  0  0
   -1.2996   -3.1775    2.7957 C   0  0  0  0  0  0  0  0  0  0  0  0
   -2.3238   -3.5524    3.6954 C   0  0  0  0  0  0  0  0  0  0  0  0
   -3.2127   -2.5557    4.1443 C   0  0  0  0  0  0  0  0  0  0  0  0
   -3.1020   -1.2382    3.7282 C   0  0  0  0  0  0  0  0  0  0  0  0
   -4.2966   -2.5654    4.9968 C   0  0  0  0  0  0  0  0  0  0  0  0
   -4.0625   -0.4409    4.2632 O   0  0  0  0  0  0  0  0  0  0  0  0
   -4.7884   -1.2667    5.0434 C   0  0  0  0  0  0  0  0  0  0  0  0
   -0.2093   -1.4666    1.4644 O   0  0  0  0  0  0  0  0  0  0  0  0
   -5.8616   -0.8796    5.7685 C   0  0  0  0  0  0  0  0  0  0  0  0
   -4.7330   -3.5723    5.6038 O   0  0  0  0  0  0  0  0  0  0  0  0
   -6.4657    0.3979    5.8829 C   0  0  0  0  0  0  0  0  0  0  0  0
   -8.2994    1.8034    6.7813 C   0  0  0  0  0  0  0  0  0  0  0  0
   -7.6743    0.5441    6.6342 C   0  0  0  0  0  0  0  0  0  0  0  0
   -5.9456    1.5836    5.2917 C   0  0  0  0  0  0  0  0  0  0  0  0
   -6.5919    2.8329    5.4004 C   0  0  0  0  0  0  0  0  0  0  0  0
   -7.7633    2.9426    6.1646 C   0  0  0  0  0  0  0  0  0  0  0  0
   -8.2700   -0.5141    7.2783 O   0  0  0  0  0  0  0  0  0  0  0  0
   -6.0765    3.9444    4.7870 O   0  0  0  0  0  0  0  0  0  0  0  0
   -6.3819    3.9916    3.3803 C   0  0  0  0  0  0  0  0  0  0  0  0
   -9.3498   -1.1039    6.5311 C   0  0  0  0  0  0  0  0  0  0  0  0
   -0.6791   -1.4043    0.1001 C   0  0  1  0  0  0  0  0  0  0  0  0
    0.3824   -0.7414   -0.8154 C   0  0  2  0  0  0  0  0  0  0  0  0
    0.6563    0.6961   -0.4921 N   0  3  1  0  0  0  0  0  0  0  0  0
    1.7707    1.3070   -1.2729 C   0  0  1  0  0  0  0  0  0  0  0  0
    1.1580    2.4104   -2.1482 C   0  0  1  0  0  0  0  0  0  0  0  0
   -0.0165    2.9023   -1.2977 C   0  0  1  0  0  0  0  0  0  0  0  0
   -0.5110    1.6211   -0.6075 C   0  0  2  0  0  0  0  0  0  0  0  0
   -2.0046    0.1157    2.5460 H   0  0  0  0  0  0  0  0  0  0  0  0
   -0.6403   -3.8828    2.4593 H   0  0  0  0  0  0  0  0  0  0  0  0
   -2.4172   -4.5226    4.0083 H   0  0  0  0  0  0  0  0  0  0  0  0
   -6.2924   -1.6096    6.2901 H   0  0  0  0  0  0  0  0  0  0  0  0
   -9.1551    1.8938    7.3364 H   0  0  0  0  0  0  0  0  0  0  0  0
   -5.0807    1.5817    4.7606 H   0  0  0  0  0  0  0  0  0  0  0  0
   -8.2260    3.8496    6.2713 H   0  0  0  0  0  0  0  0  0  0  0  0
   -5.9397    4.8982    2.9702 H   0  0  0  0  0  0  0  0  0  0  0  0
   -5.9582    3.1389    2.8427 H   0  0  0  0  0  0  0  0  0  0  0  0
   -7.4603    4.0282    3.2076 H   0  0  0  0  0  0  0  0  0  0  0  0
   -9.7560   -1.9230    7.1237 H   0  0  0  0  0  0  0  0  0  0  0  0
  -10.1566   -0.3881    6.3473 H   0  0  0  0  0  0  0  0  0  0  0  0
   -8.9979   -1.5110    5.5796 H   0  0  0  0  0  0  0  0  0  0  0  0
   -0.8710   -2.4142   -0.2702 H   0  0  0  0  0  0  0  0  0  0  0  0
   -1.6141   -0.8407    0.0220 H   0  0  0  0  0  0  0  0  0  0  0  0
    0.0496   -0.8274   -1.8556 H   0  0  0  0  0  0  0  0  0  0  0  0
    1.3128   -1.3115   -0.7230 H   0  0  0  0  0  0  0  0  0  0  0  0
    0.9541    0.7181    0.4861 H   0  0  0  0  0  0  0  0  0  0  0  0
    2.4742    1.7589   -0.5679 H   0  0  0  0  0  0  0  0  0  0  0  0
    2.3235    0.5978   -1.8957 H   0  0  0  0  0  0  0  0  0  0  0  0
    1.8742    3.2092   -2.3525 H   0  0  0  0  0  0  0  0  0  0  0  0
    0.8031    1.9954   -3.0962 H   0  0  0  0  0  0  0  0  0  0  0  0
    0.3377    3.6179   -0.5503 H   0  0  0  0  0  0  0  0  0  0  0  0
   -0.7951    3.3690   -1.9083 H   0  0  0  0  0  0  0  0  0  0  0  0
   -0.9035    1.8514    0.3856 H   0  0  0  0  0  0  0  0  0  0  0  0
   -1.3220    1.1968   -1.2071 H   0  0  0  0  0  0  0  0  0  0  0  0
  1  2  2  0  0  0  0
  2  3  1  0  0  0  0
  3  4  2  0  0  0  0
  4  5  1  0  0  0  0
  5  6  2  0  0  0  0
  1  6  1  0  0  0  0
  8  9  1  0  0  0  0
  7  9  1  0  0  0  0
  6  8  1  0  0  0  0
  7  5  1  0  0  0  0
  2 10  1  0  0  0  0
  9 11  2  0  0  0  0
  7 12  2  0  0  0  0
 11 13  1  0  0  0  0
 14 15  1  0  0  0  0
 16 17  2  0  0  0  0
 17 18  1  0  0  0  0
 14 18  2  0  0  0  0
 15 13  2  0  0  0  0
 13 16  1  0  0  0  0
 15 19  1  0  0  0  0
 17 20  1  0  0  0  0
 20 21  1  0  0  0  0
 19 22  1  0  0  0  0
 10 23  1  0  0  0  0
 23 24  1  0  0  0  0
 24 25  1  0  0  0  0
 26 27  1  0  0  0  0
 27 28  1  0  0  0  0
 28 29  1  0  0  0  0
 25 26  1  0  0  0  0
 25 29  1  0  0  0  0
  1 30  1  0  0  0  0
  3 31  1  0  0  0  0
  4 32  1  0  0  0  0
 11 33  1  0  0  0  0
 14 34  1  0  0  0  0
 16 35  1  0  0  0  0
 18 36  1  0  0  0  0
 21 37  1  0  0  0  0
 21 38  1  0  0  0  0
 21 39  1  0  0  0  0
 22 40  1  0  0  0  0
 22 41  1  0  0  0  0
 22 42  1  0  0  0  0
 23 43  1  0  0  0  0
 23 44  1  0  0  0  0
 24 45  1  0  0  0  0
 24 46  1  0  0  0  0
 25 47  1  0  0  0  0
 26 48  1  0  0  0  0
 26 49  1  0  0  0  0
 27 50  1  0  0  0  0
 27 51  1  0  0  0  0
 28 52  1  0  0  0  0
 28 53  1  0  0  0  0
 29 54  1  0  0  0  0
 29 55  1  0  0  0  0
M  CHG  1  25   1
M  END
>  <type>
common

$$$$
> 751_AKC_j.exppara.2023.108498

  Mrv1816 03272314003D              98.38000

 43 46  0  0  0  0            999 V2000
    0.6466   -3.1358    0.8210 C   0  0  0  0  0  0  0  0  0  0  0  0
   -0.5786   -3.8327    0.6090 C   0  0  0  0  0  0  0  0  0  0  0  0
   -0.7535   -5.1720    1.0086 C   0  0  0  0  0  0  0  0  0  0  0  0
    0.2950   -5.8609    1.6323 C   0  0  0  0  0  0  0  0  0  0  0  0
    1.5175   -5.2153    1.8555 C   0  0  0  0  0  0  0  0  0  0  0  0
    1.7003   -3.8695    1.4599 C   0  0  0  0  0  0  0  0  0  0  0  0
    2.9476   -3.2634    1.7072 C   0  0  0  0  0  0  0  0  0  0  0  0
    3.1707   -1.9366    1.3294 C   0  0  0  0  0  0  0  0  0  0  0  0
    2.1536   -1.2042    0.7045 C   0  0  0  0  0  0  0  0  0  0  0  0
    0.8756   -1.7675    0.4349 C   0  0  0  0  0  0  0  0  0  0  0  0
   -0.0869   -0.9605   -0.1998 C   0  0  0  0  0  0  0  0  0  0  0  0
    0.1115    0.2746   -0.5093 N   0  0  0  0  0  0  0  0  0  0  0  0
   -0.7240    0.9711   -1.0833 N   0  0  0  0  0  0  0  0  0  0  0  0
   -0.6651    2.2136   -1.4033 C   0  0  0  0  0  0  0  0  0  0  0  0
    0.2641    3.1746   -1.2492 N   0  0  0  0  0  0  0  0  0  0  0  0
   -0.0437    4.3846   -1.8530 C   0  0  0  0  0  0  0  0  0  0  0  0
   -1.2817    4.4553   -2.5067 C   0  0  0  0  0  0  0  0  0  0  0  0
   -1.9964    2.8808   -2.2733 S   0  0  0  0  0  0  0  0  0  0  0  0
    1.3851    2.9660   -0.5271 C   0  0  0  0  0  0  0  0  0  0  0  0
    0.7541    5.5521   -1.8393 C   0  0  0  0  0  0  0  0  0  0  0  0
    2.6263    3.2314   -0.9555 C   0  0  0  0  0  0  0  0  0  0  0  0
    1.3177    6.0315   -3.0438 C   0  0  0  0  0  0  0  0  0  0  0  0
    2.0974    7.2009   -3.0446 C   0  0  0  0  0  0  0  0  0  0  0  0
    2.3124    7.9048   -1.8458 C   0  0  0  0  0  0  0  0  0  0  0  0
    1.7606    7.4287   -0.6417 C   0  0  0  0  0  0  0  0  0  0  0  0
    0.9908    6.2509   -0.6342 C   0  0  0  0  0  0  0  0  0  0  0  0
   -1.3782   -3.3902    0.1586 H   0  0  0  0  0  0  0  0  0  0  0  0
   -1.6455   -5.6486    0.8450 H   0  0  0  0  0  0  0  0  0  0  0  0
    0.1719   -6.8335    1.9242 H   0  0  0  0  0  0  0  0  0  0  0  0
    2.2724   -5.7388    2.3092 H   0  0  0  0  0  0  0  0  0  0  0  0
    3.7067   -3.7792    2.1624 H   0  0  0  0  0  0  0  0  0  0  0  0
    4.0789   -1.5037    1.5098 H   0  0  0  0  0  0  0  0  0  0  0  0
    2.3734   -0.2382    0.4459 H   0  0  0  0  0  0  0  0  0  0  0  0
   -0.9711   -1.3441   -0.4356 H   0  0  0  0  0  0  0  0  0  0  0  0
   -1.6968    5.2516   -2.9957 H   0  0  0  0  0  0  0  0  0  0  0  0
    1.2917    2.5741    0.3823 H   0  0  0  0  0  0  0  0  0  0  0  0
    2.7850    3.6071   -1.8588 H   0  0  0  0  0  0  0  0  0  0  0  0
    3.4099    3.0490   -0.3737 H   0  0  0  0  0  0  0  0  0  0  0  0
    1.1689    5.5306   -3.9251 H   0  0  0  0  0  0  0  0  0  0  0  0
    2.5038    7.5404   -3.9191 H   0  0  0  0  0  0  0  0  0  0  0  0
    2.8653    8.7655   -1.8513 H   0  0  0  0  0  0  0  0  0  0  0  0
    1.9150    7.9423    0.2288 H   0  0  0  0  0  0  0  0  0  0  0  0
    0.6003    5.9138    0.2508 H   0  0  0  0  0  0  0  0  0  0  0  0
  1  2  1  0  0  0  0
  2  3  2  0  0  0  0
  3  4  1  0  0  0  0
  4  5  2  0  0  0  0
  5  6  1  0  0  0  0
  7  8  2  0  0  0  0
  8  9  1  0  0  0  0
  9 10  2  0  0  0  0
  1  6  2  0  0  0  0
  1 10  1  0  0  0  0
  6  7  1  0  0  0  0
 10 11  1  0  0  0  0
 11 12  2  0  0  0  0
 12 13  1  0  0  0  0
 13 14  2  0  0  0  0
 15 16  1  0  0  0  0
 16 17  2  0  0  0  0
 17 18  1  0  0  0  0
 14 15  1  0  0  0  0
 14 18  1  0  0  0  0
 15 19  1  0  0  0  0
 16 20  1  0  0  0  0
 19 21  2  0  0  0  0
 22 23  2  0  0  0  0
 23 24  1  0  0  0  0
 24 25  2  0  0  0  0
 25 26  1  0  0  0  0
 20 22  1  0  0  0  0
 20 26  2  0  0  0  0
  2 27  1  0  0  0  0
  3 28  1  0  0  0  0
  4 29  1  0  0  0  0
  5 30  1  0  0  0  0
  7 31  1  0  0  0  0
  8 32  1  0  0  0  0
  9 33  1  0  0  0  0
 11 34  1  0  0  0  0
 17 35  1  0  0  0  0
 19 36  1  0  0  0  0
 21 37  1  0  0  0  0
 21 38  1  0  0  0  0
 22 39  1  0  0  0  0
 23 40  1  0  0  0  0
 24 41  1  0  0  0  0
 25 42  1  0  0  0  0
 26 43  1  0  0  0  0
M  END
>  <type>
common

$$$$
> 752_AKC_acs.jmedchem.2c01932

  Mrv1816 03272314043D              92.44000

 48 52  0  0  0  0            999 V2000
    0.5735    5.7420    0.3776 C   0  0  0  0  0  0  0  0  0  0  0  0
    1.5882    6.5106    0.9879 C   0  0  0  0  0  0  0  0  0  0  0  0
    1.3700    7.8738    1.2558 C   0  0  0  0  0  0  0  0  0  0  0  0
    0.1450    8.4744    0.9134 C   0  0  0  0  0  0  0  0  0  0  0  0
   -0.8665    7.7151    0.2960 C   0  0  0  0  0  0  0  0  0  0  0  0
   -0.6636    6.3471    0.0270 C   0  0  0  0  0  0  0  0  0  0  0  0
   -1.6399    5.6046   -0.5699 N   0  0  0  0  0  0  0  0  0  0  0  0
   -1.5209    4.2775   -0.8585 C   0  0  0  0  0  0  0  0  0  0  0  0
   -0.3132    3.6292   -0.4942 C   0  0  0  0  0  0  0  0  0  0  0  0
    0.7178    4.3727    0.0898 C   0  0  0  0  0  0  0  0  0  0  0  0
    1.7838    3.5858    0.3018 N   0  0  0  0  0  0  0  0  0  0  0  0
    1.4179    2.3680   -0.1251 C   0  0  0  0  0  0  0  0  0  0  0  0
    0.1376    2.3563   -0.5719 N   0  0  0  0  0  0  0  0  0  0  0  0
   -0.4670    1.2014   -0.9802 C   0  0  0  0  0  0  0  0  0  0  0  0
    0.2755    0.0038   -1.0103 C   0  0  0  0  0  0  0  0  0  0  0  0
    1.6248    0.0195   -0.6045 C   0  0  0  0  0  0  0  0  0  0  0  0
    2.2109    1.2097   -0.1356 C   0  0  0  0  0  0  0  0  0  0  0  0
   -2.5982    3.6366   -1.5062 C   0  0  0  0  0  0  0  0  0  0  0  0
   -3.8471    3.5108   -0.8602 C   0  0  0  0  0  0  0  0  0  0  0  0
   -4.8995    2.7887   -1.4616 C   0  0  0  0  0  0  0  0  0  0  0  0
   -4.7172    2.2124   -2.7392 C   0  0  0  0  0  0  0  0  0  0  0  0
   -3.4655    2.3251   -3.3872 C   0  0  0  0  0  0  0  0  0  0  0  0
   -2.4312    3.0736   -2.7909 C   0  0  0  0  0  0  0  0  0  0  0  0
   -3.2411    1.6825   -4.5758 O   0  0  0  0  0  0  0  0  0  0  0  0
   -5.7331    1.4992   -3.3234 O   0  0  0  0  0  0  0  0  0  0  0  0
   -6.0904    2.6412   -0.8000 O   0  0  0  0  0  0  0  0  0  0  0  0
   -6.1208    1.4776    0.0482 C   0  0  0  0  0  0  0  0  0  0  0  0
   -6.5548    2.2976   -4.1945 C   0  0  0  0  0  0  0  0  0  0  0  0
   -2.7464    0.3425   -4.3663 C   0  0  0  0  0  0  0  0  0  0  0  0
    2.4840    6.0877    1.2397 H   0  0  0  0  0  0  0  0  0  0  0  0
    2.1035    8.4300    1.6996 H   0  0  0  0  0  0  0  0  0  0  0  0
   -0.0093    9.4657    1.1112 H   0  0  0  0  0  0  0  0  0  0  0  0
   -1.7485    8.1623    0.0445 H   0  0  0  0  0  0  0  0  0  0  0  0
   -1.4474    1.1771   -1.2539 H   0  0  0  0  0  0  0  0  0  0  0  0
   -0.1616   -0.8683   -1.3219 H   0  0  0  0  0  0  0  0  0  0  0  0
    2.1781   -0.8371   -0.6425 H   0  0  0  0  0  0  0  0  0  0  0  0
    3.1807    1.2284    0.1826 H   0  0  0  0  0  0  0  0  0  0  0  0
   -3.9894    3.9192    0.0687 H   0  0  0  0  0  0  0  0  0  0  0  0
   -1.5363    3.1664   -3.2787 H   0  0  0  0  0  0  0  0  0  0  0  0
   -7.0967    1.4380    0.5320 H   0  0  0  0  0  0  0  0  0  0  0  0
   -5.9890    0.5569   -0.5264 H   0  0  0  0  0  0  0  0  0  0  0  0
   -5.3576    1.5317    0.8289 H   0  0  0  0  0  0  0  0  0  0  0  0
   -7.3294    1.6554   -4.6128 H   0  0  0  0  0  0  0  0  0  0  0  0
   -7.0448    3.1082   -3.6495 H   0  0  0  0  0  0  0  0  0  0  0  0
   -5.9768    2.7129   -5.0241 H   0  0  0  0  0  0  0  0  0  0  0  0
   -2.5964   -0.1227   -5.3389 H   0  0  0  0  0  0  0  0  0  0  0  0
   -1.7852    0.3450   -3.8450 H   0  0  0  0  0  0  0  0  0  0  0  0
   -3.4580   -0.2721   -3.8070 H   0  0  0  0  0  0  0  0  0  0  0  0
  1  2  2  0  0  0  0
  2  3  1  0  0  0  0
  3  4  2  0  0  0  0
  4  5  1  0  0  0  0
  5  6  2  0  0  0  0
  7  8  2  0  0  0  0
  8  9  1  0  0  0  0
  9 10  2  0  0  0  0
  1  6  1  0  0  0  0
  1 10  1  0  0  0  0
  6  7  1  0  0  0  0
 11 12  2  0  0  0  0
  9 13  1  0  0  0  0
 10 11  1  0  0  0  0
 14 15  2  0  0  0  0
 15 16  1  0  0  0  0
 16 17  2  0  0  0  0
 12 17  1  0  0  0  0
 13 14  1  0  0  0  0
 12 13  1  0  0  0  0
 19 20  2  0  0  0  0
 20 21  1  0  0  0  0
 21 22  2  0  0  0  0
 22 23  1  0  0  0  0
 18 19  1  0  0  0  0
 18 23  2  0  0  0  0
  8 18  1  0  0  0  0
 22 24  1  0  0  0  0
 21 25  1  0  0  0  0
 20 26  1  0  0  0  0
 26 27  1  0  0  0  0
 25 28  1  0  0  0  0
 24 29  1  0  0  0  0
  2 30  1  0  0  0  0
  3 31  1  0  0  0  0
  4 32  1  0  0  0  0
  5 33  1  0  0  0  0
 14 34  1  0  0  0  0
 15 35  1  0  0  0  0
 16 36  1  0  0  0  0
 17 37  1  0  0  0  0
 19 38  1  0  0  0  0
 23 39  1  0  0  0  0
 27 40  1  0  0  0  0
 27 41  1  0  0  0  0
 27 42  1  0  0  0  0
 28 43  1  0  0  0  0
 28 44  1  0  0  0  0
 28 45  1  0  0  0  0
 29 46  1  0  0  0  0
 29 47  1  0  0  0  0
 29 48  1  0  0  0  0
M  END
>  <type>
common

$$$$
> 753_AKC_j.ejmech.2023.115310

  Mrv0541 04172314473D              79.87000

 45 47  0  0  0  0            999 V2000
    1.5058    2.3810   -0.1608 C   0  0  0  0  0  0  0  0  0  0  0  0
    2.1000    1.1234   -0.3749 C   0  0  0  0  0  0  0  0  0  0  0  0
    1.3187    0.0335   -0.5831 N   0  0  0  0  0  0  0  0  0  0  0  0
   -0.0366    0.1035   -0.6070 C   0  0  0  0  0  0  0  0  0  0  0  0
   -0.6766    1.3394   -0.4084 C   0  0  0  0  0  0  0  0  0  0  0  0
    0.0934    2.5038   -0.1643 C   0  0  0  0  0  0  0  0  0  0  0  0
   -0.5434    3.7166    0.1067 C   0  0  0  0  0  0  0  0  0  0  0  0
   -1.4555    4.0979   -0.7203 N   0  0  0  0  0  0  0  0  0  0  0  0
   -0.1896    4.4646    1.3124 C   0  0  0  0  0  0  0  0  0  0  0  0
   -2.1844    5.0872   -0.6292 N   0  0  0  0  0  0  0  0  0  0  0  0
   -3.0054    5.5431   -1.5037 C   0  0  0  0  0  0  0  0  0  0  0  0
   -4.0135    6.8612   -1.0727 S   0  0  0  0  0  0  0  0  0  0  0  0
   -3.2973    5.1537   -2.7495 N   0  0  0  0  0  0  0  0  0  0  0  0
   -4.4269    5.7358   -3.2939 C   0  0  0  0  0  0  0  0  0  0  0  0
   -5.1737    6.7386   -2.4852 C   0  0  2  0  0  0  0  0  0  0  0  0
   -2.5179    4.2727   -3.4446 C   0  0  0  0  0  0  0  0  0  0  0  0
   -4.8651    5.3901   -4.4175 O   0  0  0  0  0  0  0  0  0  0  0  0
   -5.4975    8.1334   -3.1270 C   0  0  1  0  0  0  0  0  0  0  0  0
   -2.8223    2.8942   -3.4696 C   0  0  0  0  0  0  0  0  0  0  0  0
   -1.9950    1.9998   -4.1732 C   0  0  0  0  0  0  0  0  0  0  0  0
   -0.8577    2.4717   -4.8530 C   0  0  0  0  0  0  0  0  0  0  0  0
   -0.5448    3.8434   -4.8247 C   0  0  0  0  0  0  0  0  0  0  0  0
   -1.3759    4.7426   -4.1313 C   0  0  0  0  0  0  0  0  0  0  0  0
   -6.4188    8.0261   -4.3802 C   0  0  0  0  0  0  0  0  0  0  0  0
   -6.1551    9.0839   -2.0805 C   0  0  0  0  0  0  0  0  0  0  0  0
    2.1130    3.1889   -0.0035 H   0  0  0  0  0  0  0  0  0  0  0  0
    3.1173    1.0209   -0.3715 H   0  0  0  0  0  0  0  0  0  0  0  0
   -0.5882   -0.7429   -0.7614 H   0  0  0  0  0  0  0  0  0  0  0  0
   -1.6993    1.3761   -0.4199 H   0  0  0  0  0  0  0  0  0  0  0  0
   -0.8028    5.3549    1.4574 H   0  0  0  0  0  0  0  0  0  0  0  0
   -0.3236    3.8242    2.1858 H   0  0  0  0  0  0  0  0  0  0  0  0
    0.8490    4.7913    1.2692 H   0  0  0  0  0  0  0  0  0  0  0  0
   -6.0955    6.2732   -2.1301 H   0  0  0  0  0  0  0  0  0  0  0  0
   -4.5621    8.6021   -3.4480 H   0  0  0  0  0  0  0  0  0  0  0  0
   -3.6425    2.5377   -2.9758 H   0  0  0  0  0  0  0  0  0  0  0  0
   -2.2189    1.0050   -4.1890 H   0  0  0  0  0  0  0  0  0  0  0  0
   -0.2566    1.8193   -5.3625 H   0  0  0  0  0  0  0  0  0  0  0  0
    0.2893    4.1898   -5.3034 H   0  0  0  0  0  0  0  0  0  0  0  0
   -1.1435    5.7399   -4.1245 H   0  0  0  0  0  0  0  0  0  0  0  0
   -5.8682    7.6180   -5.2302 H   0  0  0  0  0  0  0  0  0  0  0  0
   -6.7893    9.0090   -4.6835 H   0  0  0  0  0  0  0  0  0  0  0  0
   -7.2797    7.3849   -4.1723 H   0  0  0  0  0  0  0  0  0  0  0  0
   -5.4648    9.3040   -1.2638 H   0  0  0  0  0  0  0  0  0  0  0  0
   -6.4251   10.0379   -2.5374 H   0  0  0  0  0  0  0  0  0  0  0  0
   -7.0579    8.6298   -1.6646 H   0  0  0  0  0  0  0  0  0  0  0  0
  1  2  1  0  0  0  0
  1  6  2  0  0  0  0
  2  3  2  0  0  0  0
  3  4  1  0  0  0  0
  4  5  2  0  0  0  0
  5  6  1  0  0  0  0
  6  7  1  0  0  0  0
  7  8  2  0  0  0  0
  7  9  1  0  0  0  0
  8 10  1  0  0  0  0
 10 11  2  0  0  0  0
 12 11  1  0  0  0  0
 11 13  1  0  0  0  0
 12 15  1  0  0  0  0
 13 14  1  0  0  0  0
 14 15  1  0  0  0  0
 13 16  1  0  0  0  0
 14 17  2  0  0  0  0
 15 18  1  0  0  0  0
 23 16  1  0  0  0  0
 19 16  2  0  0  0  0
 19 20  1  0  0  0  0
 20 21  2  0  0  0  0
 21 22  1  0  0  0  0
 22 23  2  0  0  0  0
 18 24  1  0  0  0  0
 18 25  1  0  0  0  0
  1 26  1  0  0  0  0
  2 27  1  0  0  0  0
  4 28  1  0  0  0  0
  5 29  1  0  0  0  0
  9 30  1  0  0  0  0
  9 31  1  0  0  0  0
  9 32  1  0  0  0  0
 15 33  1  0  0  0  0
 18 34  1  0  0  0  0
 19 35  1  0  0  0  0
 20 36  1  0  0  0  0
 21 37  1  0  0  0  0
 22 38  1  0  0  0  0
 23 39  1  0  0  0  0
 24 40  1  0  0  0  0
 24 41  1  0  0  0  0
 24 42  1  0  0  0  0
 25 43  1  0  0  0  0
 25 44  1  0  0  0  0
 25 45  1  0  0  0  0
M  END
$$$$
> 754_AKC_j.ejmech.2023.115310

  Mrv0541 04172314483D              78.11000

 45 47  0  0  0  0            999 V2000
    1.3481    2.5198   -0.3359 C   0  0  0  0  0  0  0  0  0  0  0  0
    1.8811    1.2791   -0.7327 C   0  0  0  0  0  0  0  0  0  0  0  0
    1.0510    0.2450   -1.0193 N   0  0  0  0  0  0  0  0  0  0  0  0
   -0.2989    0.3559   -0.9479 C   0  0  0  0  0  0  0  0  0  0  0  0
   -0.8811    1.5763   -0.5582 C   0  0  0  0  0  0  0  0  0  0  0  0
   -0.0553    2.6839   -0.2293 C   0  0  0  0  0  0  0  0  0  0  0  0
   -0.6178    3.8893    0.2007 C   0  0  0  0  0  0  0  0  0  0  0  0
   -1.5820    4.3494   -0.5187 N   0  0  0  0  0  0  0  0  0  0  0  0
   -0.1294    4.5443    1.4154 C   0  0  0  0  0  0  0  0  0  0  0  0
   -2.2810    5.3503   -0.3525 N   0  0  0  0  0  0  0  0  0  0  0  0
   -3.1360    5.8135   -1.1929 C   0  0  0  0  0  0  0  0  0  0  0  0
   -4.1487    7.1286   -0.7422 S   0  0  0  0  0  0  0  0  0  0  0  0
   -3.4704    5.4185   -2.4323 N   0  0  0  0  0  0  0  0  0  0  0  0
   -4.6147    6.0076   -2.9359 C   0  0  0  0  0  0  0  0  0  0  0  0
   -5.4115    6.8947   -2.0514 C   0  0  1  0  0  0  0  0  0  0  0  0
   -2.7371    4.5286   -3.1757 C   0  0  0  0  0  0  0  0  0  0  0  0
   -4.9913    5.8258   -4.1194 O   0  0  0  0  0  0  0  0  0  0  0  0
   -6.7331    6.2356   -1.5211 C   0  0  1  0  0  0  0  0  0  0  0  0
   -3.2577    3.2456   -3.4601 C   0  0  0  0  0  0  0  0  0  0  0  0
   -2.5232    2.3350   -4.2397 C   0  0  0  0  0  0  0  0  0  0  0  0
   -1.2629    2.6999   -4.7454 C   0  0  0  0  0  0  0  0  0  0  0  0
   -0.7258    3.9669   -4.4523 C   0  0  0  0  0  0  0  0  0  0  0  0
   -1.4586    4.8772   -3.6688 C   0  0  0  0  0  0  0  0  0  0  0  0
   -7.4150    7.1078   -0.4284 C   0  0  0  0  0  0  0  0  0  0  0  0
   -7.7570    5.9200   -2.6527 C   0  0  0  0  0  0  0  0  0  0  0  0
    1.9878    3.2937   -0.1363 H   0  0  0  0  0  0  0  0  0  0  0  0
    2.8920    1.1511   -0.8072 H   0  0  0  0  0  0  0  0  0  0  0  0
   -0.8852   -0.4502   -1.1750 H   0  0  0  0  0  0  0  0  0  0  0  0
   -1.9021    1.6419   -0.5053 H   0  0  0  0  0  0  0  0  0  0  0  0
   -0.7539    5.3870    1.7133 H   0  0  0  0  0  0  0  0  0  0  0  0
   -0.1168    3.8338    2.2455 H   0  0  0  0  0  0  0  0  0  0  0  0
    0.8827    4.9227    1.2626 H   0  0  0  0  0  0  0  0  0  0  0  0
   -5.6059    7.8546   -2.5361 H   0  0  0  0  0  0  0  0  0  0  0  0
   -6.4750    5.2794   -1.0538 H   0  0  0  0  0  0  0  0  0  0  0  0
   -4.1730    2.9689   -3.0980 H   0  0  0  0  0  0  0  0  0  0  0  0
   -2.9086    1.4095   -4.4406 H   0  0  0  0  0  0  0  0  0  0  0  0
   -0.7374    2.0436   -5.3251 H   0  0  0  0  0  0  0  0  0  0  0  0
    0.1948    4.2279   -4.8103 H   0  0  0  0  0  0  0  0  0  0  0  0
   -1.0588    5.7959   -3.4624 H   0  0  0  0  0  0  0  0  0  0  0  0
   -6.7642    7.2240    0.4390 H   0  0  0  0  0  0  0  0  0  0  0  0
   -8.3368    6.6373   -0.0801 H   0  0  0  0  0  0  0  0  0  0  0  0
   -7.6548    8.0972   -0.8217 H   0  0  0  0  0  0  0  0  0  0  0  0
   -7.3743    5.1396   -3.3110 H   0  0  0  0  0  0  0  0  0  0  0  0
   -8.6975    5.5536   -2.2347 H   0  0  0  0  0  0  0  0  0  0  0  0
   -7.9684    6.8096   -3.2494 H   0  0  0  0  0  0  0  0  0  0  0  0
  1  2  1  0  0  0  0
  1  6  2  0  0  0  0
  2  3  2  0  0  0  0
  3  4  1  0  0  0  0
  4  5  2  0  0  0  0
  5  6  1  0  0  0  0
  6  7  1  0  0  0  0
  7  8  2  0  0  0  0
  7  9  1  0  0  0  0
  8 10  1  0  0  0  0
 10 11  2  0  0  0  0
 12 11  1  0  0  0  0
 11 13  1  0  0  0  0
 12 15  1  0  0  0  0
 13 14  1  0  0  0  0
 14 15  1  0  0  0  0
 13 16  1  0  0  0  0
 14 17  2  0  0  0  0
 15 18  1  0  0  0  0
 23 16  1  0  0  0  0
 19 16  2  0  0  0  0
 19 20  1  0  0  0  0
 20 21  2  0  0  0  0
 21 22  1  0  0  0  0
 22 23  2  0  0  0  0
 18 24  1  0  0  0  0
 18 25  1  0  0  0  0
  1 26  1  0  0  0  0
  2 27  1  0  0  0  0
  4 28  1  0  0  0  0
  5 29  1  0  0  0  0
  9 30  1  0  0  0  0
  9 31  1  0  0  0  0
  9 32  1  0  0  0  0
 15 33  1  0  0  0  0
 18 34  1  0  0  0  0
 19 35  1  0  0  0  0
 20 36  1  0  0  0  0
 21 37  1  0  0  0  0
 22 38  1  0  0  0  0
 23 39  1  0  0  0  0
 24 40  1  0  0  0  0
 24 41  1  0  0  0  0
 24 42  1  0  0  0  0
 25 43  1  0  0  0  0
 25 44  1  0  0  0  0
 25 45  1  0  0  0  0
M  END
$$$$
> 755_AKC_D2MD00464J

  Mrv0541 05232308463D              64.15000

 32 34  0  0  0  0            999 V2000
    3.2238   -0.0099   -1.8266 O   0  0  0  0  0  0  0  0  0  0  0  0
    2.5813   -0.5757   -0.6895 C   0  0  1  0  0  0  0  0  0  0  0  0
    1.4996    0.3500   -0.4382 C   0  0  0  0  0  0  0  0  0  0  0  0
    1.5433    1.3462   -1.3356 C   0  0  0  0  0  0  0  0  0  0  0  0
    2.5754    1.1119   -2.1876 C   0  0  0  0  0  0  0  0  0  0  0  0
    2.8898    1.8090   -3.1785 O   0  0  0  0  0  0  0  0  0  0  0  0
    2.1253   -1.8866   -1.0009 O   0  0  0  0  0  0  0  0  0  0  0  0
    0.6574    0.1220    0.5751 N   0  0  0  0  0  0  0  0  0  0  0  0
    0.5515    2.6763   -1.4774 Cl  0  0  0  0  0  0  0  0  0  0  0  0
   -0.3293    1.0072    1.1083 C   0  0  2  0  0  0  0  0  0  0  0  0
   -1.1216    0.3795    2.1803 C   0  0  0  0  0  0  0  0  0  0  0  0
   -0.7786   -0.6839    3.0005 C   0  0  0  0  0  0  0  0  0  0  0  0
   -1.8480   -0.9502    3.7770 N   0  0  0  0  0  0  0  0  0  0  0  0
   -2.7557   -0.0680    3.4722 N   0  0  0  0  0  0  0  0  0  0  0  0
   -2.3631    0.7345    2.5340 N   0  0  0  0  0  0  0  0  0  0  0  0
   -2.0138   -1.9565    4.7078 C   0  0  0  0  0  0  0  0  0  0  0  0
   -3.1691   -1.9935    5.5316 C   0  0  0  0  0  0  0  0  0  0  0  0
   -3.3692   -3.0238    6.4687 C   0  0  0  0  0  0  0  0  0  0  0  0
   -2.4144   -4.0448    6.6038 C   0  0  0  0  0  0  0  0  0  0  0  0
   -1.2614   -4.0316    5.8020 C   0  0  0  0  0  0  0  0  0  0  0  0
   -1.0665   -3.0007    4.8652 C   0  0  0  0  0  0  0  0  0  0  0  0
    3.2735   -0.6116    0.1549 H   0  0  0  0  0  0  0  0  0  0  0  0
    2.9432   -2.3641   -1.2529 H   0  0  0  0  0  0  0  0  0  0  0  0
    0.7407   -0.7415    1.0099 H   0  0  0  0  0  0  0  0  0  0  0  0
   -1.0282    1.2916    0.3213 H   0  0  0  0  0  0  0  0  0  0  0  0
    0.1556    1.9030    1.5049 H   0  0  0  0  0  0  0  0  0  0  0  0
    0.1235   -1.1649    2.9912 H   0  0  0  0  0  0  0  0  0  0  0  0
   -3.8853   -1.2686    5.4581 H   0  0  0  0  0  0  0  0  0  0  0  0
   -4.2097   -3.0328    7.0509 H   0  0  0  0  0  0  0  0  0  0  0  0
   -2.5576   -4.7965    7.2837 H   0  0  0  0  0  0  0  0  0  0  0  0
   -0.5652   -4.7745    5.8972 H   0  0  0  0  0  0  0  0  0  0  0  0
   -0.2234   -3.0339    4.2927 H   0  0  0  0  0  0  0  0  0  0  0  0
  1  2  1  0  0  0  0
  1  5  1  0  0  0  0
  2  3  1  0  0  0  0
  3  4  2  0  0  0  0
  4  5  1  0  0  0  0
  5  6  2  0  0  0  0
  2  7  1  0  0  0  0
  3  8  1  0  0  0  0
  4  9  1  0  0  0  0
  8 10  1  0  0  0  0
 10 11  1  0  0  0  0
 15 11  1  0  0  0  0
 12 11  2  0  0  0  0
 12 13  1  0  0  0  0
 13 14  1  0  0  0  0
 14 15  2  0  0  0  0
 13 16  1  0  0  0  0
 21 16  1  0  0  0  0
 17 16  2  0  0  0  0
 17 18  1  0  0  0  0
 18 19  2  0  0  0  0
 19 20  1  0  0  0  0
 20 21  2  0  0  0  0
  2 22  1  0  0  0  0
  7 23  1  0  0  0  0
  8 24  1  0  0  0  0
 10 25  1  0  0  0  0
 10 26  1  0  0  0  0
 12 27  1  0  0  0  0
 17 28  1  0  0  0  0
 18 29  1  0  0  0  0
 19 30  1  0  0  0  0
 20 31  1  0  0  0  0
 21 32  1  0  0  0  0
M  END
$$$$
> 756_AKC_j.ejmech.2023.115333

  Mrv0541 04172314593D              97.78000

 77 80  0  0  0  0            999 V2000
   -3.1530   -1.5247    0.8316 C   0  0  0  0  0  0  0  0  0  0  0  0
   -4.5327   -1.2591    0.9770 C   0  0  0  0  0  0  0  0  0  0  0  0
   -5.4159   -2.2913    1.3438 C   0  0  0  0  0  0  0  0  0  0  0  0
   -4.9310   -3.5977    1.5687 C   0  0  0  0  0  0  0  0  0  0  0  0
   -3.5633   -3.8763    1.3741 C   0  0  0  0  0  0  0  0  0  0  0  0
   -2.6793   -2.8424    1.0211 C   0  0  0  0  0  0  0  0  0  0  0  0
   -1.3525   -3.1000    0.8761 O   0  0  0  0  0  0  0  0  0  0  0  0
   -0.4367   -2.1433    0.5555 C   0  0  0  0  0  0  0  0  0  0  0  0
   -0.8242   -0.7854    0.3515 C   0  0  0  0  0  0  0  0  0  0  0  0
   -2.2147   -0.5239    0.5080 C   0  0  0  0  0  0  0  0  0  0  0  0
    0.7395   -2.5612    0.4629 O   0  0  0  0  0  0  0  0  0  0  0  0
   -5.7814   -4.5880    1.9814 O   0  0  0  0  0  0  0  0  0  0  0  0
   -5.8993   -4.6337    3.4187 C   0  0  1  0  0  0  0  0  0  0  0  0
   -6.9241   -5.7174    3.8230 C   0  0  2  0  0  0  0  0  0  0  0  0
   -7.0863   -5.8355    5.3614 C   0  0  1  0  0  0  0  0  0  0  0  0
   -8.1048   -6.9224    5.7687 C   0  0  0  0  0  0  0  0  0  0  0  0
    0.0924    0.2473    0.0144 C   0  0  0  0  0  0  0  0  0  0  0  0
   -0.3305    1.6411   -0.1912 C   0  0  0  0  0  0  0  0  0  0  0  0
    1.3363   -0.0650   -0.1161 N   0  0  0  0  0  0  0  0  0  0  0  0
    2.3049    0.7061   -0.4188 O   0  0  0  0  0  0  0  0  0  0  0  0
    3.5540    0.0050   -0.4923 C   0  0  1  0  0  0  0  0  0  0  0  0
    4.6084    1.0635   -0.8833 C   0  0  1  0  0  0  0  0  0  0  0  0
    6.0519    0.5123   -1.0047 C   0  0  1  0  0  0  0  0  0  0  0  0
    7.0488    1.6404   -1.3905 C   0  0  2  0  0  0  0  0  0  0  0  0
    8.5093    1.1406   -1.5267 C   0  0  1  0  0  0  0  0  0  0  0  0
    9.5114    2.2696   -1.8839 C   0  0  1  0  0  0  0  0  0  0  0  0
   10.8284    1.7314   -2.0211 N   0  0  0  0  0  0  0  0  0  0  0  0
   12.8120    1.1497   -1.4996 N   0  0  0  0  0  0  0  0  0  0  0  0
   11.7390    1.7568   -1.0967 N   0  0  0  0  0  0  0  0  0  0  0  0
   11.3247    1.0922   -3.0926 C   0  0  0  0  0  0  0  0  0  0  0  0
   12.6069    0.6993   -2.7466 C   0  0  0  0  0  0  0  0  0  0  0  0
   13.5727   -0.0596   -3.5650 C   0  0  1  0  0  0  0  0  0  0  0  0
   13.4067   -1.5442   -3.4561 N   0  3  2  0  0  0  0  0  0  0  0  0
   13.5934   -2.1105   -2.0871 C   0  0  1  0  0  0  0  0  0  0  0  0
   14.2818   -2.3267   -4.3775 C   0  0  2  0  0  0  0  0  0  0  0  0
   15.1684   -3.2254   -3.4970 C   0  0  2  0  0  0  0  0  0  0  0  0
   14.3045   -3.4641   -2.2542 C   0  0  2  0  0  0  0  0  0  0  0  0
   -4.9031   -0.3175    0.8236 H   0  0  0  0  0  0  0  0  0  0  0  0
   -6.4127   -2.0867    1.4572 H   0  0  0  0  0  0  0  0  0  0  0  0
   -3.2066   -4.8258    1.5074 H   0  0  0  0  0  0  0  0  0  0  0  0
   -2.5758    0.4240    0.3881 H   0  0  0  0  0  0  0  0  0  0  0  0
   -4.9295   -4.8699    3.8704 H   0  0  0  0  0  0  0  0  0  0  0  0
   -6.2441   -3.6673    3.8021 H   0  0  0  0  0  0  0  0  0  0  0  0
   -6.5989   -6.6789    3.4176 H   0  0  0  0  0  0  0  0  0  0  0  0
   -7.8894   -5.4669    3.3755 H   0  0  0  0  0  0  0  0  0  0  0  0
   -6.1208   -6.0784    5.8125 H   0  0  0  0  0  0  0  0  0  0  0  0
   -7.4186   -4.8768    5.7684 H   0  0  0  0  0  0  0  0  0  0  0  0
   -7.7876   -7.8991    5.3986 H   0  0  0  0  0  0  0  0  0  0  0  0
   -9.0913   -6.6916    5.3626 H   0  0  0  0  0  0  0  0  0  0  0  0
   -8.1787   -6.9701    6.8566 H   0  0  0  0  0  0  0  0  0  0  0  0
    0.4923    2.3073   -0.4565 H   0  0  0  0  0  0  0  0  0  0  0  0
   -1.0597    1.6949   -1.0031 H   0  0  0  0  0  0  0  0  0  0  0  0
   -0.7815    2.0349    0.7230 H   0  0  0  0  0  0  0  0  0  0  0  0
    3.8089   -0.4397    0.4760 H   0  0  0  0  0  0  0  0  0  0  0  0
    3.5152   -0.7827   -1.2527 H   0  0  0  0  0  0  0  0  0  0  0  0
    4.3145    1.4995   -1.8435 H   0  0  0  0  0  0  0  0  0  0  0  0
    4.5945    1.8538   -0.1262 H   0  0  0  0  0  0  0  0  0  0  0  0
    6.3548    0.0725   -0.0501 H   0  0  0  0  0  0  0  0  0  0  0  0
    6.0795   -0.2724   -1.7661 H   0  0  0  0  0  0  0  0  0  0  0  0
    7.0123    2.4237   -0.6271 H   0  0  0  0  0  0  0  0  0  0  0  0
    6.7373    2.0810   -2.3425 H   0  0  0  0  0  0  0  0  0  0  0  0
    8.8185    0.6863   -0.5802 H   0  0  0  0  0  0  0  0  0  0  0  0
    8.5472    0.3707   -2.3026 H   0  0  0  0  0  0  0  0  0  0  0  0
    9.2110    2.7641   -2.8129 H   0  0  0  0  0  0  0  0  0  0  0  0
    9.5010    3.0229   -1.0905 H   0  0  0  0  0  0  0  0  0  0  0  0
   10.8532    0.9231   -3.9850 H   0  0  0  0  0  0  0  0  0  0  0  0
   13.4458    0.2488   -4.6091 H   0  0  0  0  0  0  0  0  0  0  0  0
   14.5847    0.2236   -3.2605 H   0  0  0  0  0  0  0  0  0  0  0  0
   12.4429   -1.7516   -3.7330 H   0  0  0  0  0  0  0  0  0  0  0  0
   14.2232   -1.4651   -1.4638 H   0  0  0  0  0  0  0  0  0  0  0  0
   12.6259   -2.2401   -1.5951 H   0  0  0  0  0  0  0  0  0  0  0  0
   14.9099   -1.7056   -5.0247 H   0  0  0  0  0  0  0  0  0  0  0  0
   13.6435   -2.9443   -5.0173 H   0  0  0  0  0  0  0  0  0  0  0  0
   16.0832   -2.6892   -3.2188 H   0  0  0  0  0  0  0  0  0  0  0  0
   15.4339   -4.1608   -3.9961 H   0  0  0  0  0  0  0  0  0  0  0  0
   13.5768   -4.2618   -2.4357 H   0  0  0  0  0  0  0  0  0  0  0  0
   14.9150   -3.7191   -1.3827 H   0  0  0  0  0  0  0  0  0  0  0  0
  1  2  1  0  0  0  0
  1  6  2  0  0  0  0
  1 10  1  0  0  0  0
  2  3  2  0  0  0  0
  3  4  1  0  0  0  0
  4  5  2  0  0  0  0
  5  6  1  0  0  0  0
  6  7  1  0  0  0  0
  7  8  1  0  0  0  0
  8  9  1  0  0  0  0
  9 10  2  0  0  0  0
  8 11  2  0  0  0  0
  4 12  1  0  0  0  0
 12 13  1  0  0  0  0
 13 14  1  0  0  0  0
 14 15  1  0  0  0  0
 15 16  1  0  0  0  0
  9 17  1  0  0  0  0
 17 18  1  0  0  0  0
 17 19  2  0  0  0  0
 19 20  1  0  0  0  0
 20 21  1  0  0  0  0
 21 22  1  0  0  0  0
 22 23  1  0  0  0  0
 23 24  1  0  0  0  0
 24 25  1  0  0  0  0
 25 26  1  0  0  0  0
 26 27  1  0  0  0  0
 29 27  1  0  0  0  0
 27 30  1  0  0  0  0
 28 29  2  0  0  0  0
 28 31  1  0  0  0  0
 30 31  2  0  0  0  0
 32 33  1  0  0  0  0
 34 33  1  0  0  0  0
 33 35  1  0  0  0  0
 34 37  1  0  0  0  0
 35 36  1  0  0  0  0
 36 37  1  0  0  0  0
 31 32  1  0  0  0  0
  2 38  1  0  0  0  0
  3 39  1  0  0  0  0
  5 40  1  0  0  0  0
 10 41  1  0  0  0  0
 13 42  1  0  0  0  0
 13 43  1  0  0  0  0
 14 44  1  0  0  0  0
 14 45  1  0  0  0  0
 15 46  1  0  0  0  0
 15 47  1  0  0  0  0
 16 48  1  0  0  0  0
 16 49  1  0  0  0  0
 16 50  1  0  0  0  0
 18 51  1  0  0  0  0
 18 52  1  0  0  0  0
 18 53  1  0  0  0  0
 21 54  1  0  0  0  0
 21 55  1  0  0  0  0
 22 56  1  0  0  0  0
 22 57  1  0  0  0  0
 23 58  1  0  0  0  0
 23 59  1  0  0  0  0
 24 60  1  0  0  0  0
 24 61  1  0  0  0  0
 25 62  1  0  0  0  0
 25 63  1  0  0  0  0
 26 64  1  0  0  0  0
 26 65  1  0  0  0  0
 30 66  1  0  0  0  0
 32 67  1  0  0  0  0
 32 68  1  0  0  0  0
 33 69  1  0  0  0  0
 34 70  1  0  0  0  0
 34 71  1  0  0  0  0
 35 72  1  0  0  0  0
 35 73  1  0  0  0  0
 36 74  1  0  0  0  0
 36 75  1  0  0  0  0
 37 76  1  0  0  0  0
 37 77  1  0  0  0  0
M  CHG  1  33   1
M  END
$$$$
> 757_AKC_j.fitote.2023.105499

  Mrv0541 04172315023D              58.74000

 35 37  0  0  0  0            999 V2000
   -0.2832    5.0071   -2.8021 C   0  0  0  0  0  0  0  0  0  0  0  0
    0.5550    6.0786   -3.1746 C   0  0  0  0  0  0  0  0  0  0  0  0
    1.6079    6.4741   -2.3309 C   0  0  0  0  0  0  0  0  0  0  0  0
    1.8298    5.8136   -1.1064 C   0  0  0  0  0  0  0  0  0  0  0  0
    0.9863    4.7431   -0.7076 C   0  0  0  0  0  0  0  0  0  0  0  0
   -0.0815    4.3574   -1.5645 C   0  0  0  0  0  0  0  0  0  0  0  0
   -0.9063    3.3269   -1.2001 O   0  0  0  0  0  0  0  0  0  0  0  0
    1.1547    4.0097    0.4939 C   0  0  0  0  0  0  0  0  0  0  0  0
    0.2967    2.9416    0.8199 C   0  0  0  0  0  0  0  0  0  0  0  0
   -0.7557    2.6021   -0.0506 C   0  0  0  0  0  0  0  0  0  0  0  0
    2.0762    4.2739    1.3016 O   0  0  0  0  0  0  0  0  0  0  0  0
    0.3686    6.7215   -4.3551 O   0  0  0  0  0  0  0  0  0  0  0  0
    2.8758    6.2339   -0.3519 O   0  0  0  0  0  0  0  0  0  0  0  0
   -1.2861    4.5988   -3.6408 O   0  0  0  0  0  0  0  0  0  0  0  0
   -0.8404    3.6069   -4.5848 C   0  0  0  0  0  0  0  0  0  0  0  0
   -1.6383    1.5349    0.2377 C   0  0  0  0  0  0  0  0  0  0  0  0
   -1.1454    0.2253    0.4517 C   0  0  0  0  0  0  0  0  0  0  0  0
   -2.0226   -0.8300    0.7725 C   0  0  0  0  0  0  0  0  0  0  0  0
   -3.4050   -0.5840    0.8889 C   0  0  0  0  0  0  0  0  0  0  0  0
   -3.9034    0.7149    0.6744 C   0  0  0  0  0  0  0  0  0  0  0  0
   -3.0281    1.7662    0.3398 C   0  0  0  0  0  0  0  0  0  0  0  0
   -4.2570   -1.5885    1.2084 O   0  0  0  0  0  0  0  0  0  0  0  0
   -1.5307   -2.0763    0.9741 O   0  0  0  0  0  0  0  0  0  0  0  0
    2.2206    7.2433   -2.6164 H   0  0  0  0  0  0  0  0  0  0  0  0
    0.4327    2.4147    1.6877 H   0  0  0  0  0  0  0  0  0  0  0  0
   -0.2493    7.4535   -4.1483 H   0  0  0  0  0  0  0  0  0  0  0  0
    3.5966    5.6029   -0.5567 H   0  0  0  0  0  0  0  0  0  0  0  0
   -1.6812    3.3470   -5.2279 H   0  0  0  0  0  0  0  0  0  0  0  0
   -0.0356    3.9876   -5.2202 H   0  0  0  0  0  0  0  0  0  0  0  0
   -0.5052    2.6970   -4.0796 H   0  0  0  0  0  0  0  0  0  0  0  0
   -0.1414    0.0301    0.3698 H   0  0  0  0  0  0  0  0  0  0  0  0
   -4.9049    0.8962    0.7624 H   0  0  0  0  0  0  0  0  0  0  0  0
   -3.4107    2.7046    0.1917 H   0  0  0  0  0  0  0  0  0  0  0  0
   -4.5181   -1.9714    0.3455 H   0  0  0  0  0  0  0  0  0  0  0  0
   -1.5580   -2.4983    0.0900 H   0  0  0  0  0  0  0  0  0  0  0  0
  1  2  2  0  0  0  0
  1  6  1  0  0  0  0
  2  3  1  0  0  0  0
  3  4  2  0  0  0  0
  4  5  1  0  0  0  0
  7  6  1  0  0  0  0
  5  6  2  0  0  0  0
  5  8  1  0  0  0  0
  7 10  1  0  0  0  0
  8  9  1  0  0  0  0
  9 10  2  0  0  0  0
  8 11  2  0  0  0  0
  2 12  1  0  0  0  0
  4 13  1  0  0  0  0
  1 14  1  0  0  0  0
 14 15  1  0  0  0  0
 10 16  1  0  0  0  0
 16 17  1  0  0  0  0
 16 21  2  0  0  0  0
 17 18  2  0  0  0  0
 18 19  1  0  0  0  0
 19 20  2  0  0  0  0
 20 21  1  0  0  0  0
 19 22  1  0  0  0  0
 18 23  1  0  0  0  0
  3 24  1  0  0  0  0
  9 25  1  0  0  0  0
 12 26  1  0  0  0  0
 13 27  1  0  0  0  0
 15 28  1  0  0  0  0
 15 29  1  0  0  0  0
 15 30  1  0  0  0  0
 17 31  1  0  0  0  0
 20 32  1  0  0  0  0
 21 33  1  0  0  0  0
 22 34  1  0  0  0  0
 23 35  1  0  0  0  0
M  END
$$$$
> 758_AKC_biom13040637

  Mrv0541 04172315083D              87.10000

 49 52  0  0  0  0            999 V2000
    7.5246   -5.9841    5.6574 C   0  0  0  0  0  0  0  0  0  0  0  0
    8.7220   -6.2508    6.3527 C   0  0  0  0  0  0  0  0  0  0  0  0
    9.2383   -7.5576    6.3939 C   0  0  0  0  0  0  0  0  0  0  0  0
    8.5575   -8.5986    5.7439 C   0  0  0  0  0  0  0  0  0  0  0  0
    7.3588   -8.3389    5.0553 C   0  0  0  0  0  0  0  0  0  0  0  0
    6.8133   -7.0306    5.0027 C   0  0  0  0  0  0  0  0  0  0  0  0
    5.6038   -6.7048    4.3240 C   0  0  0  0  0  0  0  0  0  0  0  0
    5.1866   -5.3509    4.2882 C   0  0  0  0  0  0  0  0  0  0  0  0
    5.9418   -4.3462    4.9323 C   0  0  0  0  0  0  0  0  0  0  0  0
    7.0650   -4.7085    5.6025 N   0  0  0  0  0  0  0  0  0  0  0  0
    4.7750   -7.7427    3.6539 C   0  0  0  0  0  0  0  0  0  0  0  0
    5.5698   -2.9773    4.9027 C   0  0  0  0  0  0  0  0  0  0  0  0
    5.3672   -2.2957    3.6777 C   0  0  0  0  0  0  0  0  0  0  0  0
    5.3964   -2.2592    6.1095 C   0  0  0  0  0  0  0  0  0  0  0  0
    5.0186   -0.9035    6.0923 C   0  0  0  0  0  0  0  0  0  0  0  0
    4.8194   -0.2422    4.8680 C   0  0  0  0  0  0  0  0  0  0  0  0
    4.9826   -0.9376    3.6540 C   0  0  0  0  0  0  0  0  0  0  0  0
    4.7795   -0.2929    2.4608 O   0  0  0  0  0  0  0  0  0  0  0  0
    3.4430   -0.4825    1.9507 C   0  0  1  0  0  0  0  0  0  0  0  0
    3.2874    0.1975    0.5679 C   0  0  1  0  0  0  0  0  0  0  0  0
    1.9491    0.0332    0.0632 N   0  0  0  0  0  0  0  0  0  0  0  0
    1.4892   -0.9814   -0.7123 C   0  0  0  0  0  0  0  0  0  0  0  0
    0.9013    0.8510    0.3122 C   0  0  0  0  0  0  0  0  0  0  0  0
   -0.2044    0.3021   -0.3243 C   0  0  0  0  0  0  0  0  0  0  0  0
    0.1725   -0.8229   -0.9414 N   0  0  0  0  0  0  0  0  0  0  0  0
    0.8913    1.9645    1.0198 N   0  0  0  0  0  0  0  0  0  0  0  0
    0.5905    1.9473    2.1470 O   0  0  0  0  0  0  0  0  0  0  0  0
    1.1732    2.9806    0.5219 O   0  0  0  0  0  0  0  0  0  0  0  0
    2.2595   -2.1087   -1.2748 C   0  0  0  0  0  0  0  0  0  0  0  0
    9.2259   -5.4959    6.8273 H   0  0  0  0  0  0  0  0  0  0  0  0
   10.1112   -7.7516    6.8917 H   0  0  0  0  0  0  0  0  0  0  0  0
    8.9363   -9.5476    5.7693 H   0  0  0  0  0  0  0  0  0  0  0  0
    6.9010   -9.1220    4.5866 H   0  0  0  0  0  0  0  0  0  0  0  0
    4.3264   -5.0916    3.7972 H   0  0  0  0  0  0  0  0  0  0  0  0
    4.4582   -8.4931    4.3808 H   0  0  0  0  0  0  0  0  0  0  0  0
    3.8805   -7.3291    3.1878 H   0  0  0  0  0  0  0  0  0  0  0  0
    5.3560   -8.2329    2.8730 H   0  0  0  0  0  0  0  0  0  0  0  0
    5.5017   -2.7816    2.7885 H   0  0  0  0  0  0  0  0  0  0  0  0
    5.5299   -2.7215    7.0133 H   0  0  0  0  0  0  0  0  0  0  0  0
    4.8863   -0.3996    6.9725 H   0  0  0  0  0  0  0  0  0  0  0  0
    4.5551    0.7458    4.8635 H   0  0  0  0  0  0  0  0  0  0  0  0
    3.2268   -1.5495    1.8353 H   0  0  0  0  0  0  0  0  0  0  0  0
    2.7136   -0.0518    2.6445 H   0  0  0  0  0  0  0  0  0  0  0  0
    3.5267    1.2610    0.6542 H   0  0  0  0  0  0  0  0  0  0  0  0
    4.0102   -0.2318   -0.1318 H   0  0  0  0  0  0  0  0  0  0  0  0
   -1.1507    0.6878   -0.3301 H   0  0  0  0  0  0  0  0  0  0  0  0
    2.9168   -2.5466   -0.5229 H   0  0  0  0  0  0  0  0  0  0  0  0
    1.5886   -2.8873   -1.6417 H   0  0  0  0  0  0  0  0  0  0  0  0
    2.8631   -1.7502   -2.1089 H   0  0  0  0  0  0  0  0  0  0  0  0
  1  2  1  0  0  0  0
  1  6  2  0  0  0  0
  1 10  1  0  0  0  0
  2  3  2  0  0  0  0
  3  4  1  0  0  0  0
  4  5  2  0  0  0  0
  5  6  1  0  0  0  0
  6  7  1  0  0  0  0
  7  8  2  0  0  0  0
  8  9  1  0  0  0  0
  9 10  2  0  0  0  0
  7 11  1  0  0  0  0
  9 12  1  0  0  0  0
 13 12  1  0  0  0  0
 12 14  2  0  0  0  0
 13 17  2  0  0  0  0
 14 15  1  0  0  0  0
 15 16  2  0  0  0  0
 16 17  1  0  0  0  0
 18 19  1  0  0  0  0
 19 20  1  0  0  0  0
 20 21  1  0  0  0  0
 22 21  1  0  0  0  0
 21 23  1  0  0  0  0
 22 25  2  0  0  0  0
 23 24  2  0  0  0  0
 24 25  1  0  0  0  0
 23 26  1  0  0  0  0
 26 27  2  0  0  0  0
 26 28  2  0  0  0  0
 22 29  1  0  0  0  0
 17 18  1  0  0  0  0
  2 30  1  0  0  0  0
  3 31  1  0  0  0  0
  4 32  1  0  0  0  0
  5 33  1  0  0  0  0
  8 34  1  0  0  0  0
 11 35  1  0  0  0  0
 11 36  1  0  0  0  0
 11 37  1  0  0  0  0
 13 38  1  0  0  0  0
 14 39  1  0  0  0  0
 15 40  1  0  0  0  0
 16 41  1  0  0  0  0
 19 42  1  0  0  0  0
 19 43  1  0  0  0  0
 20 44  1  0  0  0  0
 20 45  1  0  0  0  0
 24 46  1  0  0  0  0
 29 47  1  0  0  0  0
 29 48  1  0  0  0  0
 29 49  1  0  0  0  0
M  END
$$$$
> 759_AKC_biom13040637

  Mrv0541 04172315093D              86.74000

 49 52  0  0  0  0            999 V2000
   -1.0297    3.4520   -9.4351 C   0  0  0  0  0  0  0  0  0  0  0  0
    0.1481    3.5306  -10.2048 C   0  0  0  0  0  0  0  0  0  0  0  0
    0.1404    4.2006  -11.4398 C   0  0  0  0  0  0  0  0  0  0  0  0
   -1.0419    4.7916  -11.9133 C   0  0  0  0  0  0  0  0  0  0  0  0
   -2.2223    4.7078  -11.1524 C   0  0  0  0  0  0  0  0  0  0  0  0
   -2.2415    4.0373   -9.9000 C   0  0  0  0  0  0  0  0  0  0  0  0
   -3.3996    3.9222   -9.0771 C   0  0  0  0  0  0  0  0  0  0  0  0
   -3.2918    3.2756   -7.8194 C   0  0  0  0  0  0  0  0  0  0  0  0
   -2.0634    2.7231   -7.3965 C   0  0  0  0  0  0  0  0  0  0  0  0
   -0.9963    2.8250   -8.2311 N   0  0  0  0  0  0  0  0  0  0  0  0
   -4.7204    4.4532   -9.5085 C   0  0  0  0  0  0  0  0  0  0  0  0
   -1.9024    2.0797   -6.1376 C   0  0  0  0  0  0  0  0  0  0  0  0
   -2.2668    2.7274   -4.9314 C   0  0  0  0  0  0  0  0  0  0  0  0
   -1.3573    0.7757   -6.0604 C   0  0  0  0  0  0  0  0  0  0  0  0
   -1.1832    0.1371   -4.8164 C   0  0  0  0  0  0  0  0  0  0  0  0
   -1.5244    0.8014   -3.6206 C   0  0  0  0  0  0  0  0  0  0  0  0
   -2.0814    2.0948   -3.6852 C   0  0  0  0  0  0  0  0  0  0  0  0
   -1.3250    0.1925   -2.4060 O   0  0  0  0  0  0  0  0  0  0  0  0
   -0.0078    0.4305   -1.8637 C   0  0  1  0  0  0  0  0  0  0  0  0
    0.1620   -0.2963   -0.5077 C   0  0  1  0  0  0  0  0  0  0  0  0
    1.4931   -0.1033    0.0085 N   0  0  0  0  0  0  0  0  0  0  0  0
    2.5800   -0.8826   -0.2240 C   0  0  0  0  0  0  0  0  0  0  0  0
    1.9034    0.9241    0.7849 C   0  0  0  0  0  0  0  0  0  0  0  0
    3.2649    0.7561    1.0026 C   0  0  0  0  0  0  0  0  0  0  0  0
    3.6644   -0.3559    0.3747 N   0  0  0  0  0  0  0  0  0  0  0  0
    1.1830    1.9209    1.2608 N   0  0  0  0  0  0  0  0  0  0  0  0
    1.1623    2.9494    0.7121 O   0  0  0  0  0  0  0  0  0  0  0  0
    0.5612    1.7849    2.2387 O   0  0  0  0  0  0  0  0  0  0  0  0
    2.6308   -2.1385   -0.9980 C   0  0  0  0  0  0  0  0  0  0  0  0
    1.0160    3.1090   -9.8663 H   0  0  0  0  0  0  0  0  0  0  0  0
    0.9976    4.2593  -11.9917 H   0  0  0  0  0  0  0  0  0  0  0  0
   -1.0431    5.2834  -12.8100 H   0  0  0  0  0  0  0  0  0  0  0  0
   -3.0630    5.1509  -11.5290 H   0  0  0  0  0  0  0  0  0  0  0  0
   -4.1111    3.1932   -7.2113 H   0  0  0  0  0  0  0  0  0  0  0  0
   -5.0467    3.9307  -10.4077 H   0  0  0  0  0  0  0  0  0  0  0  0
   -5.4971    4.3262   -8.7537 H   0  0  0  0  0  0  0  0  0  0  0  0
   -4.6443    5.5183   -9.7254 H   0  0  0  0  0  0  0  0  0  0  0  0
   -2.6582    3.6726   -4.9526 H   0  0  0  0  0  0  0  0  0  0  0  0
   -1.0909    0.2762   -6.9127 H   0  0  0  0  0  0  0  0  0  0  0  0
   -0.8016   -0.8112   -4.7801 H   0  0  0  0  0  0  0  0  0  0  0  0
   -2.3447    2.5803   -2.8229 H   0  0  0  0  0  0  0  0  0  0  0  0
    0.7590    0.0660   -2.5552 H   0  0  0  0  0  0  0  0  0  0  0  0
    0.1500    1.5021   -1.7060 H   0  0  0  0  0  0  0  0  0  0  0  0
   -0.5812    0.0810    0.2003 H   0  0  0  0  0  0  0  0  0  0  0  0
   -0.0429   -1.3609   -0.6425 H   0  0  0  0  0  0  0  0  0  0  0  0
    3.8649    1.3738    1.5522 H   0  0  0  0  0  0  0  0  0  0  0  0
    2.1562   -2.0077   -1.9717 H   0  0  0  0  0  0  0  0  0  0  0  0
    3.6646   -2.4513   -1.1577 H   0  0  0  0  0  0  0  0  0  0  0  0
    2.1100   -2.9230   -0.4465 H   0  0  0  0  0  0  0  0  0  0  0  0
  1  2  1  0  0  0  0
  1  6  2  0  0  0  0
  1 10  1  0  0  0  0
  2  3  2  0  0  0  0
  3  4  1  0  0  0  0
  4  5  2  0  0  0  0
  5  6  1  0  0  0  0
  6  7  1  0  0  0  0
  7  8  2  0  0  0  0
  8  9  1  0  0  0  0
  9 10  2  0  0  0  0
  7 11  1  0  0  0  0
  9 12  1  0  0  0  0
 13 12  1  0  0  0  0
 12 14  2  0  0  0  0
 13 17  2  0  0  0  0
 14 15  1  0  0  0  0
 15 16  2  0  0  0  0
 16 17  1  0  0  0  0
 18 19  1  0  0  0  0
 19 20  1  0  0  0  0
 20 21  1  0  0  0  0
 22 21  1  0  0  0  0
 21 23  1  0  0  0  0
 22 25  2  0  0  0  0
 23 24  2  0  0  0  0
 24 25  1  0  0  0  0
 23 26  1  0  0  0  0
 26 27  2  0  0  0  0
 26 28  2  0  0  0  0
 22 29  1  0  0  0  0
 16 18  1  0  0  0  0
  2 30  1  0  0  0  0
  3 31  1  0  0  0  0
  4 32  1  0  0  0  0
  5 33  1  0  0  0  0
  8 34  1  0  0  0  0
 11 35  1  0  0  0  0
 11 36  1  0  0  0  0
 11 37  1  0  0  0  0
 13 38  1  0  0  0  0
 14 39  1  0  0  0  0
 15 40  1  0  0  0  0
 17 41  1  0  0  0  0
 19 42  1  0  0  0  0
 19 43  1  0  0  0  0
 20 44  1  0  0  0  0
 20 45  1  0  0  0  0
 24 46  1  0  0  0  0
 29 47  1  0  0  0  0
 29 48  1  0  0  0  0
 29 49  1  0  0  0  0
M  END
$$$$
> 760_AKC_2208-2360

  Mrv0541 04172315123D              83.21000

 52 55  0  0  0  0            999 V2000
    4.8004   -9.6464    2.6002 F   0  0  0  0  0  0  0  0  0  0  0  0
    4.7122   -8.8829    1.5448 C   0  0  0  0  0  0  0  0  0  0  0  0
    3.8135   -7.8044    1.5284 C   0  0  0  0  0  0  0  0  0  0  0  0
    3.7081   -6.9925    0.3854 C   0  0  0  0  0  0  0  0  0  0  0  0
    4.4999   -7.2190   -0.7736 C   0  0  0  0  0  0  0  0  0  0  0  0
    5.4083   -8.3129   -0.7163 C   0  0  0  0  0  0  0  0  0  0  0  0
    5.5120   -9.1363    0.4189 C   0  0  0  0  0  0  0  0  0  0  0  0
    4.4219   -6.4146   -1.9681 C   0  0  0  0  0  0  0  0  0  0  0  0
    5.1233   -6.7494   -2.9558 O   0  0  0  0  0  0  0  0  0  0  0  0
    3.5765   -5.1974   -2.1966 C   0  0  2  0  0  0  0  0  0  0  0  0
    3.9496   -4.0058   -1.2635 C   0  0  2  0  0  0  0  0  0  0  0  0
    2.9988   -2.8048   -1.4655 C   0  0  2  0  0  0  0  0  0  0  0  0
    1.5713   -3.2315   -1.2978 N   0  3  1  0  0  0  0  0  0  0  0  0
    0.6131   -2.0851   -1.2146 C   0  0  1  0  0  0  0  0  0  0  0  0
    0.6704   -1.3436    0.1519 C   0  0  1  0  0  0  0  0  0  0  0  0
   -0.3076   -0.2714    0.2060 N   0  0  0  0  0  0  0  0  0  0  0  0
   -0.0661    0.8907   -0.4889 C   0  0  0  0  0  0  0  0  0  0  0  0
    0.9847    1.0969   -1.1420 O   0  0  0  0  0  0  0  0  0  0  0  0
   -0.9735    1.8918   -0.5065 N   0  0  0  0  0  0  0  0  0  0  0  0
   -2.1459    1.8021    0.1623 C   0  0  0  0  0  0  0  0  0  0  0  0
   -3.0685    2.8640    0.0933 C   0  0  0  0  0  0  0  0  0  0  0  0
   -4.2915    2.7796    0.7811 C   0  0  0  0  0  0  0  0  0  0  0  0
   -4.5898    1.6417    1.5507 C   0  0  0  0  0  0  0  0  0  0  0  0
   -3.6707    0.5789    1.6263 C   0  0  0  0  0  0  0  0  0  0  0  0
   -2.4427    0.6420    0.9228 C   0  0  0  0  0  0  0  0  0  0  0  0
   -1.4798   -0.3968    0.9201 C   0  0  0  0  0  0  0  0  0  0  0  0
   -1.7283   -1.4415    1.5722 O   0  0  0  0  0  0  0  0  0  0  0  0
    1.1849   -4.2344   -2.3420 C   0  0  1  0  0  0  0  0  0  0  0  0
    2.0497   -5.5154   -2.2403 C   0  0  2  0  0  0  0  0  0  0  0  0
    3.2296   -7.6082    2.3451 H   0  0  0  0  0  0  0  0  0  0  0  0
    3.0319   -6.2346    0.4317 H   0  0  0  0  0  0  0  0  0  0  0  0
    6.0164   -8.5338   -1.5082 H   0  0  0  0  0  0  0  0  0  0  0  0
    6.1704   -9.9195    0.4211 H   0  0  0  0  0  0  0  0  0  0  0  0
    3.8003   -4.8259   -3.2046 H   0  0  0  0  0  0  0  0  0  0  0  0
    4.9741   -3.6835   -1.4721 H   0  0  0  0  0  0  0  0  0  0  0  0
    3.9097   -4.2848   -0.2125 H   0  0  0  0  0  0  0  0  0  0  0  0
    3.1580   -2.3651   -2.4542 H   0  0  0  0  0  0  0  0  0  0  0  0
    3.2817   -2.0496   -0.7320 H   0  0  0  0  0  0  0  0  0  0  0  0
    1.5124   -3.7191   -0.4002 H   0  0  0  0  0  0  0  0  0  0  0  0
    0.7894   -1.3936   -2.0447 H   0  0  0  0  0  0  0  0  0  0  0  0
   -0.4136   -2.4544   -1.3127 H   0  0  0  0  0  0  0  0  0  0  0  0
    0.5151   -2.0921    0.9349 H   0  0  0  0  0  0  0  0  0  0  0  0
    1.6633   -0.9291    0.3380 H   0  0  0  0  0  0  0  0  0  0  0  0
   -0.7773    2.6930   -1.0169 H   0  0  0  0  0  0  0  0  0  0  0  0
   -2.8548    3.6977   -0.4570 H   0  0  0  0  0  0  0  0  0  0  0  0
   -4.9631    3.5479    0.7243 H   0  0  0  0  0  0  0  0  0  0  0  0
   -5.4781    1.5853    2.0536 H   0  0  0  0  0  0  0  0  0  0  0  0
   -3.9083   -0.2375    2.1941 H   0  0  0  0  0  0  0  0  0  0  0  0
    0.1415   -4.5355   -2.2120 H   0  0  0  0  0  0  0  0  0  0  0  0
    1.2789   -3.8027   -3.3424 H   0  0  0  0  0  0  0  0  0  0  0  0
    1.7254   -6.0667   -1.3593 H   0  0  0  0  0  0  0  0  0  0  0  0
    1.8411   -6.1502   -3.1060 H   0  0  0  0  0  0  0  0  0  0  0  0
  1  2  1  0  0  0  0
  2  3  2  0  0  0  0
  3  4  1  0  0  0  0
  4  5  2  0  0  0  0
  5  6  1  0  0  0  0
  6  7  2  0  0  0  0
  2  7  1  0  0  0  0
  5  8  1  0  0  0  0
  8  9  2  0  0  0  0
  8 10  1  0  0  0  0
 10 11  1  0  0  0  0
 11 12  1  0  0  0  0
 12 13  1  0  0  0  0
 13 14  1  0  0  0  0
 14 15  1  0  0  0  0
 15 16  1  0  0  0  0
 16 17  1  0  0  0  0
 17 18  2  0  0  0  0
 17 19  1  0  0  0  0
 19 20  1  0  0  0  0
 20 21  2  0  0  0  0
 21 22  1  0  0  0  0
 22 23  2  0  0  0  0
 23 24  1  0  0  0  0
 24 25  2  0  0  0  0
 20 25  1  0  0  0  0
 25 26  1  0  0  0  0
 16 26  1  0  0  0  0
 26 27  2  0  0  0  0
 13 28  1  0  0  0  0
 28 29  1  0  0  0  0
 10 29  1  0  0  0  0
  3 30  1  0  0  0  0
  4 31  1  0  0  0  0
  6 32  1  0  0  0  0
  7 33  1  0  0  0  0
 10 34  1  0  0  0  0
 11 35  1  0  0  0  0
 11 36  1  0  0  0  0
 12 37  1  0  0  0  0
 12 38  1  0  0  0  0
 13 39  1  0  0  0  0
 14 40  1  0  0  0  0
 14 41  1  0  0  0  0
 15 42  1  0  0  0  0
 15 43  1  0  0  0  0
 19 44  1  0  0  0  0
 21 45  1  0  0  0  0
 22 46  1  0  0  0  0
 23 47  1  0  0  0  0
 24 48  1  0  0  0  0
 28 49  1  0  0  0  0
 28 50  1  0  0  0  0
 29 51  1  0  0  0  0
 29 52  1  0  0  0  0
M  CHG  1  13   1
M  END
>  <type>
common

$$$$
> 761_AKC_2208-2360

  Mrv0541 04172315133D              73.88000

 41 44  0  0  0  0            999 V2000
   -0.2327    0.0846    1.1825 C   0  0  0  0  0  0  0  0  0  0  0  0
    1.1973   -0.3009    1.0188 N   0  3  1  0  0  0  0  0  0  0  0  0
    1.9950   -0.1509    2.2702 C   0  0  2  0  0  0  0  0  0  0  0  0
    3.4840   -0.4044    1.9541 C   0  0  2  0  0  0  0  0  0  0  0  0
    3.6433   -1.7146    1.3541 N   0  0  0  0  0  0  0  0  0  0  0  0
    2.8726   -1.9954    0.1382 C   0  0  2  0  0  0  0  0  0  0  0  0
    1.3692   -1.6574    0.4131 C   0  0  2  0  0  0  0  0  0  0  0  0
    3.1389   -3.3241   -0.5425 C   0  0  0  0  0  0  0  0  0  0  0  0
    2.0984   -4.2202   -0.9101 C   0  0  0  0  0  0  0  0  0  0  0  0
    2.3643   -5.4262   -1.5789 C   0  0  0  0  0  0  0  0  0  0  0  0
    3.6821   -5.7708   -1.9037 C   0  0  0  0  0  0  0  0  0  0  0  0
    4.7347   -4.9149   -1.5465 C   0  0  0  0  0  0  0  0  0  0  0  0
    4.4827   -3.7067   -0.8518 C   0  0  0  0  0  0  0  0  0  0  0  0
    5.6427   -2.9121   -0.3536 C   0  0  2  0  0  0  0  0  0  0  0  0
    5.6477   -3.0887    1.1241 C   0  0  0  0  0  0  0  0  0  0  0  0
    6.6761   -3.8327    1.7510 C   0  0  0  0  0  0  0  0  0  0  0  0
    6.6071   -4.1321    3.1228 C   0  0  0  0  0  0  0  0  0  0  0  0
    5.5129   -3.6931    3.8838 C   0  0  0  0  0  0  0  0  0  0  0  0
    4.4998   -2.9288    3.2764 C   0  0  0  0  0  0  0  0  0  0  0  0
    4.5767   -2.5750    1.9079 C   0  0  0  0  0  0  0  0  0  0  0  0
   -0.7560   -0.6093    1.8462 H   0  0  0  0  0  0  0  0  0  0  0  0
   -0.3150    1.0933    1.5940 H   0  0  0  0  0  0  0  0  0  0  0  0
   -0.7307    0.0877    0.2095 H   0  0  0  0  0  0  0  0  0  0  0  0
    1.5950    0.3620    0.3495 H   0  0  0  0  0  0  0  0  0  0  0  0
    1.6600   -0.8550    3.0378 H   0  0  0  0  0  0  0  0  0  0  0  0
    1.8960    0.8612    2.6685 H   0  0  0  0  0  0  0  0  0  0  0  0
    4.0691   -0.2705    2.8697 H   0  0  0  0  0  0  0  0  0  0  0  0
    3.8359    0.3518    1.2471 H   0  0  0  0  0  0  0  0  0  0  0  0
    3.1919   -1.2546   -0.6033 H   0  0  0  0  0  0  0  0  0  0  0  0
    0.8300   -1.6784   -0.5394 H   0  0  0  0  0  0  0  0  0  0  0  0
    0.9405   -2.4146    1.0785 H   0  0  0  0  0  0  0  0  0  0  0  0
    1.1204   -4.0198   -0.7033 H   0  0  0  0  0  0  0  0  0  0  0  0
    1.5941   -6.0511   -1.8299 H   0  0  0  0  0  0  0  0  0  0  0  0
    3.8779   -6.6481   -2.3898 H   0  0  0  0  0  0  0  0  0  0  0  0
    5.6911   -5.1980   -1.7764 H   0  0  0  0  0  0  0  0  0  0  0  0
    5.5454   -1.8578   -0.6218 H   0  0  0  0  0  0  0  0  0  0  0  0
    6.5831   -3.2518   -0.7982 H   0  0  0  0  0  0  0  0  0  0  0  0
    7.4747   -4.1758    1.2110 H   0  0  0  0  0  0  0  0  0  0  0  0
    7.3509   -4.6777    3.5630 H   0  0  0  0  0  0  0  0  0  0  0  0
    5.4573   -3.9180    4.8806 H   0  0  0  0  0  0  0  0  0  0  0  0
    3.7064   -2.6237    3.8438 H   0  0  0  0  0  0  0  0  0  0  0  0
  1  2  1  0  0  0  0
  2  3  1  0  0  0  0
  3  4  1  0  0  0  0
  4  5  1  0  0  0  0
  5  6  1  0  0  0  0
  6  7  1  0  0  0  0
  2  7  1  0  0  0  0
  6  8  1  0  0  0  0
  8  9  2  0  0  0  0
  9 10  1  0  0  0  0
 10 11  2  0  0  0  0
 11 12  1  0  0  0  0
 12 13  2  0  0  0  0
  8 13  1  0  0  0  0
 13 14  1  0  0  0  0
 14 15  1  0  0  0  0
 15 16  2  0  0  0  0
 16 17  1  0  0  0  0
 17 18  2  0  0  0  0
 18 19  1  0  0  0  0
 19 20  2  0  0  0  0
  5 20  1  0  0  0  0
 15 20  1  0  0  0  0
  1 21  1  0  0  0  0
  1 22  1  0  0  0  0
  1 23  1  0  0  0  0
  2 24  1  0  0  0  0
  3 25  1  0  0  0  0
  3 26  1  0  0  0  0
  4 27  1  0  0  0  0
  4 28  1  0  0  0  0
  6 29  1  0  0  0  0
  7 30  1  0  0  0  0
  7 31  1  0  0  0  0
  9 32  1  0  0  0  0
 10 33  1  0  0  0  0
 11 34  1  0  0  0  0
 12 35  1  0  0  0  0
 14 36  1  0  0  0  0
 14 37  1  0  0  0  0
 16 38  1  0  0  0  0
 17 39  1  0  0  0  0
 18 40  1  0  0  0  0
 19 41  1  0  0  0  0
M  CHG  1   2   1
M  END
>  <type>
common

$$$$
> 762_AKC_j.rechem.2023.100943

  Mrv0541 05082315133D             108.46000

 49 53  0  0  0  0            999 V2000
    0.2219   -2.5071    0.1826 C   0  0  0  0  0  0  0  0  0  0  0  0
    1.6315   -2.6295    0.3252 C   0  0  0  0  0  0  0  0  0  0  0  0
    2.2714   -3.8824    0.3433 C   0  0  0  0  0  0  0  0  0  0  0  0
    1.5209   -5.0596    0.2086 C   0  0  0  0  0  0  0  0  0  0  0  0
    0.1285   -4.9853    0.0661 C   0  0  0  0  0  0  0  0  0  0  0  0
   -0.5223   -3.7301    0.0687 C   0  0  0  0  0  0  0  0  0  0  0  0
   -1.9288   -3.7031   -0.0300 C   0  0  0  0  0  0  0  0  0  0  0  0
   -2.6061   -2.4827    0.0081 C   0  0  0  0  0  0  0  0  0  0  0  0
   -1.8866   -1.2886    0.1121 C   0  0  0  0  0  0  0  0  0  0  0  0
   -0.4687   -1.2473    0.1614 C   0  0  0  0  0  0  0  0  0  0  0  0
    0.1611    0.0147    0.1861 C   0  0  0  0  0  0  0  0  0  0  0  0
   -0.4955    1.1143    0.0512 N   0  0  0  0  0  0  0  0  0  0  0  0
   -0.0543    2.2653    0.0530 N   0  0  0  0  0  0  0  0  0  0  0  0
   -0.7354    3.3428   -0.1272 C   0  0  0  0  0  0  0  0  0  0  0  0
   -1.4045    5.8292   -0.3093 C   0  0  0  0  0  0  0  0  0  0  0  0
    0.0438    4.8814   -0.0620 S   0  0  0  0  0  0  0  0  0  0  0  0
   -2.0419    3.5660   -0.3579 N   0  0  0  0  0  0  0  0  0  0  0  0
   -2.4361    4.8916   -0.4561 C   0  0  0  0  0  0  0  0  0  0  0  0
   -3.7785    5.3244   -0.6732 C   0  0  0  0  0  0  0  0  0  0  0  0
   -4.4814    4.9456   -1.8416 C   0  0  0  0  0  0  0  0  0  0  0  0
   -5.8457    5.2535   -1.9911 C   0  0  0  0  0  0  0  0  0  0  0  0
   -6.5267    5.9486   -0.9740 C   0  0  0  0  0  0  0  0  0  0  0  0
   -5.8206    6.3907    0.1609 C   0  0  0  0  0  0  0  0  0  0  0  0
   -4.4545    6.0865    0.3078 C   0  0  0  0  0  0  0  0  0  0  0  0
   -2.9637    2.5556   -0.4820 C   0  0  0  0  0  0  0  0  0  0  0  0
   -3.0305    1.7896   -1.6686 C   0  0  0  0  0  0  0  0  0  0  0  0
   -4.0544    0.8400   -1.8474 C   0  0  0  0  0  0  0  0  0  0  0  0
   -5.0087    0.6359   -0.8326 C   0  0  0  0  0  0  0  0  0  0  0  0
   -4.9382    1.3748    0.3629 C   0  0  0  0  0  0  0  0  0  0  0  0
   -3.9168    2.3272    0.5390 C   0  0  0  0  0  0  0  0  0  0  0  0
   -8.1901    6.2338   -1.1045 Cl  0  0  0  0  0  0  0  0  0  0  0  0
    2.2301   -1.8132    0.4320 H   0  0  0  0  0  0  0  0  0  0  0  0
    3.2863   -3.9371    0.4566 H   0  0  0  0  0  0  0  0  0  0  0  0
    1.9828   -5.9725    0.2147 H   0  0  0  0  0  0  0  0  0  0  0  0
   -0.4038   -5.8556   -0.0338 H   0  0  0  0  0  0  0  0  0  0  0  0
   -2.4759   -4.5662   -0.1165 H   0  0  0  0  0  0  0  0  0  0  0  0
   -3.6270   -2.4569   -0.0377 H   0  0  0  0  0  0  0  0  0  0  0  0
   -2.4374   -0.4361    0.1569 H   0  0  0  0  0  0  0  0  0  0  0  0
    1.1437    0.0802    0.3000 H   0  0  0  0  0  0  0  0  0  0  0  0
   -1.4686    6.8483   -0.3456 H   0  0  0  0  0  0  0  0  0  0  0  0
   -4.0091    4.4326   -2.5892 H   0  0  0  0  0  0  0  0  0  0  0  0
   -6.3382    4.9629   -2.8392 H   0  0  0  0  0  0  0  0  0  0  0  0
   -6.2977    6.9259    0.8894 H   0  0  0  0  0  0  0  0  0  0  0  0
   -3.9643    6.4055    1.1476 H   0  0  0  0  0  0  0  0  0  0  0  0
   -2.3456    1.9342   -2.4138 H   0  0  0  0  0  0  0  0  0  0  0  0
   -4.1034    0.2949   -2.7132 H   0  0  0  0  0  0  0  0  0  0  0  0
   -5.7516   -0.0553   -0.9633 H   0  0  0  0  0  0  0  0  0  0  0  0
   -5.6347    1.2268    1.0982 H   0  0  0  0  0  0  0  0  0  0  0  0
   -3.8819    2.8682    1.4074 H   0  0  0  0  0  0  0  0  0  0  0  0
  1  2  1  0  0  0  0
  1  6  2  0  0  0  0
  1 10  1  0  0  0  0
  2  3  2  0  0  0  0
  3  4  1  0  0  0  0
  4  5  2  0  0  0  0
  5  6  1  0  0  0  0
  6  7  1  0  0  0  0
  7  8  2  0  0  0  0
  8  9  1  0  0  0  0
  9 10  2  0  0  0  0
 10 11  1  0  0  0  0
 11 12  2  0  0  0  0
 12 13  1  0  0  0  0
 13 14  2  0  0  0  0
 16 14  1  0  0  0  0
 14 17  1  0  0  0  0
 15 16  1  0  0  0  0
 15 18  2  0  0  0  0
 17 18  1  0  0  0  0
 18 19  1  0  0  0  0
 19 20  1  0  0  0  0
 19 24  2  0  0  0  0
 20 21  2  0  0  0  0
 21 22  1  0  0  0  0
 22 23  2  0  0  0  0
 23 24  1  0  0  0  0
 17 25  1  0  0  0  0
 25 26  1  0  0  0  0
 25 30  2  0  0  0  0
 26 27  2  0  0  0  0
 27 28  1  0  0  0  0
 28 29  2  0  0  0  0
 29 30  1  0  0  0  0
 22 31  1  0  0  0  0
  2 32  1  0  0  0  0
  3 33  1  0  0  0  0
  4 34  1  0  0  0  0
  5 35  1  0  0  0  0
  7 36  1  0  0  0  0
  8 37  1  0  0  0  0
  9 38  1  0  0  0  0
 11 39  1  0  0  0  0
 15 40  1  0  0  0  0
 20 41  1  0  0  0  0
 21 42  1  0  0  0  0
 23 43  1  0  0  0  0
 24 44  1  0  0  0  0
 26 45  1  0  0  0  0
 27 46  1  0  0  0  0
 28 47  1  0  0  0  0
 29 48  1  0  0  0  0
 30 49  1  0  0  0  0
M  END
$$$$
> 763_AKC_acsinfecdis.3c00090

  Mrv1816 05092317123D              83.09000

 48 50  0  0  0  0            999 V2000
    1.5166   -0.0287   -0.0653 C   0  0  0  0  0  0  0  0  0  0  0  0
    0.0779    0.0005   -0.0283 O   0  0  0  0  0  0  0  0  0  0  0  0
   -0.4061    0.6290    1.0888 C   0  0  0  0  0  0  0  0  0  0  0  0
   -0.6316    2.0211    1.0604 C   0  0  0  0  0  0  0  0  0  0  0  0
   -1.1441    2.6864    2.1948 C   0  0  0  0  0  0  0  0  0  0  0  0
   -1.4011    1.9473    3.3703 C   0  0  0  0  0  0  0  0  0  0  0  0
   -1.1461    0.5622    3.4178 C   0  0  0  0  0  0  0  0  0  0  0  0
   -1.3470   -0.1188    4.5906 O   0  0  0  0  0  0  0  0  0  0  0  0
   -0.1628   -0.1639    5.4113 C   0  0  0  0  0  0  0  0  0  0  0  0
   -0.6982   -0.1106    2.2581 C   0  0  0  0  0  0  0  0  0  0  0  0
   -0.5148   -1.4692    2.2794 O   0  0  0  0  0  0  0  0  0  0  0  0
   -1.6955   -2.2075    1.9081 C   0  0  0  0  0  0  0  0  0  0  0  0
   -1.3814    4.0707    2.1608 C   0  0  0  0  0  0  0  0  0  0  0  0
   -2.5833    4.7143    2.4134 C   0  0  0  0  0  0  0  0  0  0  0  0
   -2.3185    6.0691    2.2753 C   0  0  0  0  0  0  0  0  0  0  0  0
   -1.0168    6.2034    1.9672 N   0  0  0  0  0  0  0  0  0  0  0  0
   -0.4606    5.0229    1.8821 O   0  0  0  0  0  0  0  0  0  0  0  0
   -3.2483    7.1132    2.4174 C   0  0  0  0  0  0  0  0  0  0  0  0
   -4.4075    7.1404    1.6099 C   0  0  0  0  0  0  0  0  0  0  0  0
   -5.3462    8.1836    1.7412 C   0  0  0  0  0  0  0  0  0  0  0  0
   -6.4362    8.2213    0.9093 O   0  0  0  0  0  0  0  0  0  0  0  0
   -6.1886    8.9645   -0.3010 C   0  0  0  0  0  0  0  0  0  0  0  0
   -5.1693    9.1647    2.7433 C   0  0  0  0  0  0  0  0  0  0  0  0
   -6.1051   10.1454    2.9279 O   0  0  0  0  0  0  0  0  0  0  0  0
   -7.1407    9.7637    3.8528 C   0  0  0  0  0  0  0  0  0  0  0  0
   -4.0078    9.1462    3.5409 C   0  0  0  0  0  0  0  0  0  0  0  0
   -3.0415    8.1389    3.3661 C   0  0  0  0  0  0  0  0  0  0  0  0
    1.9247   -0.5706    0.7923 H   0  0  0  0  0  0  0  0  0  0  0  0
    1.8218   -0.5495   -0.9735 H   0  0  0  0  0  0  0  0  0  0  0  0
    1.9361    0.9811   -0.0941 H   0  0  0  0  0  0  0  0  0  0  0  0
   -0.4292    2.5373    0.1991 H   0  0  0  0  0  0  0  0  0  0  0  0
   -1.7582    2.4130    4.2102 H   0  0  0  0  0  0  0  0  0  0  0  0
   -0.3981   -0.7299    6.3132 H   0  0  0  0  0  0  0  0  0  0  0  0
    0.6601   -0.6696    4.8981 H   0  0  0  0  0  0  0  0  0  0  0  0
    0.1572    0.8380    5.7124 H   0  0  0  0  0  0  0  0  0  0  0  0
   -1.4614   -3.2731    1.9518 H   0  0  0  0  0  0  0  0  0  0  0  0
   -2.5218   -2.0140    2.5982 H   0  0  0  0  0  0  0  0  0  0  0  0
   -2.0096   -1.9711    0.8874 H   0  0  0  0  0  0  0  0  0  0  0  0
   -3.4803    4.2799    2.6503 H   0  0  0  0  0  0  0  0  0  0  0  0
   -4.5734    6.4103    0.9089 H   0  0  0  0  0  0  0  0  0  0  0  0
   -7.0984    8.9468   -0.9009 H   0  0  0  0  0  0  0  0  0  0  0  0
   -5.9434   10.0082   -0.0875 H   0  0  0  0  0  0  0  0  0  0  0  0
   -5.3841    8.5169   -0.8910 H   0  0  0  0  0  0  0  0  0  0  0  0
   -7.8480   10.5904    3.9320 H   0  0  0  0  0  0  0  0  0  0  0  0
   -7.6879    8.8837    3.5034 H   0  0  0  0  0  0  0  0  0  0  0  0
   -6.7342    9.5675    4.8489 H   0  0  0  0  0  0  0  0  0  0  0  0
   -3.8656    9.8655    4.2522 H   0  0  0  0  0  0  0  0  0  0  0  0
   -2.2001    8.1512    3.9491 H   0  0  0  0  0  0  0  0  0  0  0  0
  1  2  1  0  0  0  0
  2  3  1  0  0  0  0
  3  4  2  0  0  0  0
  4  5  1  0  0  0  0
  5  6  2  0  0  0  0
  6  7  1  0  0  0  0
  7  8  1  0  0  0  0
  8  9  1  0  0  0  0
  7 10  2  0  0  0  0
  3 10  1  0  0  0  0
 10 11  1  0  0  0  0
 11 12  1  0  0  0  0
  5 13  1  0  0  0  0
 13 14  2  0  0  0  0
 14 15  1  0  0  0  0
 15 16  2  0  0  0  0
 16 17  1  0  0  0  0
 13 17  1  0  0  0  0
 15 18  1  0  0  0  0
 18 19  2  0  0  0  0
 19 20  1  0  0  0  0
 20 21  1  0  0  0  0
 21 22  1  0  0  0  0
 20 23  2  0  0  0  0
 23 24  1  0  0  0  0
 24 25  1  0  0  0  0
 23 26  1  0  0  0  0
 26 27  2  0  0  0  0
 18 27  1  0  0  0  0
  1 28  1  0  0  0  0
  1 29  1  0  0  0  0
  1 30  1  0  0  0  0
  4 31  1  0  0  0  0
  6 32  1  0  0  0  0
  9 33  1  0  0  0  0
  9 34  1  0  0  0  0
  9 35  1  0  0  0  0
 12 36  1  0  0  0  0
 12 37  1  0  0  0  0
 12 38  1  0  0  0  0
 14 39  1  0  0  0  0
 19 40  1  0  0  0  0
 22 41  1  0  0  0  0
 22 42  1  0  0  0  0
 22 43  1  0  0  0  0
 25 44  1  0  0  0  0
 25 45  1  0  0  0  0
 25 46  1  0  0  0  0
 26 47  1  0  0  0  0
 27 48  1  0  0  0  0
M  END
$$$$
> 764_AKC_j.ejmech.2023.115451

  Mrv1816 05092317053D              78.13000

 45 48  0  0  0  0            999 V2000
    3.0139    0.6885   -0.4484 O   0  0  0  0  0  0  0  0  0  0  0  0
    3.9576    0.0689   -1.1048 N   0  0  0  0  0  0  0  0  0  0  0  0
    4.0053   -1.2314   -0.7537 C   0  0  0  0  0  0  0  0  0  0  0  0
    2.9894   -1.4260    0.1780 C   0  0  0  0  0  0  0  0  0  0  0  0
    2.3891   -0.1913    0.3657 C   0  0  0  0  0  0  0  0  0  0  0  0
    4.9368   -2.1785   -1.2581 C   0  0  0  0  0  0  0  0  0  0  0  0
    5.7120   -1.8781   -2.4035 C   0  0  0  0  0  0  0  0  0  0  0  0
    6.6316   -2.8085   -2.9220 C   0  0  0  0  0  0  0  0  0  0  0  0
    6.8186   -4.0611   -2.2973 C   0  0  0  0  0  0  0  0  0  0  0  0
    6.0590   -4.3596   -1.1467 C   0  0  0  0  0  0  0  0  0  0  0  0
    5.1320   -3.4346   -0.6365 C   0  0  0  0  0  0  0  0  0  0  0  0
    7.3022   -6.3229   -3.1324 C   0  0  1  0  0  0  0  0  0  0  0  0
    7.7164   -6.6501   -4.5878 C   0  0  2  0  0  0  0  0  0  0  0  0
    9.1492   -6.3448   -4.8012 N   0  3  2  0  0  0  0  0  0  0  0  0
    9.5232   -4.9551   -4.4486 C   0  0  1  0  0  0  0  0  0  0  0  0
    9.1058   -4.6302   -2.9937 C   0  0  1  0  0  0  0  0  0  0  0  0
    7.7173   -4.9781   -2.7880 N   0  0  0  0  0  0  0  0  0  0  0  0
    1.2942    0.1495    1.2882 C   0  0  1  0  0  0  0  0  0  0  0  0
    0.1999    0.7501    0.5763 N   0  0  0  0  0  0  0  0  0  0  0  0
   -0.9038    0.1632    0.0352 C   0  0  0  0  0  0  0  0  0  0  0  0
   -1.6864    1.1220   -0.5062 N   0  0  0  0  0  0  0  0  0  0  0  0
   -1.0816    2.3006   -0.3296 C   0  0  0  0  0  0  0  0  0  0  0  0
    0.1071    2.0727    0.3379 C   0  0  0  0  0  0  0  0  0  0  0  0
   -1.2358   -1.1277   -0.0099 N   0  3  0  0  0  0  0  0  0  0  0  0
   -2.2919   -1.4669   -0.3759 O   0  0  0  0  0  0  0  0  0  0  0  0
   -0.4376   -2.0594    0.3051 O   0  5  0  0  0  0  0  0  0  0  0  0
    2.7334   -2.2985    0.6431 H   0  0  0  0  0  0  0  0  0  0  0  0
    5.6120   -0.9788   -2.8813 H   0  0  0  0  0  0  0  0  0  0  0  0
    7.1619   -2.5675   -3.7620 H   0  0  0  0  0  0  0  0  0  0  0  0
    6.1849   -5.2533   -0.6662 H   0  0  0  0  0  0  0  0  0  0  0  0
    4.6111   -3.6928    0.2021 H   0  0  0  0  0  0  0  0  0  0  0  0
    6.2203   -6.4650   -3.0461 H   0  0  0  0  0  0  0  0  0  0  0  0
    7.7850   -7.0321   -2.4542 H   0  0  0  0  0  0  0  0  0  0  0  0
    7.1078   -6.0698   -5.2864 H   0  0  0  0  0  0  0  0  0  0  0  0
    7.5511   -7.7101   -4.7884 H   0  0  0  0  0  0  0  0  0  0  0  0
    9.3813   -6.5134   -5.7825 H   0  0  0  0  0  0  0  0  0  0  0  0
    9.7014   -6.9839   -4.2244 H   0  0  0  0  0  0  0  0  0  0  0  0
   10.6033   -4.8410   -4.5534 H   0  0  0  0  0  0  0  0  0  0  0  0
    9.0405   -4.2553   -5.1354 H   0  0  0  0  0  0  0  0  0  0  0  0
    9.7189   -5.2154   -2.3042 H   0  0  0  0  0  0  0  0  0  0  0  0
    9.3154   -3.5757   -2.7914 H   0  0  0  0  0  0  0  0  0  0  0  0
    0.9670   -0.7288    1.8488 H   0  0  0  0  0  0  0  0  0  0  0  0
    1.6945    0.8512    2.0255 H   0  0  0  0  0  0  0  0  0  0  0  0
   -1.4374    3.2071   -0.6339 H   0  0  0  0  0  0  0  0  0  0  0  0
    0.7871    2.7917    0.6015 H   0  0  0  0  0  0  0  0  0  0  0  0
  1  2  1  0  0  0  0
  2  3  2  0  0  0  0
  3  4  1  0  0  0  0
  4  5  2  0  0  0  0
  1  5  1  0  0  0  0
  6  7  2  0  0  0  0
  7  8  1  0  0  0  0
  8  9  2  0  0  0  0
  9 10  1  0  0  0  0
 10 11  2  0  0  0  0
  6 11  1  0  0  0  0
 12 13  1  0  0  0  0
 13 14  1  0  0  0  0
 14 15  1  0  0  0  0
 15 16  1  0  0  0  0
 16 17  1  0  0  0  0
 12 17  1  0  0  0  0
  9 17  1  0  0  0  0
  3  6  1  0  0  0  0
 19 20  1  0  0  0  0
 20 21  2  0  0  0  0
 21 22  1  0  0  0  0
 22 23  2  0  0  0  0
 19 23  1  0  0  0  0
 24 25  2  0  0  0  0
 24 26  1  0  0  0  0
 20 24  1  0  0  0  0
 18 19  1  0  0  0  0
  5 18  1  0  0  0  0
  4 27  1  0  0  0  0
  7 28  1  0  0  0  0
  8 29  1  0  0  0  0
 10 30  1  0  0  0  0
 11 31  1  0  0  0  0
 12 32  1  0  0  0  0
 12 33  1  0  0  0  0
 13 34  1  0  0  0  0
 13 35  1  0  0  0  0
 14 36  1  0  0  0  0
 14 37  1  0  0  0  0
 15 38  1  0  0  0  0
 15 39  1  0  0  0  0
 16 40  1  0  0  0  0
 16 41  1  0  0  0  0
 18 42  1  0  0  0  0
 18 43  1  0  0  0  0
 22 44  1  0  0  0  0
 23 45  1  0  0  0  0
M  CHG  3  14   1  24   1  26  -1
M  END
>  <type>
systematic

$$$$
> 765_AKC_j.ejmech.2023.115451

  Mrv1816 05092317063D              93.98000

 51 54  0  0  0  0            999 V2000
    1.8162    7.8915   -1.7798 O   0  0  0  0  0  0  0  0  0  0  0  0
    1.9472    6.9354   -0.9032 N   0  0  0  0  0  0  0  0  0  0  0  0
    2.4741    7.4139    0.2397 C   0  0  0  0  0  0  0  0  0  0  0  0
    2.6642    8.7811    0.0559 C   0  0  0  0  0  0  0  0  0  0  0  0
    2.2434    9.0525   -1.2361 C   0  0  0  0  0  0  0  0  0  0  0  0
    2.2460   10.3473   -1.9315 C   0  0  2  0  0  0  0  0  0  0  0  0
    0.9965   10.5348   -2.6165 N   0  0  0  0  0  0  0  0  0  0  0  0
   -0.1628   11.0880   -2.1657 C   0  0  0  0  0  0  0  0  0  0  0  0
   -1.0776   11.0639   -3.1591 N   0  0  0  0  0  0  0  0  0  0  0  0
   -0.5198   10.4801   -4.2233 C   0  0  0  0  0  0  0  0  0  0  0  0
    0.7777   10.1423   -3.8858 C   0  0  0  0  0  0  0  0  0  0  0  0
   -0.4469   11.5762   -0.9590 N   0  3  0  0  0  0  0  0  0  0  0  0
   -1.4324   12.1700   -0.7581 O   0  0  0  0  0  0  0  0  0  0  0  0
    0.3013   11.4001    0.0458 O   0  5  0  0  0  0  0  0  0  0  0  0
    2.7731    6.6263    1.3791 C   0  0  0  0  0  0  0  0  0  0  0  0
    2.1811    5.3486    1.5371 C   0  0  0  0  0  0  0  0  0  0  0  0
    2.4789    4.5500    2.6544 C   0  0  0  0  0  0  0  0  0  0  0  0
    3.3615    5.0209    3.6457 C   0  0  0  0  0  0  0  0  0  0  0  0
    3.9714    6.2831    3.4897 C   0  0  0  0  0  0  0  0  0  0  0  0
    3.6769    7.0786    2.3703 C   0  0  0  0  0  0  0  0  0  0  0  0
    3.0198    4.6159    6.0124 C   0  0  1  0  0  0  0  0  0  0  0  0
    3.6236    4.2566    4.7476 N   0  0  0  0  0  0  0  0  0  0  0  0
    4.5295    3.1399    4.6324 C   0  0  1  0  0  0  0  0  0  0  0  0
    3.9143    1.7858    5.0622 C   0  0  1  0  0  0  0  0  0  0  0  0
    3.7151    1.7580    6.5477 N   0  3  1  0  0  0  0  0  0  0  0  0
    2.3915    2.2779    7.0240 C   0  0  2  0  0  0  0  0  0  0  0  0
    1.8980    3.6233    6.4179 C   0  0  1  0  0  0  0  0  0  0  0  0
    4.0648    0.4422    7.1590 C   0  0  0  0  0  0  0  0  0  0  0  0
    3.0366    9.4531    0.7309 H   0  0  0  0  0  0  0  0  0  0  0  0
    3.0749   10.3450   -2.6423 H   0  0  0  0  0  0  0  0  0  0  0  0
    2.4435   11.1675   -1.2397 H   0  0  0  0  0  0  0  0  0  0  0  0
   -0.9783   10.3103   -5.1202 H   0  0  0  0  0  0  0  0  0  0  0  0
    1.4446    9.6678   -4.4980 H   0  0  0  0  0  0  0  0  0  0  0  0
    1.5206    4.9847    0.8432 H   0  0  0  0  0  0  0  0  0  0  0  0
    2.0470    3.6271    2.7458 H   0  0  0  0  0  0  0  0  0  0  0  0
    4.6368    6.6275    4.1868 H   0  0  0  0  0  0  0  0  0  0  0  0
    4.1417    7.9860    2.2848 H   0  0  0  0  0  0  0  0  0  0  0  0
    3.7860    4.6628    6.7911 H   0  0  0  0  0  0  0  0  0  0  0  0
    2.5702    5.6156    5.9655 H   0  0  0  0  0  0  0  0  0  0  0  0
    4.8878    3.0261    3.6027 H   0  0  0  0  0  0  0  0  0  0  0  0
    5.4106    3.3500    5.2461 H   0  0  0  0  0  0  0  0  0  0  0  0
    2.9774    1.6034    4.5266 H   0  0  0  0  0  0  0  0  0  0  0  0
    4.6173    1.0118    4.7358 H   0  0  0  0  0  0  0  0  0  0  0  0
    4.4074    2.4058    6.9289 H   0  0  0  0  0  0  0  0  0  0  0  0
    2.4775    2.4252    8.1049 H   0  0  0  0  0  0  0  0  0  0  0  0
    1.6123    1.5273    6.8588 H   0  0  0  0  0  0  0  0  0  0  0  0
    1.2570    4.1127    7.1579 H   0  0  0  0  0  0  0  0  0  0  0  0
    1.2716    3.4197    5.5427 H   0  0  0  0  0  0  0  0  0  0  0  0
    3.9472    0.4746    8.2438 H   0  0  0  0  0  0  0  0  0  0  0  0
    5.1124    0.2062    6.9549 H   0  0  0  0  0  0  0  0  0  0  0  0
    3.4380   -0.3593    6.7606 H   0  0  0  0  0  0  0  0  0  0  0  0
  1  2  1  0  0  0  0
  2  3  2  0  0  0  0
  3  4  1  0  0  0  0
  4  5  2  0  0  0  0
  1  5  1  0  0  0  0
  7  8  1  0  0  0  0
  8  9  2  0  0  0  0
  9 10  1  0  0  0  0
 10 11  2  0  0  0  0
  7 11  1  0  0  0  0
 12 13  2  0  0  0  0
 12 14  1  0  0  0  0
  8 12  1  0  0  0  0
  6  7  1  0  0  0  0
  5  6  1  0  0  0  0
 15 16  2  0  0  0  0
 16 17  1  0  0  0  0
 17 18  2  0  0  0  0
 18 19  1  0  0  0  0
 19 20  2  0  0  0  0
 15 20  1  0  0  0  0
 21 22  1  0  0  0  0
 22 23  1  0  0  0  0
 23 24  1  0  0  0  0
 24 25  1  0  0  0  0
 25 26  1  0  0  0  0
 26 27  1  0  0  0  0
 21 27  1  0  0  0  0
 25 28  1  0  0  0  0
 18 22  1  0  0  0  0
  3 15  1  0  0  0  0
  4 29  1  0  0  0  0
  6 30  1  0  0  0  0
  6 31  1  0  0  0  0
 10 32  1  0  0  0  0
 11 33  1  0  0  0  0
 16 34  1  0  0  0  0
 17 35  1  0  0  0  0
 19 36  1  0  0  0  0
 20 37  1  0  0  0  0
 21 38  1  0  0  0  0
 21 39  1  0  0  0  0
 23 40  1  0  0  0  0
 23 41  1  0  0  0  0
 24 42  1  0  0  0  0
 24 43  1  0  0  0  0
 25 44  1  0  0  0  0
 26 45  1  0  0  0  0
 26 46  1  0  0  0  0
 27 47  1  0  0  0  0
 27 48  1  0  0  0  0
 28 49  1  0  0  0  0
 28 50  1  0  0  0  0
 28 51  1  0  0  0  0
M  CHG  3  12   1  14  -1  25   1
M  END
>  <type>
systematic

$$$$
> 766_AKC_j.ejmech.2023.115451
3-(2-Chloro-3,5-dimethoxyphenyl)-5-((2-nitro-1H-imidazole-1-yl)methyl)isoxazole
  Mrv1816 05092317083D              73.45000

 38 40  0  0  0  0            999 V2000
   -1.0079    2.2358    5.4781 O   0  0  0  0  0  0  0  0  0  0  0  0
   -0.6875    1.1260    4.8660 N   0  0  0  0  0  0  0  0  0  0  0  0
    0.0130    1.4070    3.7531 C   0  0  0  0  0  0  0  0  0  0  0  0
    0.1320    2.7877    3.6698 C   0  0  0  0  0  0  0  0  0  0  0  0
   -0.5180    3.2913    4.7868 C   0  0  0  0  0  0  0  0  0  0  0  0
   -0.6233    4.7022    5.2059 C   0  0  1  0  0  0  0  0  0  0  0  0
    0.5602    5.1185    5.9197 N   0  0  0  0  0  0  0  0  0  0  0  0
    1.4995    6.0626    5.6186 C   0  0  0  0  0  0  0  0  0  0  0  0
    2.4124    6.0971    6.6145 N   0  0  0  0  0  0  0  0  0  0  0  0
    2.0703    5.1918    7.5364 C   0  0  0  0  0  0  0  0  0  0  0  0
    0.9092    4.5798    7.1069 C   0  0  0  0  0  0  0  0  0  0  0  0
    1.6096    6.8672    4.5594 N   0  3  0  0  0  0  0  0  0  0  0  0
    0.8739    6.8484    3.6561 O   0  0  0  0  0  0  0  0  0  0  0  0
    2.5562    7.7107    4.4784 O   0  5  0  0  0  0  0  0  0  0  0  0
    0.5352    0.4604    2.8435 C   0  0  0  0  0  0  0  0  0  0  0  0
    1.4502   -0.5496    3.2434 C   0  0  0  0  0  0  0  0  0  0  0  0
    1.9681   -1.4539    2.2847 C   0  0  0  0  0  0  0  0  0  0  0  0
    1.5223   -1.3921    0.9501 C   0  0  0  0  0  0  0  0  0  0  0  0
    0.6334   -0.3834    0.5395 C   0  0  0  0  0  0  0  0  0  0  0  0
    0.1406    0.5322    1.4877 C   0  0  0  0  0  0  0  0  0  0  0  0
    2.9027   -2.3997    2.6217 O   0  0  0  0  0  0  0  0  0  0  0  0
    4.2524   -1.9150    2.4748 C   0  0  0  0  0  0  0  0  0  0  0  0
    0.2426   -0.2986   -0.7694 O   0  0  0  0  0  0  0  0  0  0  0  0
    1.1022    0.5546   -1.5481 C   0  0  0  0  0  0  0  0  0  0  0  0
    1.9721   -0.6879    4.8560 Cl  0  0  0  0  0  0  0  0  0  0  0  0
    0.6165    3.3196    2.9436 H   0  0  0  0  0  0  0  0  0  0  0  0
   -0.8421    5.3106    4.3297 H   0  0  0  0  0  0  0  0  0  0  0  0
   -1.4810    4.8095    5.8766 H   0  0  0  0  0  0  0  0  0  0  0  0
    2.5761    4.9898    8.4012 H   0  0  0  0  0  0  0  0  0  0  0  0
    0.4096    3.8441    7.6125 H   0  0  0  0  0  0  0  0  0  0  0  0
    1.8582   -2.0746    0.2676 H   0  0  0  0  0  0  0  0  0  0  0  0
   -0.5169    1.2515    1.1766 H   0  0  0  0  0  0  0  0  0  0  0  0
    4.9356   -2.7017    2.7942 H   0  0  0  0  0  0  0  0  0  0  0  0
    4.4773   -1.6704    1.4335 H   0  0  0  0  0  0  0  0  0  0  0  0
    4.4372   -1.0367    3.0991 H   0  0  0  0  0  0  0  0  0  0  0  0
    0.7294    0.5689   -2.5723 H   0  0  0  0  0  0  0  0  0  0  0  0
    1.0966    1.5810   -1.1714 H   0  0  0  0  0  0  0  0  0  0  0  0
    2.1290    0.1795   -1.5662 H   0  0  0  0  0  0  0  0  0  0  0  0
  1  2  1  0  0  0  0
  2  3  2  0  0  0  0
  3  4  1  0  0  0  0
  4  5  2  0  0  0  0
  1  5  1  0  0  0  0
  7  8  1  0  0  0  0
  8  9  2  0  0  0  0
  9 10  1  0  0  0  0
 10 11  2  0  0  0  0
  7 11  1  0  0  0  0
 12 13  2  0  0  0  0
 12 14  1  0  0  0  0
  8 12  1  0  0  0  0
  6  7  1  0  0  0  0
  5  6  1  0  0  0  0
 15 16  2  0  0  0  0
 16 17  1  0  0  0  0
 17 18  2  0  0  0  0
 18 19  1  0  0  0  0
 19 20  2  0  0  0  0
 15 20  1  0  0  0  0
 21 22  1  0  0  0  0
 17 21  1  0  0  0  0
 23 24  1  0  0  0  0
 19 23  1  0  0  0  0
 16 25  1  0  0  0  0
  3 15  1  0  0  0  0
  4 26  1  0  0  0  0
  6 27  1  0  0  0  0
  6 28  1  0  0  0  0
 10 29  1  0  0  0  0
 11 30  1  0  0  0  0
 18 31  1  0  0  0  0
 20 32  1  0  0  0  0
 22 33  1  0  0  0  0
 22 34  1  0  0  0  0
 22 35  1  0  0  0  0
 24 36  1  0  0  0  0
 24 37  1  0  0  0  0
 24 38  1  0  0  0  0
M  CHG  2  12   1  14  -1
M  END
>  <type>
systematic

$$$$
> 767_AKC_j.bioorg.2023.106593
(9H-fluoren-9-yl)methyl-4-(4-(trifluoromethyl)phenyl)piperazine-1-carboxylate
  Mrv0541 05172314513D              97.60000

 56 60  0  0  0  0            999 V2000
    0.0487    1.9033   -3.3461 C   0  0  2  0  0  0  0  0  0  0  0  0
    0.0303    3.3915   -3.7969 C   0  0  2  0  0  0  0  0  0  0  0  0
   -1.3296    3.9307   -3.7626 N   0  0  0  0  0  0  0  0  0  0  0  0
   -1.8548    3.8668   -2.4006 C   0  0  1  0  0  0  0  0  0  0  0  0
   -1.9252    2.3949   -1.9215 C   0  0  2  0  0  0  0  0  0  0  0  0
   -0.6683    1.6901   -2.1017 N   0  0  0  0  0  0  0  0  0  0  0  0
   -0.2262    0.7778   -1.1610 C   0  0  0  0  0  0  0  0  0  0  0  0
   -0.8504    0.6014   -0.0852 O   0  0  0  0  0  0  0  0  0  0  0  0
    0.8869    0.0122   -1.3793 O   0  0  0  0  0  0  0  0  0  0  0  0
    1.3592   -1.0347   -0.5179 C   0  0  1  0  0  0  0  0  0  0  0  0
    2.6737   -1.6597   -1.0420 C   0  0  2  0  0  0  0  0  0  0  0  0
    3.7813   -0.6904   -1.1819 C   0  0  0  0  0  0  0  0  0  0  0  0
    4.3200    0.1591   -0.1950 C   0  0  0  0  0  0  0  0  0  0  0  0
    5.4030    0.9977   -0.5292 C   0  0  0  0  0  0  0  0  0  0  0  0
    5.9451    0.9787   -1.8327 C   0  0  0  0  0  0  0  0  0  0  0  0
    5.3995    0.1342   -2.8215 C   0  0  0  0  0  0  0  0  0  0  0  0
    4.3098   -0.6881   -2.4785 C   0  0  0  0  0  0  0  0  0  0  0  0
    3.5831   -1.5902   -3.2448 C   0  0  0  0  0  0  0  0  0  0  0  0
    3.7179   -1.9569   -4.5972 C   0  0  0  0  0  0  0  0  0  0  0  0
    2.8218   -2.9054   -5.1313 C   0  0  0  0  0  0  0  0  0  0  0  0
    1.8097   -3.4681   -4.3235 C   0  0  0  0  0  0  0  0  0  0  0  0
    1.6927   -3.1007   -2.9670 C   0  0  0  0  0  0  0  0  0  0  0  0
    2.5958   -2.1603   -2.4317 C   0  0  0  0  0  0  0  0  0  0  0  0
   -2.0375    4.4552   -4.8763 C   0  0  0  0  0  0  0  0  0  0  0  0
   -3.3510    5.0036   -4.7706 C   0  0  0  0  0  0  0  0  0  0  0  0
   -4.0288    5.5979   -5.8503 C   0  0  0  0  0  0  0  0  0  0  0  0
   -3.4345    5.6816   -7.1254 C   0  0  0  0  0  0  0  0  0  0  0  0
   -2.1656    5.0864   -7.2845 C   0  0  0  0  0  0  0  0  0  0  0  0
   -1.5002    4.4868   -6.1972 C   0  0  0  0  0  0  0  0  0  0  0  0
   -4.1361    6.3481   -8.2615 C   0  0  1  0  0  0  0  0  0  0  0  0
   -4.9683    7.3655   -7.8517 F   0  0  0  0  0  0  0  0  0  0  0  0
   -3.2650    6.9201   -9.1597 F   0  0  0  0  0  0  0  0  0  0  0  0
   -4.8958    5.4220   -8.9314 F   0  0  0  0  0  0  0  0  0  0  0  0
    1.0970    1.5967   -3.2786 H   0  0  0  0  0  0  0  0  0  0  0  0
   -0.4231    1.2916   -4.1187 H   0  0  0  0  0  0  0  0  0  0  0  0
    0.5359    3.4566   -4.7540 H   0  0  0  0  0  0  0  0  0  0  0  0
    0.6620    3.9667   -3.1107 H   0  0  0  0  0  0  0  0  0  0  0  0
   -1.1918    4.4217   -1.7278 H   0  0  0  0  0  0  0  0  0  0  0  0
   -2.8366    4.3015   -2.2436 H   0  0  0  0  0  0  0  0  0  0  0  0
   -2.6941    1.8663   -2.4920 H   0  0  0  0  0  0  0  0  0  0  0  0
   -2.2535    2.4130   -0.8774 H   0  0  0  0  0  0  0  0  0  0  0  0
    1.5217   -0.6414    0.4887 H   0  0  0  0  0  0  0  0  0  0  0  0
    0.5940   -1.8127   -0.4503 H   0  0  0  0  0  0  0  0  0  0  0  0
    2.9830   -2.4719   -0.3793 H   0  0  0  0  0  0  0  0  0  0  0  0
    3.9316    0.1718    0.7505 H   0  0  0  0  0  0  0  0  0  0  0  0
    5.7986    1.6204    0.1784 H   0  0  0  0  0  0  0  0  0  0  0  0
    6.7388    1.5807   -2.0611 H   0  0  0  0  0  0  0  0  0  0  0  0
    5.7927    0.1216   -3.7645 H   0  0  0  0  0  0  0  0  0  0  0  0
    4.4500   -1.5505   -5.1826 H   0  0  0  0  0  0  0  0  0  0  0  0
    2.9068   -3.1887   -6.1096 H   0  0  0  0  0  0  0  0  0  0  0  0
    1.1598   -4.1491   -4.7221 H   0  0  0  0  0  0  0  0  0  0  0  0
    0.9611   -3.5117   -2.3832 H   0  0  0  0  0  0  0  0  0  0  0  0
   -3.8737    4.9985   -3.9020 H   0  0  0  0  0  0  0  0  0  0  0  0
   -4.9695    5.9732   -5.6933 H   0  0  0  0  0  0  0  0  0  0  0  0
   -1.7100    5.0840   -8.2014 H   0  0  0  0  0  0  0  0  0  0  0  0
   -0.6012    4.0744   -6.4207 H   0  0  0  0  0  0  0  0  0  0  0  0
  1  2  1  0  0  0  0
  2  3  1  0  0  0  0
  3  4  1  0  0  0  0
  4  5  1  0  0  0  0
  5  6  1  0  0  0  0
  1  6  1  0  0  0  0
  7  8  2  0  0  0  0
  7  9  1  0  0  0  0
  6  7  1  0  0  0  0
 11 12  1  0  0  0  0
 12 13  1  0  0  0  0
 13 14  2  0  0  0  0
 14 15  1  0  0  0  0
 15 16  2  0  0  0  0
 16 17  1  0  0  0  0
 12 17  2  0  0  0  0
 17 18  1  0  0  0  0
 18 19  2  0  0  0  0
 19 20  1  0  0  0  0
 20 21  2  0  0  0  0
 21 22  1  0  0  0  0
 22 23  2  0  0  0  0
 11 23  1  0  0  0  0
 18 23  1  0  0  0  0
 10 11  1  0  0  0  0
  9 10  1  0  0  0  0
 24 25  2  0  0  0  0
 25 26  1  0  0  0  0
 26 27  2  0  0  0  0
 27 28  1  0  0  0  0
 28 29  2  0  0  0  0
 24 29  1  0  0  0  0
 30 31  1  0  0  0  0
 30 32  1  0  0  0  0
 30 33  1  0  0  0  0
 27 30  1  0  0  0  0
  3 24  1  0  0  0  0
  1 34  1  0  0  0  0
  1 35  1  0  0  0  0
  2 36  1  0  0  0  0
  2 37  1  0  0  0  0
  4 38  1  0  0  0  0
  4 39  1  0  0  0  0
  5 40  1  0  0  0  0
  5 41  1  0  0  0  0
 10 42  1  0  0  0  0
 10 43  1  0  0  0  0
 11 44  1  0  0  0  0
 13 45  1  0  0  0  0
 14 46  1  0  0  0  0
 15 47  1  0  0  0  0
 16 48  1  0  0  0  0
 19 49  1  0  0  0  0
 20 50  1  0  0  0  0
 21 51  1  0  0  0  0
 22 52  1  0  0  0  0
 25 53  1  0  0  0  0
 26 54  1  0  0  0  0
 28 55  1  0  0  0  0
 29 56  1  0  0  0  0
M  END
>  <type>
systematic

$$$$
> 768_AKC_tropicalmed8030141
(Z)-N-((benzylamine)((4-iodophenyl)amino)methylene)benzamide
  Mrv0541 05172314553D              69.51000

 44 46  0  0  0  0            999 V2000
    0.0872    0.2372    0.3422 C   0  0  0  0  0  0  0  0  0  0  0  0
    1.5030    0.3029    0.2833 C   0  0  0  0  0  0  0  0  0  0  0  0
    2.1641    1.5201    0.0376 C   0  0  0  0  0  0  0  0  0  0  0  0
    1.4221    2.6980   -0.1505 C   0  0  0  0  0  0  0  0  0  0  0  0
    0.0192    2.6601   -0.0803 C   0  0  0  0  0  0  0  0  0  0  0  0
   -0.6435    1.4398    0.1536 C   0  0  0  0  0  0  0  0  0  0  0  0
   -0.5674   -1.0073    0.5623 C   0  0  0  0  0  0  0  0  0  0  0  0
    0.0492   -1.9513    1.1144 O   0  0  0  0  0  0  0  0  0  0  0  0
   -1.8403   -1.1662    0.2126 N   0  0  0  0  0  0  0  0  0  0  0  0
   -2.5463   -2.1967   -0.1158 C   0  0  0  0  0  0  0  0  0  0  0  0
   -2.0463   -3.4294   -0.2731 N   0  0  0  0  0  0  0  0  0  0  0  0
   -0.9363   -3.7439   -1.0099 C   0  0  0  0  0  0  0  0  0  0  0  0
   -0.5260   -2.9802   -2.1310 C   0  0  0  0  0  0  0  0  0  0  0  0
    0.6523   -3.2976   -2.8280 C   0  0  0  0  0  0  0  0  0  0  0  0
    1.4375   -4.3872   -2.4146 C   0  0  0  0  0  0  0  0  0  0  0  0
    1.0222   -5.1767   -1.3267 C   0  0  0  0  0  0  0  0  0  0  0  0
   -0.1639   -4.8653   -0.6347 C   0  0  0  0  0  0  0  0  0  0  0  0
    3.1980   -4.8061   -3.3839 I   0  0  0  0  0  0  0  0  0  0  0  0
   -3.8576   -2.0602   -0.3312 N   0  0  0  0  0  0  0  0  0  0  0  0
   -4.5702   -0.8119   -0.3637 C   0  0  2  0  0  0  0  0  0  0  0  0
   -6.0209   -0.9907   -0.1062 C   0  0  0  0  0  0  0  0  0  0  0  0
   -6.6262   -0.5087    1.0809 C   0  0  0  0  0  0  0  0  0  0  0  0
   -8.0101   -0.6571    1.2926 C   0  0  0  0  0  0  0  0  0  0  0  0
   -8.8054   -1.2907    0.3202 C   0  0  0  0  0  0  0  0  0  0  0  0
   -8.2180   -1.7714   -0.8647 C   0  0  0  0  0  0  0  0  0  0  0  0
   -6.8345   -1.6233   -1.0745 C   0  0  0  0  0  0  0  0  0  0  0  0
    2.0702   -0.5405    0.4048 H   0  0  0  0  0  0  0  0  0  0  0  0
    3.1857    1.5446   -0.0055 H   0  0  0  0  0  0  0  0  0  0  0  0
    1.9023    3.5802   -0.3367 H   0  0  0  0  0  0  0  0  0  0  0  0
   -0.5200    3.5206   -0.1995 H   0  0  0  0  0  0  0  0  0  0  0  0
   -1.6684    1.4444    0.1860 H   0  0  0  0  0  0  0  0  0  0  0  0
   -2.5120   -4.1592    0.1670 H   0  0  0  0  0  0  0  0  0  0  0  0
   -1.0806   -2.1814   -2.4451 H   0  0  0  0  0  0  0  0  0  0  0  0
    0.9377   -2.7324   -3.6302 H   0  0  0  0  0  0  0  0  0  0  0  0
    1.5870   -5.9733   -1.0304 H   0  0  0  0  0  0  0  0  0  0  0  0
   -0.4454   -5.4451    0.1597 H   0  0  0  0  0  0  0  0  0  0  0  0
   -4.3559   -2.8704   -0.5347 H   0  0  0  0  0  0  0  0  0  0  0  0
   -4.4386   -0.3649   -1.3528 H   0  0  0  0  0  0  0  0  0  0  0  0
   -4.1509   -0.1099    0.3628 H   0  0  0  0  0  0  0  0  0  0  0  0
   -6.0669   -0.0407    1.7993 H   0  0  0  0  0  0  0  0  0  0  0  0
   -8.4394   -0.3020    2.1515 H   0  0  0  0  0  0  0  0  0  0  0  0
   -9.8107   -1.3987    0.4738 H   0  0  0  0  0  0  0  0  0  0  0  0
   -8.7965   -2.2250   -1.5762 H   0  0  0  0  0  0  0  0  0  0  0  0
   -6.4252   -1.9696   -1.9462 H   0  0  0  0  0  0  0  0  0  0  0  0
  1  2  2  0  0  0  0
  2  3  1  0  0  0  0
  3  4  2  0  0  0  0
  4  5  1  0  0  0  0
  5  6  2  0  0  0  0
  1  6  1  0  0  0  0
  7  8  2  0  0  0  0
  7  9  1  0  0  0  0
  1  7  1  0  0  0  0
 12 13  2  0  0  0  0
 13 14  1  0  0  0  0
 14 15  2  0  0  0  0
 15 16  1  0  0  0  0
 16 17  2  0  0  0  0
 12 17  1  0  0  0  0
 15 18  1  0  0  0  0
 11 12  1  0  0  0  0
 10 11  1  0  0  0  0
 20 21  1  0  0  0  0
 21 22  2  0  0  0  0
 22 23  1  0  0  0  0
 23 24  2  0  0  0  0
 24 25  1  0  0  0  0
 25 26  2  0  0  0  0
 21 26  1  0  0  0  0
 19 20  1  0  0  0  0
 10 19  1  0  0  0  0
  9 10  2  0  0  0  0
  2 27  1  0  0  0  0
  3 28  1  0  0  0  0
  4 29  1  0  0  0  0
  5 30  1  0  0  0  0
  6 31  1  0  0  0  0
 11 32  1  0  0  0  0
 13 33  1  0  0  0  0
 14 34  1  0  0  0  0
 16 35  1  0  0  0  0
 17 36  1  0  0  0  0
 19 37  1  0  0  0  0
 20 38  1  0  0  0  0
 20 39  1  0  0  0  0
 22 40  1  0  0  0  0
 23 41  1  0  0  0  0
 24 42  1  0  0  0  0
 25 43  1  0  0  0  0
 26 44  1  0  0  0  0
M  END
>  <type>
systematic

$$$$
> 769_AKC_ap-2017-0070
2265
  -OEChem-05172313593D

 26 28  0     0  0  0  0  0  0999 V2000
   -0.3031    0.3792   -1.6099 S   0  0  0  0  0  0  0  0  0  0  0  0
   -2.4400   -1.8923   -1.2402 O   0  5  0  0  0  0  0  0  0  0  0  0
   -4.0960   -1.7222    0.1910 O   0  0  0  0  0  0  0  0  0  0  0  0
   -1.5345    1.9027    0.2762 N   0  0  0  0  0  0  0  0  0  0  0  0
    2.8464    1.1503   -0.9043 N   0  0  0  0  0  0  0  0  0  0  0  0
   -3.2828    0.7329    0.9880 N   0  0  0  0  0  0  0  0  0  0  0  0
    0.5357   -1.5203    0.1226 N   0  0  0  0  0  0  0  0  0  0  0  0
    4.2709    0.0937    0.4460 N   0  0  0  0  0  0  0  0  0  0  0  0
   -3.0629   -1.2410   -0.3546 N   0  3  0  0  0  0  0  0  0  0  0  0
    2.7516   -1.6762    1.1312 N   0  0  0  0  0  0  0  0  0  0  0  0
   -1.5468    0.7425   -0.3987 C   0  0  0  0  0  0  0  0  0  0  0  0
    2.1576    0.0841   -0.3999 C   0  0  0  0  0  0  0  0  0  0  0  0
    0.8755   -0.4037   -0.5598 C   0  0  0  0  0  0  0  0  0  0  0  0
   -2.6030    0.0276    0.0265 C   0  0  0  0  0  0  0  0  0  0  0  0
   -2.6133    1.8570    1.1147 C   0  0  0  0  0  0  0  0  0  0  0  0
    3.0630   -0.5562    0.4355 C   0  0  0  0  0  0  0  0  0  0  0  0
   -0.6065    3.0078    0.1901 C   0  0  0  0  0  0  0  0  0  0  0  0
    4.1068    1.1139   -0.3689 C   0  0  0  0  0  0  0  0  0  0  0  0
    1.4812   -2.0798    0.9146 C   0  0  0  0  0  0  0  0  0  0  0  0
   -2.8626    2.6627    1.7920 H   0  0  0  0  0  0  0  0  0  0  0  0
    0.3689    2.6716    0.5490 H   0  0  0  0  0  0  0  0  0  0  0  0
   -0.5500    3.3418   -0.8488 H   0  0  0  0  0  0  0  0  0  0  0  0
   -0.9628    3.8306    0.8156 H   0  0  0  0  0  0  0  0  0  0  0  0
    2.4929    1.8418   -1.5523 H   0  0  0  0  0  0  0  0  0  0  0  0
    4.8519    1.8575   -0.6132 H   0  0  0  0  0  0  0  0  0  0  0  0
    1.1750   -2.9736    1.4473 H   0  0  0  0  0  0  0  0  0  0  0  0
  1 11  1  0  0  0  0
  1 13  1  0  0  0  0
  2  9  1  0  0  0  0
  3  9  2  0  0  0  0
  4 11  1  0  0  0  0
  4 15  1  0  0  0  0
  4 17  1  0  0  0  0
  5 12  1  0  0  0  0
  5 18  1  0  0  0  0
  5 24  1  0  0  0  0
  6 14  1  0  0  0  0
  6 15  2  0  0  0  0
  7 13  2  0  0  0  0
  7 19  1  0  0  0  0
  8 16  1  0  0  0  0
  8 18  2  0  0  0  0
  9 14  1  0  0  0  0
 10 16  1  0  0  0  0
 10 19  2  0  0  0  0
 11 14  2  0  0  0  0
 12 13  1  0  0  0  0
 12 16  2  0  0  0  0
 15 20  1  0  0  0  0
 17 21  1  0  0  0  0
 17 22  1  0  0  0  0
 17 23  1  0  0  0  0
 18 25  1  0  0  0  0
 19 26  1  0  0  0  0
M  CHG  2   2  -1   9   1
M  END
> <PUBCHEM_COMPOUND_CID>
2265

> <PUBCHEM_CONFORMER_RMSD>
0.6

> <PUBCHEM_CONFORMER_DIVERSEORDER>
1
14
11
7
18
13
5
8
16
9
10
12
15
6
3
17
4
2

> <PUBCHEM_MMFF94_PARTIAL_CHARGES>
23
1 -0.16
10 -0.57
11 -0.1
12 -0.15
13 0.41
14 0.31
15 0.04
16 0.48
17 0.26
18 0.04
19 0.47
2 -0.52
20 0.15
24 0.27
25 0.15
26 0.15
3 -0.52
4 0.05
5 0.03
6 -0.57
7 -0.62
8 -0.57
9 0.96

> <PUBCHEM_EFFECTIVE_ROTOR_COUNT>
3

> <PUBCHEM_PHARMACOPHORE_FEATURES>
11
1 2 acceptor
1 2 anion
1 3 acceptor
1 5 donor
1 7 acceptor
3 4 6 15 cation
3 5 8 18 cation
3 7 10 19 cation
5 4 6 11 14 15 rings
5 5 8 12 16 18 rings
6 7 10 12 13 16 19 rings

> <PUBCHEM_HEAVY_ATOM_COUNT>
19

> <PUBCHEM_ATOM_DEF_STEREO_COUNT>
0

> <PUBCHEM_ATOM_UDEF_STEREO_COUNT>
0

> <PUBCHEM_BOND_DEF_STEREO_COUNT>
0

> <PUBCHEM_BOND_UDEF_STEREO_COUNT>
0

> <PUBCHEM_ISOTOPIC_ATOM_COUNT>
0

> <PUBCHEM_COMPONENT_COUNT>
1

> <PUBCHEM_CACTVS_TAUTO_COUNT>
4

> <PUBCHEM_CONFORMER_ID>
000008D900000001

> <PUBCHEM_MMFF94_ENERGY>
35.6611

> <PUBCHEM_FEATURE_SELFOVERLAP>
56.034

> <PUBCHEM_SHAPE_FINGERPRINT>
10165383 225 15913060853425008748
1100329 8 17977667841818958763
11132069 177 18342460326527436500
11578080 2 18116410696213515909
12251169 10 18191867812393937264
12382932 28 18342181007882641293
12553582 1 18199178658866177023
13032168 30 18261674899419641403
13693222 15 17748825185544610396
13764800 53 17131552734961381513
14178342 30 18048016494461645330
14223421 5 18339642231117768148
14289901 80 18335138653018079328
14341114 328 18411991264456825872
14787075 74 18050005794178985012
15375462 189 18335990852028687009
15442244 35 18192144894083789194
15775835 57 18342743974926365192
16945 1 18050286972739531708
17492 89 18336263440349810691
18981168 100 15553577713036091960
19050596 39 18408322164079272456
200 152 18261382373518146503
20442098 301 18337671884769014154
23388829 49 18334299785601652437
23402539 116 18272363230520386142
23493267 7 17632024026597387824
23557571 272 17917724516788153148
23559900 14 17986682462766631870
23566358 27 18263657164582287670
23590187 214 18187363207881538450
34934 24 18409450254773169041
392239 28 18122908891305110480
7097593 13 17975410213930013938
90316 7 18339366262411054241
9925002 15 16697217303505635660

> <PUBCHEM_SHAPE_MULTIPOLES>
348.25
7.05
2.53
1.16
1.95
0.5
-0.18
-0.57
1.1
-1.13
0.44
-0.16
-0.06
-1.35

> <PUBCHEM_SHAPE_SELFOVERLAP>
757.591

> <PUBCHEM_SHAPE_VOLUME>
193.6

> <PUBCHEM_COORDINATE_TYPE>
2
5
10

$$$$
> 770_AKC_/j.ijantimicag.2018.12.011

  Mrv0541 05172315313D             113.31000

 55 58  0  0  0  0            999 V2000
    2.0333   -5.6086    4.1005 C   0  0  0  0  0  0  0  0  0  0  0  0
    1.5720   -6.4857    3.1026 C   0  0  0  0  0  0  0  0  0  0  0  0
    0.9275   -5.9779    1.9593 C   0  0  0  0  0  0  0  0  0  0  0  0
    0.7294   -4.5896    1.8030 C   0  0  0  0  0  0  0  0  0  0  0  0
    1.1889   -3.7142    2.8188 C   0  0  0  0  0  0  0  0  0  0  0  0
    1.8384   -4.2230    3.9597 C   0  0  0  0  0  0  0  0  0  0  0  0
    0.0209   -4.1754    0.7140 N   0  0  0  0  0  0  0  0  0  0  0  0
    0.0904   -2.9805    0.0645 C   0  0  0  0  0  0  0  0  0  0  0  0
   -0.9481   -2.6959   -0.5756 O   0  0  0  0  0  0  0  0  0  0  0  0
    1.1672   -2.1218    0.0346 N   0  0  0  0  0  0  0  0  0  0  0  0
    1.1526   -0.7591   -0.0696 C   0  0  0  0  0  0  0  0  0  0  0  0
    2.4772   -0.3279   -0.1706 C   0  0  0  0  0  0  0  0  0  0  0  0
    3.2956   -1.4395   -0.0961 C   0  0  0  0  0  0  0  0  0  0  0  0
    2.4576   -2.5335    0.0415 C   0  0  0  0  0  0  0  0  0  0  0  0
    0.0381    0.1175    0.0180 C   0  0  0  0  0  0  0  0  0  0  0  0
   -0.9892   -0.3020    0.6019 O   0  0  0  0  0  0  0  0  0  0  0  0
    0.0940    1.4144   -0.4242 N   0  0  0  0  0  0  0  0  0  0  0  0
   -0.9197    2.3346   -0.3657 C   0  0  0  0  0  0  0  0  0  0  0  0
   -0.5982    3.6737   -0.0493 C   0  0  0  0  0  0  0  0  0  0  0  0
   -1.6071    4.6635    0.0858 C   0  0  0  0  0  0  0  0  0  0  0  0
   -2.9566    4.2800   -0.1083 C   0  0  0  0  0  0  0  0  0  0  0  0
   -3.2864    2.9635   -0.4626 C   0  0  0  0  0  0  0  0  0  0  0  0
   -2.2741    2.0017   -0.6028 C   0  0  0  0  0  0  0  0  0  0  0  0
   -1.2990    6.0131    0.4115 C   0  0  0  0  0  0  0  0  0  0  0  0
   -2.1371    6.6772    1.0706 O   0  0  0  0  0  0  0  0  0  0  0  0
    0.2921    7.8645    0.2238 C   0  0  0  0  0  0  0  0  0  0  0  0
   -0.5748    8.9803    0.1379 C   0  0  0  0  0  0  0  0  0  0  0  0
    1.6539    8.0881    0.5056 C   0  0  0  0  0  0  0  0  0  0  0  0
    2.1269    9.3864    0.7585 C   0  0  0  0  0  0  0  0  0  0  0  0
    1.2460   10.4815    0.7000 C   0  0  0  0  0  0  0  0  0  0  0  0
   -0.1225   10.3008    0.3812 C   0  0  0  0  0  0  0  0  0  0  0  0
   -1.0904   11.4353    0.2941 C   0  0  2  0  0  0  0  0  0  0  0  0
   -0.5539   12.6666    0.5947 F   0  0  0  0  0  0  0  0  0  0  0  0
   -2.1322   11.2324    1.1691 F   0  0  0  0  0  0  0  0  0  0  0  0
   -1.5950   11.5152   -0.9821 F   0  0  0  0  0  0  0  0  0  0  0  0
   -0.1100    6.5728    0.0305 N   0  0  0  0  0  0  0  0  0  0  0  0
    2.5094   -5.9796    4.9263 H   0  0  0  0  0  0  0  0  0  0  0  0
    1.6999   -7.4945    3.2086 H   0  0  0  0  0  0  0  0  0  0  0  0
    0.6002   -6.6290    1.2397 H   0  0  0  0  0  0  0  0  0  0  0  0
    1.0375   -2.7050    2.7484 H   0  0  0  0  0  0  0  0  0  0  0  0
    2.1620   -3.5868    4.6919 H   0  0  0  0  0  0  0  0  0  0  0  0
   -0.6642   -4.7885    0.4016 H   0  0  0  0  0  0  0  0  0  0  0  0
    2.8012    0.6364   -0.2518 H   0  0  0  0  0  0  0  0  0  0  0  0
    4.3164   -1.4488   -0.1363 H   0  0  0  0  0  0  0  0  0  0  0  0
    2.7873   -3.4996    0.1000 H   0  0  0  0  0  0  0  0  0  0  0  0
    0.9444    1.7250   -0.7771 H   0  0  0  0  0  0  0  0  0  0  0  0
    0.3832    3.9202    0.1144 H   0  0  0  0  0  0  0  0  0  0  0  0
   -3.7143    4.9621   -0.0099 H   0  0  0  0  0  0  0  0  0  0  0  0
   -4.2637    2.7123   -0.6270 H   0  0  0  0  0  0  0  0  0  0  0  0
   -2.5372    1.0569   -0.8845 H   0  0  0  0  0  0  0  0  0  0  0  0
   -1.5520    8.8318   -0.1179 H   0  0  0  0  0  0  0  0  0  0  0  0
    2.3102    7.3033    0.5490 H   0  0  0  0  0  0  0  0  0  0  0  0
    3.1112    9.5338    0.9944 H   0  0  0  0  0  0  0  0  0  0  0  0
    1.6171   11.4133    0.8922 H   0  0  0  0  0  0  0  0  0  0  0  0
    0.5306    5.9850   -0.4012 H   0  0  0  0  0  0  0  0  0  0  0  0
  1  2  1  0  0  0  0
  2  3  2  0  0  0  0
  3  4  1  0  0  0  0
  4  5  2  0  0  0  0
  5  6  1  0  0  0  0
  1  6  2  0  0  0  0
  4  7  1  0  0  0  0
  7  8  1  0  0  0  0
  8  9  2  0  0  0  0
  8 10  1  0  0  0  0
 10 11  1  0  0  0  0
 10 14  1  0  0  0  0
 11 12  2  0  0  0  0
 12 13  1  0  0  0  0
 13 14  2  0  0  0  0
 11 15  1  0  0  0  0
 15 16  2  0  0  0  0
 15 17  1  0  0  0  0
 17 18  1  0  0  0  0
 18 19  1  0  0  0  0
 18 23  2  0  0  0  0
 19 20  2  0  0  0  0
 20 21  1  0  0  0  0
 21 22  2  0  0  0  0
 22 23  1  0  0  0  0
 20 24  1  0  0  0  0
 24 25  2  0  0  0  0
 27 26  1  0  0  0  0
 26 28  2  0  0  0  0
 28 29  1  0  0  0  0
 29 30  2  0  0  0  0
 30 31  1  0  0  0  0
 27 31  2  0  0  0  0
 32 33  1  0  0  0  0
 32 34  1  0  0  0  0
 32 35  1  0  0  0  0
 24 36  1  0  0  0  0
 36 26  1  0  0  0  0
 31 32  1  0  0  0  0
  1 37  1  0  0  0  0
  2 38  1  0  0  0  0
  3 39  1  0  0  0  0
  5 40  1  0  0  0  0
  6 41  1  0  0  0  0
  7 42  1  0  0  0  0
 12 43  1  0  0  0  0
 13 44  1  0  0  0  0
 14 45  1  0  0  0  0
 17 46  1  0  0  0  0
 19 47  1  0  0  0  0
 21 48  1  0  0  0  0
 22 49  1  0  0  0  0
 23 50  1  0  0  0  0
 27 51  1  0  0  0  0
 28 52  1  0  0  0  0
 29 53  1  0  0  0  0
 30 54  1  0  0  0  0
 36 55  1  0  0  0  0
M  END
>  <type>
systematic

$$$$
> 771_AKC_AAC.01766-19
2-(2-aminobenzimidazol-1-yl)-N-benzyl-8-methoxy quinazolin-4-amine
  Mrv0541 05172315363D              85.59000

 50 54  0  0  0  0            999 V2000
    3.4893   -0.4872    2.2084 C   0  0  0  0  0  0  0  0  0  0  0  0
    3.9653   -1.1896    3.3296 C   0  0  0  0  0  0  0  0  0  0  0  0
    3.2406   -1.1692    4.5396 C   0  0  0  0  0  0  0  0  0  0  0  0
    2.0087   -0.4778    4.6047 C   0  0  0  0  0  0  0  0  0  0  0  0
    1.2753   -0.5130    5.7474 N   0  0  0  0  0  0  0  0  0  0  0  0
    0.1052    0.1578    5.8853 C   0  0  0  0  0  0  0  0  0  0  0  0
   -0.3316    0.9058    4.8426 N   0  0  0  0  0  0  0  0  0  0  0  0
    0.3204    0.9879    3.6511 C   0  0  0  0  0  0  0  0  0  0  0  0
    1.5314    0.2639    3.4865 C   0  0  0  0  0  0  0  0  0  0  0  0
    2.2903    0.2451    2.2900 C   0  0  0  0  0  0  0  0  0  0  0  0
   -0.2155    1.7494    2.6509 N   0  0  0  0  0  0  0  0  0  0  0  0
    3.7441   -1.8222    5.6361 O   0  0  0  0  0  0  0  0  0  0  0  0
    4.4819   -0.9452    6.5130 C   0  0  0  0  0  0  0  0  0  0  0  0
   -1.2696    2.7063    2.8163 C   0  0  2  0  0  0  0  0  0  0  0  0
   -1.7765    3.2202    1.5146 C   0  0  0  0  0  0  0  0  0  0  0  0
   -3.1615    3.2076    1.2134 C   0  0  0  0  0  0  0  0  0  0  0  0
   -3.6389    3.7218   -0.0063 C   0  0  0  0  0  0  0  0  0  0  0  0
   -2.7370    4.2446   -0.9491 C   0  0  0  0  0  0  0  0  0  0  0  0
   -1.3596    4.2628   -0.6671 C   0  0  0  0  0  0  0  0  0  0  0  0
   -0.8836    3.7634    0.5593 C   0  0  0  0  0  0  0  0  0  0  0  0
   -1.1916    1.0948    7.7103 C   0  0  0  0  0  0  0  0  0  0  0  0
   -0.6247    0.0763    7.0343 N   0  0  0  0  0  0  0  0  0  0  0  0
   -0.9366   -1.0521    7.7196 C   0  0  0  0  0  0  0  0  0  0  0  0
   -1.6733   -0.7792    8.8123 N   0  0  0  0  0  0  0  0  0  0  0  0
   -1.8392    0.5477    8.8165 C   0  0  0  0  0  0  0  0  0  0  0  0
   -2.5285    1.3491    9.7389 C   0  0  0  0  0  0  0  0  0  0  0  0
   -2.5332    2.7459    9.5406 C   0  0  0  0  0  0  0  0  0  0  0  0
   -1.8722    3.3133    8.4270 C   0  0  0  0  0  0  0  0  0  0  0  0
   -1.2025    2.4888    7.4974 C   0  0  0  0  0  0  0  0  0  0  0  0
   -0.6053   -2.3130    7.3818 N   0  0  0  0  0  0  0  0  0  0  0  0
    4.0200   -0.4996    1.3344 H   0  0  0  0  0  0  0  0  0  0  0  0
    4.8446   -1.7112    3.2644 H   0  0  0  0  0  0  0  0  0  0  0  0
    1.9837    0.7664    1.4648 H   0  0  0  0  0  0  0  0  0  0  0  0
    0.1775    1.6697    1.7696 H   0  0  0  0  0  0  0  0  0  0  0  0
    4.8302   -1.5257    7.3681 H   0  0  0  0  0  0  0  0  0  0  0  0
    5.3576   -0.5221    6.0123 H   0  0  0  0  0  0  0  0  0  0  0  0
    3.8560   -0.1323    6.8938 H   0  0  0  0  0  0  0  0  0  0  0  0
   -0.8765    3.5491    3.3919 H   0  0  0  0  0  0  0  0  0  0  0  0
   -2.0856    2.2567    3.3922 H   0  0  0  0  0  0  0  0  0  0  0  0
   -3.8371    2.8347    1.8859 H   0  0  0  0  0  0  0  0  0  0  0  0
   -4.6422    3.7176   -0.2034 H   0  0  0  0  0  0  0  0  0  0  0  0
   -3.0836    4.6183   -1.8342 H   0  0  0  0  0  0  0  0  0  0  0  0
   -0.7024    4.6429   -1.3517 H   0  0  0  0  0  0  0  0  0  0  0  0
    0.1213    3.8007    0.7510 H   0  0  0  0  0  0  0  0  0  0  0  0
   -3.0107    0.9267   10.5345 H   0  0  0  0  0  0  0  0  0  0  0  0
   -3.0155    3.3495   10.2092 H   0  0  0  0  0  0  0  0  0  0  0  0
   -1.8765    4.3285    8.2929 H   0  0  0  0  0  0  0  0  0  0  0  0
   -0.7278    2.9025    6.6935 H   0  0  0  0  0  0  0  0  0  0  0  0
   -0.0963   -2.4813    6.5732 H   0  0  0  0  0  0  0  0  0  0  0  0
   -0.8859   -3.0559    7.9407 H   0  0  0  0  0  0  0  0  0  0  0  0
  1  2  2  0  0  0  0
  2  3  1  0  0  0  0
  3  4  2  0  0  0  0
  4  5  1  0  0  0  0
  5  6  2  0  0  0  0
  6  7  1  0  0  0  0
  7  8  2  0  0  0  0
  8  9  1  0  0  0  0
  4  9  1  0  0  0  0
  9 10  2  0  0  0  0
  1 10  1  0  0  0  0
  8 11  1  0  0  0  0
 12 13  1  0  0  0  0
  3 12  1  0  0  0  0
 14 15  1  0  0  0  0
 15 16  2  0  0  0  0
 16 17  1  0  0  0  0
 17 18  2  0  0  0  0
 18 19  1  0  0  0  0
 19 20  2  0  0  0  0
 15 20  1  0  0  0  0
 11 14  1  0  0  0  0
 21 22  1  0  0  0  0
 22 23  1  0  0  0  0
 23 24  2  0  0  0  0
 24 25  1  0  0  0  0
 21 25  1  0  0  0  0
 25 26  2  0  0  0  0
 26 27  1  0  0  0  0
 27 28  2  0  0  0  0
 28 29  1  0  0  0  0
 21 29  2  0  0  0  0
 23 30  1  0  0  0  0
  6 22  1  0  0  0  0
  1 31  1  0  0  0  0
  2 32  1  0  0  0  0
 10 33  1  0  0  0  0
 11 34  1  0  0  0  0
 13 35  1  0  0  0  0
 13 36  1  0  0  0  0
 13 37  1  0  0  0  0
 14 38  1  0  0  0  0
 14 39  1  0  0  0  0
 16 40  1  0  0  0  0
 17 41  1  0  0  0  0
 18 42  1  0  0  0  0
 19 43  1  0  0  0  0
 20 44  1  0  0  0  0
 26 45  1  0  0  0  0
 27 46  1  0  0  0  0
 28 47  1  0  0  0  0
 29 48  1  0  0  0  0
 30 49  1  0  0  0  0
 30 50  1  0  0  0  0
M  END
>  <type>
systematic

$$$$
> 772_AKC_0103-5053.20230073

  Mrv0541 05232308363D              70.40000

 50 52  0  0  0  0            999 V2000
    3.0050   -2.2634    4.2754 C   0  0  0  0  0  0  0  0  0  0  0  0
    1.6707   -1.8739    4.0733 C   0  0  0  0  0  0  0  0  0  0  0  0
    1.2647   -1.3896    2.8199 C   0  0  0  0  0  0  0  0  0  0  0  0
    2.1749   -1.3048    1.7407 C   0  0  0  0  0  0  0  0  0  0  0  0
    3.5066   -1.7563    1.9423 C   0  0  0  0  0  0  0  0  0  0  0  0
    3.9348   -2.1881    3.2205 C   0  0  0  0  0  0  0  0  0  0  0  0
    5.2340   -2.5674    3.4392 O   0  0  0  0  0  0  0  0  0  0  0  0
    4.4082   -1.7757    0.9163 O   0  0  0  0  0  0  0  0  0  0  0  0
    1.7055   -0.7660    0.4314 C   0  0  1  0  0  0  0  0  0  0  0  0
    1.3101    0.6299    0.5138 C   0  0  0  0  0  0  0  0  0  0  0  0
    2.1748    1.6473    0.4144 C   0  0  0  0  0  0  0  0  0  0  0  0
    4.3777   -3.0131    0.1787 C   0  0  2  0  0  0  0  0  0  0  0  0
    5.3566   -2.8745   -0.9007 C   0  0  0  0  0  0  0  0  0  0  0  0
    6.0890   -1.4754    3.8306 C   0  0  0  0  0  0  0  0  0  0  0  0
    6.2326   -2.4110   -2.7933 N   0  0  0  0  0  0  0  0  0  0  0  0
    5.1232   -2.3732   -2.1222 N   0  0  0  0  0  0  0  0  0  0  0  0
    6.6993   -3.2035   -0.8568 C   0  0  0  0  0  0  0  0  0  0  0  0
    7.1895   -2.9152   -2.0704 N   0  0  0  0  0  0  0  0  0  0  0  0
    8.5270   -3.1359   -2.5247 C   0  0  1  0  0  0  0  0  0  0  0  0
    8.5066   -4.1260   -3.6311 C   0  0  0  0  0  0  0  0  0  0  0  0
    8.4612   -6.0074   -5.7475 C   0  0  0  0  0  0  0  0  0  0  0  0
    8.3592   -4.6293   -6.0228 C   0  0  0  0  0  0  0  0  0  0  0  0
    8.3914   -3.6958   -4.9732 C   0  0  0  0  0  0  0  0  0  0  0  0
    8.5545   -5.5134   -3.3593 C   0  0  0  0  0  0  0  0  0  0  0  0
    8.5280   -6.4474   -4.4102 C   0  0  0  0  0  0  0  0  0  0  0  0
    8.4908   -6.9110   -6.7740 O   0  0  0  0  0  0  0  0  0  0  0  0
    9.8311   -7.1739   -7.2326 C   0  0  0  0  0  0  0  0  0  0  0  0
    3.3008   -2.6062    5.1930 H   0  0  0  0  0  0  0  0  0  0  0  0
    0.9941   -1.9401    4.8381 H   0  0  0  0  0  0  0  0  0  0  0  0
    0.2920   -1.1003    2.6964 H   0  0  0  0  0  0  0  0  0  0  0  0
    2.4619   -0.8705   -0.3506 H   0  0  0  0  0  0  0  0  0  0  0  0
    0.8509   -1.3654    0.1066 H   0  0  0  0  0  0  0  0  0  0  0  0
    0.3494    0.8389    0.6619 H   0  0  0  0  0  0  0  0  0  0  0  0
    3.1453    1.4849    0.2764 H   0  0  0  0  0  0  0  0  0  0  0  0
    1.8513    2.5845    0.4765 H   0  0  0  0  0  0  0  0  0  0  0  0
    3.3974   -3.2009   -0.2685 H   0  0  0  0  0  0  0  0  0  0  0  0
    4.6434   -3.8704    0.8062 H   0  0  0  0  0  0  0  0  0  0  0  0
    7.1023   -1.8608    3.9545 H   0  0  0  0  0  0  0  0  0  0  0  0
    6.1177   -0.6915    3.0692 H   0  0  0  0  0  0  0  0  0  0  0  0
    5.7722   -1.0435    4.7833 H   0  0  0  0  0  0  0  0  0  0  0  0
    7.2115   -3.5885   -0.0588 H   0  0  0  0  0  0  0  0  0  0  0  0
    8.9541   -2.1871   -2.8606 H   0  0  0  0  0  0  0  0  0  0  0  0
    9.1689   -3.4986   -1.7147 H   0  0  0  0  0  0  0  0  0  0  0  0
    8.2673   -4.3013   -6.9861 H   0  0  0  0  0  0  0  0  0  0  0  0
    8.3235   -2.6994   -5.1948 H   0  0  0  0  0  0  0  0  0  0  0  0
    8.6071   -5.8523   -2.3945 H   0  0  0  0  0  0  0  0  0  0  0  0
    8.5628   -7.4465   -4.1988 H   0  0  0  0  0  0  0  0  0  0  0  0
    9.7792   -7.8915   -8.0500 H   0  0  0  0  0  0  0  0  0  0  0  0
   10.3121   -6.2677   -7.6094 H   0  0  0  0  0  0  0  0  0  0  0  0
   10.4462   -7.6077   -6.4405 H   0  0  0  0  0  0  0  0  0  0  0  0
  1  2  1  0  0  0  0
  2  3  2  0  0  0  0
  3  4  1  0  0  0  0
  4  5  2  0  0  0  0
  5  6  1  0  0  0  0
  1  6  2  0  0  0  0
  6  7  1  0  0  0  0
  5  8  1  0  0  0  0
  4  9  1  0  0  0  0
  9 10  1  0  0  0  0
 10 11  2  0  0  0  0
  8 12  1  0  0  0  0
 12 13  1  0  0  0  0
  7 14  1  0  0  0  0
 16 13  1  0  0  0  0
 13 17  2  0  0  0  0
 15 16  2  0  0  0  0
 17 18  1  0  0  0  0
 15 18  1  0  0  0  0
 18 19  1  0  0  0  0
 19 20  1  0  0  0  0
 23 20  1  0  0  0  0
 20 24  2  0  0  0  0
 21 22  1  0  0  0  0
 22 23  2  0  0  0  0
 24 25  1  0  0  0  0
 21 25  2  0  0  0  0
 21 26  1  0  0  0  0
 26 27  1  0  0  0  0
  1 28  1  0  0  0  0
  2 29  1  0  0  0  0
  3 30  1  0  0  0  0
  9 31  1  0  0  0  0
  9 32  1  0  0  0  0
 10 33  1  0  0  0  0
 11 34  1  0  0  0  0
 11 35  1  0  0  0  0
 12 36  1  0  0  0  0
 12 37  1  0  0  0  0
 14 38  1  0  0  0  0
 14 39  1  0  0  0  0
 14 40  1  0  0  0  0
 17 41  1  0  0  0  0
 19 42  1  0  0  0  0
 19 43  1  0  0  0  0
 22 44  1  0  0  0  0
 23 45  1  0  0  0  0
 24 46  1  0  0  0  0
 25 47  1  0  0  0  0
 27 48  1  0  0  0  0
 27 49  1  0  0  0  0
 27 50  1  0  0  0  0
M  END
>  <type>
systematic

$$$$
> 773_AKC_j.bioorg.2023.106615
11-(butyl(2,6-dinitro-4-(trifluoromethyl)phenyl)amino)undecyl (2-(trimethylammonio) ethyl) phosphate
  Mrv0541 05232308383D             208.11000

 89 89  0  0  0  0            999 V2000
   -0.1981   -2.1485    1.9036 O   0  0  0  0  0  0  0  0  0  0  0  0
   -0.3929   -3.7312    1.9897 P   0  0  1  0  0  0  0  0  0  0  0  0
    0.9702   -4.3369    2.5589 O   0  0  0  0  0  0  0  0  0  0  0  0
   -1.5117   -4.0462    2.8833 O   0  0  0  0  0  0  0  0  0  0  0  0
   -0.6702   -4.2786    0.5283 O   0  5  0  0  0  0  0  0  0  0  0  0
    0.9696   -1.7400    1.1603 C   0  0  1  0  0  0  0  0  0  0  0  0
    1.0489   -0.1924    1.1627 C   0  0  1  0  0  0  0  0  0  0  0  0
    2.1851    0.4558    0.3830 N   0  3  2  0  0  0  0  0  0  0  0  0
    3.5321    0.0439    0.9335 C   0  0  0  0  0  0  0  0  0  0  0  0
    2.0567    1.9562    0.5199 C   0  0  0  0  0  0  0  0  0  0  0  0
    2.1089    0.1047   -1.0863 C   0  0  0  0  0  0  0  0  0  0  0  0
    1.1284   -5.7522    2.3966 C   0  0  2  0  0  0  0  0  0  0  0  0
    2.5162   -6.1456    2.9514 C   0  0  1  0  0  0  0  0  0  0  0  0
    2.7115   -7.6790    2.9082 C   0  0  1  0  0  0  0  0  0  0  0  0
    4.0658   -8.1561    3.4838 C   0  0  2  0  0  0  0  0  0  0  0  0
    4.1425   -9.7028    3.4388 C   0  0  2  0  0  0  0  0  0  0  0  0
    5.4670  -10.2555    4.0074 C   0  0  1  0  0  0  0  0  0  0  0  0
    5.5159  -11.8010    3.9400 C   0  0  2  0  0  0  0  0  0  0  0  0
    6.8580  -12.3348    4.4853 C   0  0  2  0  0  0  0  0  0  0  0  0
    6.9204  -13.8775    4.4389 C   0  0  1  0  0  0  0  0  0  0  0  0
    8.3056  -14.3980    4.8879 C   0  0  2  0  0  0  0  0  0  0  0  0
    8.3053  -15.9272    5.1480 C   0  0  1  0  0  0  0  0  0  0  0  0
    9.5758  -16.3744    5.7134 N   0  0  0  0  0  0  0  0  0  0  0  0
    9.9105  -16.0735    7.1158 C   0  0  0  0  0  0  0  0  0  0  0  0
    9.0497  -15.4034    8.0586 C   0  0  0  0  0  0  0  0  0  0  0  0
    9.5821  -14.7460    9.1924 C   0  0  0  0  0  0  0  0  0  0  0  0
   10.9459  -14.8318    9.5220 C   0  0  0  0  0  0  0  0  0  0  0  0
   11.7331  -15.7170    8.7641 C   0  0  0  0  0  0  0  0  0  0  0  0
   11.2130  -16.3828    7.6296 C   0  0  0  0  0  0  0  0  0  0  0  0
   11.5033  -14.1108   10.7006 C   0  0  1  0  0  0  0  0  0  0  0  0
   12.8365  -13.8093   10.5534 F   0  0  0  0  0  0  0  0  0  0  0  0
   10.8733  -12.9106   10.9330 F   0  0  0  0  0  0  0  0  0  0  0  0
   11.3567  -14.9005   11.8134 F   0  0  0  0  0  0  0  0  0  0  0  0
    7.7226  -15.3989    8.0251 N   0  3  0  0  0  0  0  0  0  0  0  0
    7.1385  -16.3937    8.2084 O   0  0  0  0  0  0  0  0  0  0  0  0
    7.0505  -14.3264    7.9003 O   0  5  0  0  0  0  0  0  0  0  0  0
   11.9781  -17.3582    7.1641 N   0  3  0  0  0  0  0  0  0  0  0  0
   11.6191  -18.4656    7.2594 O   0  0  0  0  0  0  0  0  0  0  0  0
   13.1345  -17.1400    6.6867 O   0  5  0  0  0  0  0  0  0  0  0  0
   10.4784  -16.9217    4.6378 C   0  0  1  0  0  0  0  0  0  0  0  0
   11.6092  -15.8306    4.1502 C   0  0  1  0  0  0  0  0  0  0  0  0
   12.7433  -16.3914    3.2033 C   0  0  1  0  0  0  0  0  0  0  0  0
   13.9283  -15.4197    3.0176 C   0  0  0  0  0  0  0  0  0  0  0  0
    1.8788   -2.1301    1.6249 H   0  0  0  0  0  0  0  0  0  0  0  0
    0.9087   -2.0979    0.1299 H   0  0  0  0  0  0  0  0  0  0  0  0
    0.0871    0.1704    0.7843 H   0  0  0  0  0  0  0  0  0  0  0  0
    1.0999    0.1141    2.2138 H   0  0  0  0  0  0  0  0  0  0  0  0
    4.3465    0.5909    0.4509 H   0  0  0  0  0  0  0  0  0  0  0  0
    3.5995    0.2291    2.0101 H   0  0  0  0  0  0  0  0  0  0  0  0
    3.7327   -1.0147    0.7662 H   0  0  0  0  0  0  0  0  0  0  0  0
    2.1243    2.2670    1.5662 H   0  0  0  0  0  0  0  0  0  0  0  0
    1.0995    2.3102    0.1274 H   0  0  0  0  0  0  0  0  0  0  0  0
    2.8474    2.4766   -0.0275 H   0  0  0  0  0  0  0  0  0  0  0  0
    2.8336    0.6736   -1.6743 H   0  0  0  0  0  0  0  0  0  0  0  0
    1.1146    0.3087   -1.4958 H   0  0  0  0  0  0  0  0  0  0  0  0
    2.3320   -0.9475   -1.2655 H   0  0  0  0  0  0  0  0  0  0  0  0
    1.0880   -6.0303    1.3378 H   0  0  0  0  0  0  0  0  0  0  0  0
    0.3488   -6.2927    2.9443 H   0  0  0  0  0  0  0  0  0  0  0  0
    3.2957   -5.6590    2.3572 H   0  0  0  0  0  0  0  0  0  0  0  0
    2.6006   -5.7932    3.9829 H   0  0  0  0  0  0  0  0  0  0  0  0
    1.9060   -8.1475    3.4809 H   0  0  0  0  0  0  0  0  0  0  0  0
    2.6349   -8.0156    1.8701 H   0  0  0  0  0  0  0  0  0  0  0  0
    4.1681   -7.8145    4.5179 H   0  0  0  0  0  0  0  0  0  0  0  0
    4.8849   -7.7304    2.8969 H   0  0  0  0  0  0  0  0  0  0  0  0
    4.0385  -10.0354    2.4016 H   0  0  0  0  0  0  0  0  0  0  0  0
    3.3125  -10.1192    4.0178 H   0  0  0  0  0  0  0  0  0  0  0  0
    6.3027   -9.8452    3.4330 H   0  0  0  0  0  0  0  0  0  0  0  0
    5.5716   -9.9379    5.0491 H   0  0  0  0  0  0  0  0  0  0  0  0
    5.3955  -12.1254    2.9013 H   0  0  0  0  0  0  0  0  0  0  0  0
    4.6941  -12.2208    4.5284 H   0  0  0  0  0  0  0  0  0  0  0  0
    6.9773  -12.0099    5.5229 H   0  0  0  0  0  0  0  0  0  0  0  0
    7.6778  -11.9114    3.8974 H   0  0  0  0  0  0  0  0  0  0  0  0
    6.1433  -14.2774    5.0949 H   0  0  0  0  0  0  0  0  0  0  0  0
    6.7227  -14.2252    3.4212 H   0  0  0  0  0  0  0  0  0  0  0  0
    8.6149  -13.8671    5.7870 H   0  0  0  0  0  0  0  0  0  0  0  0
    9.0320  -14.1595    4.1061 H   0  0  0  0  0  0  0  0  0  0  0  0
    7.4767  -16.2302    5.7738 H   0  0  0  0  0  0  0  0  0  0  0  0
    8.0485  -16.4000    4.1955 H   0  0  0  0  0  0  0  0  0  0  0  0
    8.9570  -14.2157    9.8111 H   0  0  0  0  0  0  0  0  0  0  0  0
   12.6945  -15.9073    9.0639 H   0  0  0  0  0  0  0  0  0  0  0  0
   10.9590  -17.8309    4.9706 H   0  0  0  0  0  0  0  0  0  0  0  0
    9.9638  -17.2380    3.7280 H   0  0  0  0  0  0  0  0  0  0  0  0
   11.1875  -14.9640    3.5767 H   0  0  0  0  0  0  0  0  0  0  0  0
   12.1482  -15.3258    4.9910 H   0  0  0  0  0  0  0  0  0  0  0  0
   13.1197  -17.3268    3.6220 H   0  0  0  0  0  0  0  0  0  0  0  0
   12.3111  -16.6160    2.2249 H   0  0  0  0  0  0  0  0  0  0  0  0
   14.6399  -15.8285    2.3006 H   0  0  0  0  0  0  0  0  0  0  0  0
   13.5811  -14.4530    2.6503 H   0  0  0  0  0  0  0  0  0  0  0  0
   14.4386  -15.2747    3.9700 H   0  0  0  0  0  0  0  0  0  0  0  0
  1  2  1  0  0  0  0
  2  3  1  0  0  0  0
  2  4  2  0  0  0  0
  2  5  1  0  0  0  0
  6  7  1  0  0  0  0
  8  9  1  0  0  0  0
  8 10  1  0  0  0  0
  8 11  1  0  0  0  0
  7  8  1  0  0  0  0
  1  6  1  0  0  0  0
 12 13  1  0  0  0  0
 13 14  1  0  0  0  0
 14 15  1  0  0  0  0
 15 16  1  0  0  0  0
 16 17  1  0  0  0  0
 17 18  1  0  0  0  0
 18 19  1  0  0  0  0
 19 20  1  0  0  0  0
 20 21  1  0  0  0  0
 21 22  1  0  0  0  0
 24 25  2  0  0  0  0
 25 26  1  0  0  0  0
 26 27  2  0  0  0  0
 27 28  1  0  0  0  0
 28 29  2  0  0  0  0
 24 29  1  0  0  0  0
 30 31  1  0  0  0  0
 30 32  1  0  0  0  0
 30 33  1  0  0  0  0
 27 30  1  0  0  0  0
 34 35  2  0  0  0  0
 34 36  1  0  0  0  0
 25 34  1  0  0  0  0
 37 38  2  0  0  0  0
 37 39  1  0  0  0  0
 29 37  1  0  0  0  0
 23 24  1  0  0  0  0
 40 41  1  0  0  0  0
 41 42  1  0  0  0  0
 42 43  1  0  0  0  0
 23 40  1  0  0  0  0
 22 23  1  0  0  0  0
  3 12  1  0  0  0  0
  6 44  1  0  0  0  0
  6 45  1  0  0  0  0
  7 46  1  0  0  0  0
  7 47  1  0  0  0  0
  9 48  1  0  0  0  0
  9 49  1  0  0  0  0
  9 50  1  0  0  0  0
 10 51  1  0  0  0  0
 10 52  1  0  0  0  0
 10 53  1  0  0  0  0
 11 54  1  0  0  0  0
 11 55  1  0  0  0  0
 11 56  1  0  0  0  0
 12 57  1  0  0  0  0
 12 58  1  0  0  0  0
 13 59  1  0  0  0  0
 13 60  1  0  0  0  0
 14 61  1  0  0  0  0
 14 62  1  0  0  0  0
 15 63  1  0  0  0  0
 15 64  1  0  0  0  0
 16 65  1  0  0  0  0
 16 66  1  0  0  0  0
 17 67  1  0  0  0  0
 17 68  1  0  0  0  0
 18 69  1  0  0  0  0
 18 70  1  0  0  0  0
 19 71  1  0  0  0  0
 19 72  1  0  0  0  0
 20 73  1  0  0  0  0
 20 74  1  0  0  0  0
 21 75  1  0  0  0  0
 21 76  1  0  0  0  0
 22 77  1  0  0  0  0
 22 78  1  0  0  0  0
 26 79  1  0  0  0  0
 28 80  1  0  0  0  0
 40 81  1  0  0  0  0
 40 82  1  0  0  0  0
 41 83  1  0  0  0  0
 41 84  1  0  0  0  0
 42 85  1  0  0  0  0
 42 86  1  0  0  0  0
 43 87  1  0  0  0  0
 43 88  1  0  0  0  0
 43 89  1  0  0  0  0
M  CHG  6   5  -1   8   1  34   1  36  -1  37   1  39  -1
M  END
>  <type>
systematic

$$$$
> 774_AKC_07391102.2023.2212779
(E)-2, 3-diacetoxy-1-(4-hydroxy-3-methoxyphenyl)-7-(3,4-dihydroxy-5-methoxyphenyl)-5-heptene
  Mrv0541 05232308403D              85.57000

 64 65  0  0  0  0            999 V2000
    4.2206    2.9318    0.0504 C   0  0  1  0  0  0  0  0  0  0  0  0
    3.5833    1.5038    0.0526 C   0  0  2  0  0  0  0  0  0  0  0  0
    2.0322    1.4358   -0.1397 C   0  0  1  0  0  0  0  0  0  0  0  0
    1.5575    1.9447   -1.5345 C   0  0  1  0  0  0  0  0  0  0  0  0
    0.1181    2.1064   -1.6791 C   0  0  0  0  0  0  0  0  0  0  0  0
   -0.4532    2.3113   -2.8802 C   0  0  0  0  0  0  0  0  0  0  0  0
   -1.8602    2.6200   -3.0775 C   0  0  2  0  0  0  0  0  0  0  0  0
   -2.6313    1.4693   -3.6213 C   0  0  0  0  0  0  0  0  0  0  0  0
   -3.1476    1.4864   -4.9379 C   0  0  0  0  0  0  0  0  0  0  0  0
   -3.9094    0.4082   -5.4309 C   0  0  0  0  0  0  0  0  0  0  0  0
   -4.1612   -0.7077   -4.6101 C   0  0  0  0  0  0  0  0  0  0  0  0
   -3.6462   -0.7454   -3.2960 C   0  0  0  0  0  0  0  0  0  0  0  0
   -2.8932    0.3428   -2.8082 C   0  0  0  0  0  0  0  0  0  0  0  0
   -3.9155   -1.8186   -2.4880 O   0  0  0  0  0  0  0  0  0  0  0  0
   -2.8223   -2.7477   -2.3935 C   0  0  0  0  0  0  0  0  0  0  0  0
   -4.4051    0.4380   -6.6950 O   0  0  0  0  0  0  0  0  0  0  0  0
   -4.9002   -1.7353   -5.1029 O   0  0  0  0  0  0  0  0  0  0  0  0
    3.7989    3.8048    1.1826 C   0  0  0  0  0  0  0  0  0  0  0  0
    2.6654    4.6442    1.0767 C   0  0  0  0  0  0  0  0  0  0  0  0
    2.2505    5.4483    2.1597 C   0  0  0  0  0  0  0  0  0  0  0  0
    2.9922    5.4425    3.3584 C   0  0  0  0  0  0  0  0  0  0  0  0
    4.1335    4.6249    3.4692 C   0  0  0  0  0  0  0  0  0  0  0  0
    4.5308    3.8124    2.3918 C   0  0  0  0  0  0  0  0  0  0  0  0
    1.1490    6.2548    2.0472 O   0  0  0  0  0  0  0  0  0  0  0  0
   -0.0886    5.5368    2.1931 C   0  0  0  0  0  0  0  0  0  0  0  0
    2.5982    6.2193    4.4007 O   0  0  0  0  0  0  0  0  0  0  0  0
    3.8992    0.8775    1.3131 O   0  0  0  0  0  0  0  0  0  0  0  0
    4.5064   -0.3131    1.6092 C   0  0  0  0  0  0  0  0  0  0  0  0
    4.9661   -1.2638    0.5143 C   0  0  0  0  0  0  0  0  0  0  0  0
    4.6025   -0.4950    2.8672 O   0  0  0  0  0  0  0  0  0  0  0  0
    1.6224    0.0568   -0.0299 O   0  0  0  0  0  0  0  0  0  0  0  0
    0.8336   -0.5268    0.9183 C   0  0  0  0  0  0  0  0  0  0  0  0
    0.5755   -1.9730    0.8499 C   0  0  0  0  0  0  0  0  0  0  0  0
    0.3372    0.1379    1.8566 O   0  0  0  0  0  0  0  0  0  0  0  0
    5.3080    2.8151    0.0788 H   0  0  0  0  0  0  0  0  0  0  0  0
    4.0214    3.4403   -0.8942 H   0  0  0  0  0  0  0  0  0  0  0  0
    4.0400    0.9453   -0.7685 H   0  0  0  0  0  0  0  0  0  0  0  0
    1.5669    2.0345    0.6466 H   0  0  0  0  0  0  0  0  0  0  0  0
    1.9824    2.9292   -1.7308 H   0  0  0  0  0  0  0  0  0  0  0  0
    1.9366    1.2552   -2.2966 H   0  0  0  0  0  0  0  0  0  0  0  0
   -0.4483    2.1218   -0.8617 H   0  0  0  0  0  0  0  0  0  0  0  0
    0.1233    2.2848   -3.6918 H   0  0  0  0  0  0  0  0  0  0  0  0
   -1.9104    3.4768   -3.7556 H   0  0  0  0  0  0  0  0  0  0  0  0
   -2.3331    2.9431   -2.1465 H   0  0  0  0  0  0  0  0  0  0  0  0
   -2.9760    2.2892   -5.5479 H   0  0  0  0  0  0  0  0  0  0  0  0
   -2.5449    0.3147   -1.8447 H   0  0  0  0  0  0  0  0  0  0  0  0
   -3.1637   -3.6175   -1.8312 H   0  0  0  0  0  0  0  0  0  0  0  0
   -2.4879   -3.0870   -3.3777 H   0  0  0  0  0  0  0  0  0  0  0  0
   -1.9820   -2.3027   -1.8566 H   0  0  0  0  0  0  0  0  0  0  0  0
   -3.9196    1.1535   -7.1568 H   0  0  0  0  0  0  0  0  0  0  0  0
   -4.9057   -2.4209   -4.4039 H   0  0  0  0  0  0  0  0  0  0  0  0
    2.1244    4.6677    0.2103 H   0  0  0  0  0  0  0  0  0  0  0  0
    4.6764    4.6170    4.3353 H   0  0  0  0  0  0  0  0  0  0  0  0
    5.3582    3.2193    2.4948 H   0  0  0  0  0  0  0  0  0  0  0  0
   -0.9069    6.2555    2.1554 H   0  0  0  0  0  0  0  0  0  0  0  0
   -0.2267    4.8227    1.3778 H   0  0  0  0  0  0  0  0  0  0  0  0
   -0.1392    5.0133    3.1513 H   0  0  0  0  0  0  0  0  0  0  0  0
    3.2900    6.1138    5.0868 H   0  0  0  0  0  0  0  0  0  0  0  0
    5.8064   -0.8317   -0.0312 H   0  0  0  0  0  0  0  0  0  0  0  0
    4.1465   -1.4707   -0.1733 H   0  0  0  0  0  0  0  0  0  0  0  0
    5.2856   -2.2062    0.9594 H   0  0  0  0  0  0  0  0  0  0  0  0
    1.0375   -2.4102   -0.0391 H   0  0  0  0  0  0  0  0  0  0  0  0
   -0.5015   -2.1482    0.8147 H   0  0  0  0  0  0  0  0  0  0  0  0
    0.9886   -2.4679    1.7313 H   0  0  0  0  0  0  0  0  0  0  0  0
  1  2  1  0  0  0  0
  2  3  1  0  0  0  0
  3  4  1  0  0  0  0
  4  5  1  0  0  0  0
  5  6  2  0  0  0  0
  6  7  1  0  0  0  0
  8  9  2  0  0  0  0
  9 10  1  0  0  0  0
 10 11  2  0  0  0  0
 11 12  1  0  0  0  0
 12 13  2  0  0  0  0
  8 13  1  0  0  0  0
 14 15  1  0  0  0  0
 12 14  1  0  0  0  0
 10 16  1  0  0  0  0
 11 17  1  0  0  0  0
  7  8  1  0  0  0  0
 18 19  2  0  0  0  0
 19 20  1  0  0  0  0
 20 21  2  0  0  0  0
 21 22  1  0  0  0  0
 22 23  2  0  0  0  0
 18 23  1  0  0  0  0
 24 25  1  0  0  0  0
 20 24  1  0  0  0  0
 21 26  1  0  0  0  0
  1 18  1  0  0  0  0
 28 29  1  0  0  0  0
 28 30  2  0  0  0  0
 27 28  1  0  0  0  0
  2 27  1  0  0  0  0
 32 33  1  0  0  0  0
 32 34  2  0  0  0  0
 31 32  1  0  0  0  0
  3 31  1  0  0  0  0
  1 35  1  0  0  0  0
  1 36  1  0  0  0  0
  2 37  1  0  0  0  0
  3 38  1  0  0  0  0
  4 39  1  0  0  0  0
  4 40  1  0  0  0  0
  5 41  1  0  0  0  0
  6 42  1  0  0  0  0
  7 43  1  0  0  0  0
  7 44  1  0  0  0  0
  9 45  1  0  0  0  0
 13 46  1  0  0  0  0
 15 47  1  0  0  0  0
 15 48  1  0  0  0  0
 15 49  1  0  0  0  0
 16 50  1  0  0  0  0
 17 51  1  0  0  0  0
 19 52  1  0  0  0  0
 22 53  1  0  0  0  0
 23 54  1  0  0  0  0
 25 55  1  0  0  0  0
 25 56  1  0  0  0  0
 25 57  1  0  0  0  0
 26 58  1  0  0  0  0
 29 59  1  0  0  0  0
 29 60  1  0  0  0  0
 29 61  1  0  0  0  0
 33 62  1  0  0  0  0
 33 63  1  0  0  0  0
 33 64  1  0  0  0  0
M  END
>  <type>
systematic

$$$$
> 775_AKC_acs.jmedchem.3c00056

  Mrv1816 05262309243D              74.70000

 43 45  0  0  0  0            999 V2000
    7.1684   -2.7620   -3.7900 C   0  0  2  0  0  0  0  0  0  0  0  0
    7.3636   -4.0804   -4.5834 C   0  0  2  0  0  0  0  0  0  0  0  0
    8.2047   -5.0223   -3.8094 N   0  3  1  0  0  0  0  0  0  0  0  0
    7.6812   -5.3062   -2.4531 C   0  0  1  0  0  0  0  0  0  0  0  0
    7.4708   -3.9919   -1.6574 C   0  0  2  0  0  0  0  0  0  0  0  0
    6.7186   -3.0374   -2.4430 N   0  0  0  0  0  0  0  0  0  0  0  0
    5.6329   -2.3895   -1.9010 C   0  0  0  0  0  0  0  0  0  0  0  0
    5.8493   -1.5120   -0.8164 C   0  0  0  0  0  0  0  0  0  0  0  0
    4.7817   -0.8164   -0.2286 C   0  0  0  0  0  0  0  0  0  0  0  0
    3.4612   -0.9716   -0.7092 C   0  0  0  0  0  0  0  0  0  0  0  0
    3.2493   -1.8483   -1.8011 C   0  0  0  0  0  0  0  0  0  0  0  0
    4.3134   -2.5655   -2.3966 C   0  0  0  0  0  0  0  0  0  0  0  0
    4.0431   -3.4095   -3.3853 N   0  0  0  0  0  0  0  0  0  0  0  0
    3.6260   -3.0302   -4.4084 O   0  0  0  0  0  0  0  0  0  0  0  0
    4.1997   -4.5571   -3.2404 O   0  0  0  0  0  0  0  0  0  0  0  0
    2.3733   -0.2956   -0.0919 C   0  0  0  0  0  0  0  0  0  0  0  0
    2.4646    0.0145    1.1201 O   0  0  0  0  0  0  0  0  0  0  0  0
    1.2559    0.0054   -0.8202 N   0  0  0  0  0  0  0  0  0  0  0  0
    0.0355    0.4508   -0.3962 C   0  0  0  0  0  0  0  0  0  0  0  0
   -1.7717    0.6919    1.2385 C   0  0  0  0  0  0  0  0  0  0  0  0
   -0.4747    0.2651    0.9101 C   0  0  0  0  0  0  0  0  0  0  0  0
   -0.7910    1.0638   -1.3636 C   0  0  0  0  0  0  0  0  0  0  0  0
   -2.1065    1.4618   -1.0492 C   0  0  0  0  0  0  0  0  0  0  0  0
   -2.6007    1.2776    0.2627 C   0  0  0  0  0  0  0  0  0  0  0  0
   -4.1727    1.7316    0.7110 Cl  0  0  0  0  0  0  0  0  0  0  0  0
   -3.0566    2.1344   -2.2824 Cl  0  0  0  0  0  0  0  0  0  0  0  0
    6.4836   -2.1088   -4.3379 H   0  0  0  0  0  0  0  0  0  0  0  0
    8.1282   -2.2413   -3.7330 H   0  0  0  0  0  0  0  0  0  0  0  0
    7.8546   -3.8651   -5.5344 H   0  0  0  0  0  0  0  0  0  0  0  0
    6.3984   -4.5450   -4.8011 H   0  0  0  0  0  0  0  0  0  0  0  0
    8.2865   -5.8996   -4.3271 H   0  0  0  0  0  0  0  0  0  0  0  0
    9.1382   -4.6152   -3.7147 H   0  0  0  0  0  0  0  0  0  0  0  0
    6.7368   -5.8531   -2.5305 H   0  0  0  0  0  0  0  0  0  0  0  0
    8.3966   -5.9381   -1.9241 H   0  0  0  0  0  0  0  0  0  0  0  0
    8.4468   -3.5577   -1.4173 H   0  0  0  0  0  0  0  0  0  0  0  0
    6.9726   -4.2348   -0.7118 H   0  0  0  0  0  0  0  0  0  0  0  0
    6.7938   -1.3715   -0.4465 H   0  0  0  0  0  0  0  0  0  0  0  0
    4.9863   -0.1885    0.5516 H   0  0  0  0  0  0  0  0  0  0  0  0
    2.2996   -1.9927   -2.1600 H   0  0  0  0  0  0  0  0  0  0  0  0
    1.3375   -0.1200   -1.7802 H   0  0  0  0  0  0  0  0  0  0  0  0
   -2.1095    0.5638    2.1952 H   0  0  0  0  0  0  0  0  0  0  0  0
    0.0727   -0.2046    1.6318 H   0  0  0  0  0  0  0  0  0  0  0  0
   -0.4370    1.2108   -2.3143 H   0  0  0  0  0  0  0  0  0  0  0  0
  1  2  1  0  0  0  0
  2  3  1  0  0  0  0
  3  4  1  0  0  0  0
  4  5  1  0  0  0  0
  5  6  1  0  0  0  0
  1  6  1  0  0  0  0
  8  9  2  0  0  0  0
  9 10  1  0  0  0  0
 10 11  2  0  0  0  0
 11 12  1  0  0  0  0
  7  8  1  0  0  0  0
  7 12  2  0  0  0  0
  6  7  1  0  0  0  0
 12 13  1  0  0  0  0
 13 14  2  0  0  0  0
 13 15  2  0  0  0  0
 10 16  1  0  0  0  0
 16 17  2  0  0  0  0
 16 18  1  0  0  0  0
 18 19  1  0  0  0  0
 20 21  1  0  0  0  0
 22 23  2  0  0  0  0
 23 24  1  0  0  0  0
 20 24  2  0  0  0  0
 21 19  2  0  0  0  0
 19 22  1  0  0  0  0
 24 25  1  0  0  0  0
 23 26  1  0  0  0  0
  1 27  1  0  0  0  0
  1 28  1  0  0  0  0
  2 29  1  0  0  0  0
  2 30  1  0  0  0  0
  3 31  1  0  0  0  0
  3 32  1  0  0  0  0
  4 33  1  0  0  0  0
  4 34  1  0  0  0  0
  5 35  1  0  0  0  0
  5 36  1  0  0  0  0
  8 37  1  0  0  0  0
  9 38  1  0  0  0  0
 11 39  1  0  0  0  0
 18 40  1  0  0  0  0
 20 41  1  0  0  0  0
 21 42  1  0  0  0  0
 22 43  1  0  0  0  0
M  CHG  1   3   1
M  END
$$$$
> 776_AKC_j.exppara.2023.108555

  Mrv1816 05312316143D              61.56000

 59 60  0  0  0  0            999 V2000
  -12.0412    5.0565   -7.3037 C   0  0  0  0  0  0  0  0  0  0  0  0
  -11.2913    4.0111   -6.7098 C   0  0  0  0  0  0  0  0  0  0  0  0
   -9.8825    4.0586   -6.6644 C   0  0  0  0  0  0  0  0  0  0  0  0
   -9.1978    5.1742   -7.1971 C   0  0  0  0  0  0  0  0  0  0  0  0
   -9.9311    6.1948   -7.8317 C   0  0  0  0  0  0  0  0  0  0  0  0
  -11.3355    6.1355   -7.8849 C   0  0  0  0  0  0  0  0  0  0  0  0
  -13.4574    5.0579   -7.3197 C   0  0  0  0  0  0  0  0  0  0  0  0
  -14.1402    4.1502   -6.7933 O   0  0  0  0  0  0  0  0  0  0  0  0
   -9.1884    3.0487   -6.0520 O   0  0  0  0  0  0  0  0  0  0  0  0
   -8.7580    2.0137   -6.9541 C   0  0  0  0  0  0  0  0  0  0  0  0
   -7.8319    5.2572   -7.1300 O   0  0  0  0  0  0  0  0  0  0  0  0
   -7.3458    5.9612   -5.9658 C   0  0  2  0  0  0  0  0  0  0  0  0
   -5.7967    5.9747   -6.0012 C   0  0  2  0  0  0  0  0  0  0  0  0
   -5.1663    6.6520   -4.7500 C   0  0  1  0  0  0  0  0  0  0  0  0
   -3.7375    6.5740   -4.7666 N   0  0  0  0  0  0  0  0  0  0  0  0
   -2.9747    7.2657   -5.5583 N   0  0  0  0  0  0  0  0  0  0  0  0
   -1.7278    6.9718   -5.3624 N   0  0  0  0  0  0  0  0  0  0  0  0
   -1.6563    6.0489   -4.3916 C   0  0  0  0  0  0  0  0  0  0  0  0
   -2.9604    5.7935   -3.9979 C   0  0  0  0  0  0  0  0  0  0  0  0
   -0.4157    5.4507   -3.8658 C   0  0  2  0  0  0  0  0  0  0  0  0
   -0.0376    5.9486   -2.4452 C   0  0  2  0  0  0  0  0  0  0  0  0
    0.2151    7.4785   -2.3643 C   0  0  2  0  0  0  0  0  0  0  0  0
    0.5920    7.9612   -0.9393 C   0  0  2  0  0  0  0  0  0  0  0  0
    0.7732    9.5005   -0.8962 C   0  0  1  0  0  0  0  0  0  0  0  0
    1.1273   10.0446    0.5097 C   0  0  1  0  0  0  0  0  0  0  0  0
    1.3262   11.5834    0.4861 C   0  0  2  0  0  0  0  0  0  0  0  0
    1.6982   12.1622    1.8664 C   0  0  0  0  0  0  0  0  0  0  0  0
   -5.3672    6.6303   -7.1934 O   0  0  0  0  0  0  0  0  0  0  0  0
  -11.7660    3.2072   -6.2934 H   0  0  0  0  0  0  0  0  0  0  0  0
   -9.4404    6.9843   -8.2591 H   0  0  0  0  0  0  0  0  0  0  0  0
  -11.8389    6.8925   -8.3561 H   0  0  0  0  0  0  0  0  0  0  0  0
  -13.9672    5.8297   -7.7564 H   0  0  0  0  0  0  0  0  0  0  0  0
   -8.2044    1.2705   -6.3790 H   0  0  0  0  0  0  0  0  0  0  0  0
   -9.6078    1.5163   -7.4282 H   0  0  0  0  0  0  0  0  0  0  0  0
   -8.0932    2.4063   -7.7267 H   0  0  0  0  0  0  0  0  0  0  0  0
   -7.6709    5.4533   -5.0512 H   0  0  0  0  0  0  0  0  0  0  0  0
   -7.7134    6.9943   -5.9515 H   0  0  0  0  0  0  0  0  0  0  0  0
   -5.4446    4.9398   -6.0433 H   0  0  0  0  0  0  0  0  0  0  0  0
   -5.4650    7.7042   -4.7008 H   0  0  0  0  0  0  0  0  0  0  0  0
   -5.5513    6.1606   -3.8499 H   0  0  0  0  0  0  0  0  0  0  0  0
   -3.2676    5.1358   -3.2774 H   0  0  0  0  0  0  0  0  0  0  0  0
    0.4079    5.6844   -4.5467 H   0  0  0  0  0  0  0  0  0  0  0  0
   -0.5367    4.3632   -3.8514 H   0  0  0  0  0  0  0  0  0  0  0  0
    0.8744    5.4288   -2.1412 H   0  0  0  0  0  0  0  0  0  0  0  0
   -0.8287    5.6737   -1.7422 H   0  0  0  0  0  0  0  0  0  0  0  0
   -0.6913    8.0039   -2.6775 H   0  0  0  0  0  0  0  0  0  0  0  0
    1.0204    7.7426   -3.0566 H   0  0  0  0  0  0  0  0  0  0  0  0
    1.5212    7.4768   -0.6268 H   0  0  0  0  0  0  0  0  0  0  0  0
   -0.1952    7.6718   -0.2382 H   0  0  0  0  0  0  0  0  0  0  0  0
    1.5704    9.7807   -1.5903 H   0  0  0  0  0  0  0  0  0  0  0  0
   -0.1540    9.9753   -1.2306 H   0  0  0  0  0  0  0  0  0  0  0  0
    0.3200    9.7955    1.2046 H   0  0  0  0  0  0  0  0  0  0  0  0
    2.0469    9.5659    0.8587 H   0  0  0  0  0  0  0  0  0  0  0  0
    0.4045   12.0632    0.1462 H   0  0  0  0  0  0  0  0  0  0  0  0
    2.1212   11.8337   -0.2215 H   0  0  0  0  0  0  0  0  0  0  0  0
    1.8333   13.2423    1.7891 H   0  0  0  0  0  0  0  0  0  0  0  0
    0.9050   11.9603    2.5876 H   0  0  0  0  0  0  0  0  0  0  0  0
    2.6285   11.7187    2.2243 H   0  0  0  0  0  0  0  0  0  0  0  0
   -5.7468    6.1003   -7.9268 H   0  0  0  0  0  0  0  0  0  0  0  0
  1  2  2  0  0  0  0
  2  3  1  0  0  0  0
  3  4  2  0  0  0  0
  4  5  1  0  0  0  0
  5  6  2  0  0  0  0
  1  6  1  0  0  0  0
  7  8  2  0  0  0  0
  1  7  1  0  0  0  0
  9 10  1  0  0  0  0
  3  9  1  0  0  0  0
 12 13  1  0  0  0  0
 13 14  1  0  0  0  0
 15 16  1  0  0  0  0
 16 17  2  0  0  0  0
 17 18  1  0  0  0  0
 18 19  2  0  0  0  0
 15 19  1  0  0  0  0
 20 21  1  0  0  0  0
 21 22  1  0  0  0  0
 22 23  1  0  0  0  0
 23 24  1  0  0  0  0
 24 25  1  0  0  0  0
 25 26  1  0  0  0  0
 26 27  1  0  0  0  0
 18 20  1  0  0  0  0
 14 15  1  0  0  0  0
 13 28  1  0  0  0  0
 11 12  1  0  0  0  0
  4 11  1  0  0  0  0
  2 29  1  0  0  0  0
  5 30  1  0  0  0  0
  6 31  1  0  0  0  0
  7 32  1  0  0  0  0
 10 33  1  0  0  0  0
 10 34  1  0  0  0  0
 10 35  1  0  0  0  0
 12 36  1  0  0  0  0
 12 37  1  0  0  0  0
 13 38  1  0  0  0  0
 14 39  1  0  0  0  0
 14 40  1  0  0  0  0
 19 41  1  0  0  0  0
 20 42  1  0  0  0  0
 20 43  1  0  0  0  0
 21 44  1  0  0  0  0
 21 45  1  0  0  0  0
 22 46  1  0  0  0  0
 22 47  1  0  0  0  0
 23 48  1  0  0  0  0
 23 49  1  0  0  0  0
 24 50  1  0  0  0  0
 24 51  1  0  0  0  0
 25 52  1  0  0  0  0
 25 53  1  0  0  0  0
 26 54  1  0  0  0  0
 26 55  1  0  0  0  0
 27 56  1  0  0  0  0
 27 57  1  0  0  0  0
 27 58  1  0  0  0  0
 28 59  1  0  0  0  0
M  END
>  <type>
systematic

$$$$
> 777_AKC_d3md00081h

  Mrv1816 05312316253D             115.72000

 72 75  0  0  0  0            999 V2000
    1.3560    6.4126    5.3469 C   0  0  0  0  0  0  0  0  0  0  0  0
    0.0105    5.9827    5.3174 C   0  0  0  0  0  0  0  0  0  0  0  0
   -0.6153    5.5437    6.5001 C   0  0  0  0  0  0  0  0  0  0  0  0
    0.0939    5.5036    7.7215 C   0  0  0  0  0  0  0  0  0  0  0  0
    1.4541    5.8858    7.7236 C   0  0  0  0  0  0  0  0  0  0  0  0
    2.1050    6.3021    6.5432 C   0  0  0  0  0  0  0  0  0  0  0  0
    3.4366    6.6390    6.5784 O   0  0  0  0  0  0  0  0  0  0  0  0
    4.2654    5.5503    6.4312 C   0  0  0  0  0  0  0  0  0  0  0  0
    4.7635    4.8512    7.5561 C   0  0  0  0  0  0  0  0  0  0  0  0
    4.6725    5.1430    5.1429 C   0  0  0  0  0  0  0  0  0  0  0  0
    5.5432    4.0512    4.9697 C   0  0  0  0  0  0  0  0  0  0  0  0
    6.0212    3.3319    6.0891 C   0  0  0  0  0  0  0  0  0  0  0  0
    5.6067    3.7355    7.3786 C   0  0  0  0  0  0  0  0  0  0  0  0
   -0.7045    6.0072    4.1503 O   0  0  0  0  0  0  0  0  0  0  0  0
   -0.5825    4.7772    3.4135 C   0  0  0  0  0  0  0  0  0  0  0  0
   -0.5818    5.0719    8.9758 C   0  0  2  0  0  0  0  0  0  0  0  0
   -0.8625    3.6460    8.9945 C   0  0  0  0  0  0  0  0  0  0  0  0
    0.0885    2.7118    9.1244 C   0  0  0  0  0  0  0  0  0  0  0  0
    1.9079    6.9112    4.1946 O   0  0  0  0  0  0  0  0  0  0  0  0
    4.4219    5.2169    8.8294 O   0  0  0  0  0  0  0  0  0  0  0  0
    5.3739    6.1022    9.4423 C   0  0  0  0  0  0  0  0  0  0  0  0
    6.9624    2.1922    5.9151 C   0  0  1  0  0  0  0  0  0  0  0  0
    1.9692    8.3548    4.1583 C   0  0  1  0  0  0  0  0  0  0  0  0
    2.4576    8.8099    2.8314 C   0  0  0  0  0  0  0  0  0  0  0  0
    3.5048    9.7115    0.3461 C   0  0  0  0  0  0  0  0  0  0  0  0
    2.3239   10.2742    0.8692 C   0  0  0  0  0  0  0  0  0  0  0  0
    1.7980    9.8234    2.0962 C   0  0  0  0  0  0  0  0  0  0  0  0
    3.6355    8.2458    2.2911 C   0  0  0  0  0  0  0  0  0  0  0  0
    4.1517    8.6840    1.0595 C   0  0  0  0  0  0  0  0  0  0  0  0
    4.0462   10.2007   -0.8133 O   0  0  0  0  0  0  0  0  0  0  0  0
    3.6403    9.4797   -1.9878 C   0  0  0  0  0  0  0  0  0  0  0  0
    8.3831    2.6342    5.7200 N   0  0  1  0  0  0  0  0  0  0  0  0
   10.4226    3.7963    6.6490 C   0  0  1  0  0  0  0  0  0  0  0  0
    8.9922    3.2748    6.9327 C   0  0  1  0  0  0  0  0  0  0  0  0
    9.2487    1.5393    5.1833 C   0  0  1  0  0  0  0  0  0  0  0  0
   10.7987    2.0479    5.0441 C   0  0  2  0  0  0  0  0  0  0  0  0
   11.2989    2.7321    6.2377 O   0  0  0  0  0  0  0  0  0  0  0  0
   -1.5973    5.2572    6.4659 H   0  0  0  0  0  0  0  0  0  0  0  0
    1.9816    5.8609    8.5967 H   0  0  0  0  0  0  0  0  0  0  0  0
    4.3386    5.6466    4.3224 H   0  0  0  0  0  0  0  0  0  0  0  0
    5.8280    3.7881    4.0212 H   0  0  0  0  0  0  0  0  0  0  0  0
    5.9391    3.2324    8.2064 H   0  0  0  0  0  0  0  0  0  0  0  0
   -1.1906    4.8584    2.5128 H   0  0  0  0  0  0  0  0  0  0  0  0
    0.4521    4.5969    3.1106 H   0  0  0  0  0  0  0  0  0  0  0  0
   -0.9450    3.9246    3.9946 H   0  0  0  0  0  0  0  0  0  0  0  0
   -1.5145    5.6347    9.0736 H   0  0  0  0  0  0  0  0  0  0  0  0
    0.0182    5.3185    9.8569 H   0  0  0  0  0  0  0  0  0  0  0  0
   -1.8072    3.3473    8.9017 H   0  0  0  0  0  0  0  0  0  0  0  0
    1.0457    2.9576    9.2179 H   0  0  0  0  0  0  0  0  0  0  0  0
   -0.1547    1.7504    9.1301 H   0  0  0  0  0  0  0  0  0  0  0  0
    5.0538    6.2814   10.4688 H   0  0  0  0  0  0  0  0  0  0  0  0
    6.3757    5.6649    9.4675 H   0  0  0  0  0  0  0  0  0  0  0  0
    5.4105    7.0628    8.9250 H   0  0  0  0  0  0  0  0  0  0  0  0
    6.9023    1.5089    6.7688 H   0  0  0  0  0  0  0  0  0  0  0  0
    6.6230    1.6244    5.0443 H   0  0  0  0  0  0  0  0  0  0  0  0
    0.9871    8.7895    4.3781 H   0  0  0  0  0  0  0  0  0  0  0  0
    2.6786    8.7151    4.9092 H   0  0  0  0  0  0  0  0  0  0  0  0
    1.8518   11.0215    0.3578 H   0  0  0  0  0  0  0  0  0  0  0  0
    0.9408   10.2528    2.4540 H   0  0  0  0  0  0  0  0  0  0  0  0
    4.1308    7.5100    2.7940 H   0  0  0  0  0  0  0  0  0  0  0  0
    5.0031    8.2574    0.6900 H   0  0  0  0  0  0  0  0  0  0  0  0
    4.1251    9.9402   -2.8485 H   0  0  0  0  0  0  0  0  0  0  0  0
    3.9536    8.4342   -1.9400 H   0  0  0  0  0  0  0  0  0  0  0  0
    2.5591    9.5336   -2.1363 H   0  0  0  0  0  0  0  0  0  0  0  0
   10.3997    4.5779    5.8850 H   0  0  0  0  0  0  0  0  0  0  0  0
   10.8231    4.2332    7.5660 H   0  0  0  0  0  0  0  0  0  0  0  0
    8.3878    4.1261    7.2498 H   0  0  0  0  0  0  0  0  0  0  0  0
    9.0384    2.5645    7.7655 H   0  0  0  0  0  0  0  0  0  0  0  0
    9.2332    0.6720    5.8496 H   0  0  0  0  0  0  0  0  0  0  0  0
    8.9000    1.2285    4.1952 H   0  0  0  0  0  0  0  0  0  0  0  0
   10.9878    2.7551    4.1926 H   0  0  0  0  0  0  0  0  0  0  0  0
   11.5393    1.2239    4.8691 H   0  0  0  0  0  0  0  0  0  0  0  0
  1  2  1  0  0  0  0
  2  3  2  0  0  0  0
  3  4  1  0  0  0  0
  4  5  2  0  0  0  0
  5  6  1  0  0  0  0
  1  6  2  0  0  0  0
  6  7  1  0  0  0  0
  7  8  1  0  0  0  0
 10 11  1  0  0  0  0
 11 12  2  0  0  0  0
 12 13  1  0  0  0  0
  9 13  2  0  0  0  0
  9  8  1  0  0  0  0
  8 10  2  0  0  0  0
  2 14  1  0  0  0  0
 14 15  1  0  0  0  0
  4 16  1  0  0  0  0
 16 17  1  0  0  0  0
 17 18  2  0  0  0  0
  1 19  1  0  0  0  0
  9 20  1  0  0  0  0
 20 21  1  0  0  0  0
 12 22  1  0  0  0  0
 19 23  1  0  0  0  0
 23 24  1  0  0  0  0
 25 26  1  0  0  0  0
 26 27  2  0  0  0  0
 28 29  1  0  0  0  0
 25 29  2  0  0  0  0
 27 24  1  0  0  0  0
 24 28  2  0  0  0  0
 25 30  1  0  0  0  0
 30 31  1  0  0  0  0
 22 32  1  0  0  0  0
 33 34  1  0  0  0  0
 35 36  1  0  0  0  0
 36 37  1  0  0  0  0
 33 37  1  0  0  0  0
 34 32  1  0  0  0  0
 32 35  1  0  0  0  0
  3 38  1  0  0  0  0
  5 39  1  0  0  0  0
 10 40  1  0  0  0  0
 11 41  1  0  0  0  0
 13 42  1  0  0  0  0
 15 43  1  0  0  0  0
 15 44  1  0  0  0  0
 15 45  1  0  0  0  0
 16 46  1  0  0  0  0
 16 47  1  0  0  0  0
 17 48  1  0  0  0  0
 18 49  1  0  0  0  0
 18 50  1  0  0  0  0
 21 51  1  0  0  0  0
 21 52  1  0  0  0  0
 21 53  1  0  0  0  0
 22 54  1  0  0  0  0
 22 55  1  0  0  0  0
 23 56  1  0  0  0  0
 23 57  1  0  0  0  0
 26 58  1  0  0  0  0
 27 59  1  0  0  0  0
 28 60  1  0  0  0  0
 29 61  1  0  0  0  0
 31 62  1  0  0  0  0
 31 63  1  0  0  0  0
 31 64  1  0  0  0  0
 33 65  1  0  0  0  0
 33 66  1  0  0  0  0
 34 67  1  0  0  0  0
 34 68  1  0  0  0  0
 35 69  1  0  0  0  0
 35 70  1  0  0  0  0
 36 71  1  0  0  0  0
 36 72  1  0  0  0  0
M  END
$$$$
> 778_AKC_md21060333

  Mrv1816 06022311303D             183.10000

 35 37  0  0  0  0            999 V2000
    1.7292   -0.2572   -2.4584 C   0  0  0  0  0  0  0  0  0  0  0  0
    2.1399   -0.8210   -3.6676 C   0  0  0  0  0  0  0  0  0  0  0  0
    2.8723   -2.0182   -3.6765 C   0  0  0  0  0  0  0  0  0  0  0  0
    3.2346   -2.5552   -2.4913 C   0  0  0  0  0  0  0  0  0  0  0  0
    2.8964   -1.9404   -1.2861 C   0  0  0  0  0  0  0  0  0  0  0  0
    2.0461   -0.8017   -1.2538 C   0  0  0  0  0  0  0  0  0  0  0  0
    1.8150   -0.2501   -4.7366 O   0  0  0  0  0  0  0  0  0  0  0  0
    3.3826   -2.4456   -0.2471 O   0  0  0  0  0  0  0  0  0  0  0  0
    3.2191   -2.6659   -4.9385 C   0  0  0  0  0  0  0  0  0  0  0  0
    1.5202   -0.2564    0.0431 C   0  0  2  0  0  0  0  0  0  0  0  0
   -0.2726   -0.8305    1.7124 C   0  0  2  0  0  0  0  0  0  0  0  0
    0.9277   -1.4054    0.9413 C   0  0  1  0  0  0  0  0  0  0  0  0
    0.2878    0.7309   -0.0979 C   0  0  1  0  0  0  0  0  0  0  0  0
   -0.8412    0.3026    0.8551 C   0  0  1  0  0  0  0  0  0  0  0  0
    2.6788    0.4594    0.8213 C   0  0  0  0  0  0  0  0  0  0  0  0
    0.4798    2.2726   -0.2288 C   0  0  0  0  0  0  0  0  0  0  0  0
   -1.0344    0.1509   -0.6613 C   0  0  1  0  0  0  0  0  0  0  0  0
    1.1730    0.5604   -2.5157 H   0  0  0  0  0  0  0  0  0  0  0  0
    3.7467   -3.4071   -2.4665 H   0  0  0  0  0  0  0  0  0  0  0  0
    3.8323   -1.9936   -5.5414 H   0  0  0  0  0  0  0  0  0  0  0  0
    2.3077   -2.9034   -5.4918 H   0  0  0  0  0  0  0  0  0  0  0  0
    3.7779   -3.5955   -4.8015 H   0  0  0  0  0  0  0  0  0  0  0  0
    0.0558   -0.4204    2.6720 H   0  0  0  0  0  0  0  0  0  0  0  0
   -1.0335   -1.5925    1.8950 H   0  0  0  0  0  0  0  0  0  0  0  0
    0.5629   -2.2361    0.3276 H   0  0  0  0  0  0  0  0  0  0  0  0
    1.6536   -1.8166    1.6485 H   0  0  0  0  0  0  0  0  0  0  0  0
   -1.3644    1.1247    1.3479 H   0  0  0  0  0  0  0  0  0  0  0  0
    3.4897   -0.2267    1.0676 H   0  0  0  0  0  0  0  0  0  0  0  0
    3.1032    1.2727    0.2303 H   0  0  0  0  0  0  0  0  0  0  0  0
    2.3100    0.8770    1.7609 H   0  0  0  0  0  0  0  0  0  0  0  0
    0.8187    2.6894    0.7211 H   0  0  0  0  0  0  0  0  0  0  0  0
    1.2243    2.4953   -0.9928 H   0  0  0  0  0  0  0  0  0  0  0  0
   -0.4488    2.7765   -0.5026 H   0  0  0  0  0  0  0  0  0  0  0  0
   -1.7483    0.8505   -1.0984 H   0  0  0  0  0  0  0  0  0  0  0  0
   -1.0113   -0.8715   -1.0443 H   0  0  0  0  0  0  0  0  0  0  0  0
  1  2  1  0  0  0  0
  2  3  1  0  0  0  0
  3  4  2  0  0  0  0
  4  5  1  0  0  0  0
  5  6  1  0  0  0  0
  1  6  2  0  0  0  0
  2  7  2  0  0  0  0
  5  8  2  0  0  0  0
  3  9  1  0  0  0  0
  6 10  1  0  0  0  0
 11 12  1  0  0  0  0
 13 14  1  0  0  0  0
 11 14  1  0  0  0  0
 12 10  1  0  0  0  0
 10 13  1  0  0  0  0
 10 15  1  0  0  0  0
 13 16  1  0  0  0  0
 13 17  1  0  0  0  0
 14 17  1  0  0  0  0
  1 18  1  0  0  0  0
  4 19  1  0  0  0  0
  9 20  1  0  0  0  0
  9 21  1  0  0  0  0
  9 22  1  0  0  0  0
 11 23  1  0  0  0  0
 11 24  1  0  0  0  0
 12 25  1  0  0  0  0
 12 26  1  0  0  0  0
 14 27  1  0  0  0  0
 15 28  1  0  0  0  0
 15 29  1  0  0  0  0
 15 30  1  0  0  0  0
 16 31  1  0  0  0  0
 16 32  1  0  0  0  0
 16 33  1  0  0  0  0
 17 34  1  0  0  0  0
 17 35  1  0  0  0  0
M  END
$$$$
> 779_AKC_j.ejmech.2023.115524

  Mrv0541 06072313513D              79.95000

 47 50  0  0  0  0            999 V2000
   -6.5132  -10.2999   -2.2173 C   0  0  0  0  0  0  0  0  0  0  0  0
   -7.1392  -11.5612   -2.3670 C   0  0  0  0  0  0  0  0  0  0  0  0
   -6.4014  -12.6808   -2.7900 C   0  0  0  0  0  0  0  0  0  0  0  0
   -5.0315  -12.5539   -3.0803 C   0  0  0  0  0  0  0  0  0  0  0  0
   -4.3980  -11.3042   -2.9526 C   0  0  0  0  0  0  0  0  0  0  0  0
   -5.1330  -10.1842   -2.5164 C   0  0  0  0  0  0  0  0  0  0  0  0
   -4.5189   -8.9896   -2.3652 N   0  0  0  0  0  0  0  0  0  0  0  0
   -5.1666   -7.8789   -1.9337 C   0  0  0  0  0  0  0  0  0  0  0  0
   -6.5106   -7.9373   -1.6170 N   0  0  0  0  0  0  0  0  0  0  0  0
   -7.1805   -9.1348   -1.7652 C   0  0  0  0  0  0  0  0  0  0  0  0
   -8.4023   -9.2245   -1.4840 O   0  0  0  0  0  0  0  0  0  0  0  0
   -7.2414   -6.7958   -1.0909 C   0  0  0  0  0  0  0  0  0  0  0  0
   -4.3508   -6.7315   -1.8096 C   0  0  0  0  0  0  0  0  0  0  0  0
   -3.4109   -6.6483   -0.7577 C   0  0  0  0  0  0  0  0  0  0  0  0
   -4.4718   -5.6564   -2.7182 C   0  0  0  0  0  0  0  0  0  0  0  0
   -3.7196   -4.4832   -2.5246 C   0  0  0  0  0  0  0  0  0  0  0  0
   -2.8350   -4.3748   -1.4337 C   0  0  0  0  0  0  0  0  0  0  0  0
   -2.6539   -5.4772   -0.5727 C   0  0  0  0  0  0  0  0  0  0  0  0
   -2.1567   -3.1996   -1.2504 O   0  0  0  0  0  0  0  0  0  0  0  0
   -2.6860   -2.3911   -0.1780 C   0  0  1  0  0  0  0  0  0  0  0  0
   -2.0865   -1.0479   -0.2580 C   0  0  0  0  0  0  0  0  0  0  0  0
   -2.8354   -0.0551   -0.4183 O   0  0  0  0  0  0  0  0  0  0  0  0
   -0.7339   -0.9383   -0.1449 N   0  0  0  0  0  0  0  0  0  0  0  0
    0.0210    0.1959   -0.0948 C   0  0  0  0  0  0  0  0  0  0  0  0
   -0.5116    1.4496   -0.1595 N   0  0  0  0  0  0  0  0  0  0  0  0
    1.4165    0.0641    0.0656 C   0  0  0  0  0  0  0  0  0  0  0  0
    2.2141    1.2183    0.1735 C   0  0  0  0  0  0  0  0  0  0  0  0
    1.6223    2.4922    0.1094 C   0  0  0  0  0  0  0  0  0  0  0  0
    0.2309    2.5840   -0.0677 C   0  0  0  0  0  0  0  0  0  0  0  0
   -8.1337  -11.6809   -2.1623 H   0  0  0  0  0  0  0  0  0  0  0  0
   -6.8624  -13.5871   -2.8826 H   0  0  0  0  0  0  0  0  0  0  0  0
   -4.4963  -13.3709   -3.3833 H   0  0  0  0  0  0  0  0  0  0  0  0
   -3.4018  -11.2163   -3.1697 H   0  0  0  0  0  0  0  0  0  0  0  0
   -8.1082   -6.5760   -1.7198 H   0  0  0  0  0  0  0  0  0  0  0  0
   -6.6603   -5.8775   -1.0218 H   0  0  0  0  0  0  0  0  0  0  0  0
   -7.5903   -7.0190   -0.0798 H   0  0  0  0  0  0  0  0  0  0  0  0
   -3.2806   -7.4316   -0.1117 H   0  0  0  0  0  0  0  0  0  0  0  0
   -5.1107   -5.7159   -3.5166 H   0  0  0  0  0  0  0  0  0  0  0  0
   -3.8211   -3.7024   -3.1775 H   0  0  0  0  0  0  0  0  0  0  0  0
   -1.9767   -5.4276    0.1915 H   0  0  0  0  0  0  0  0  0  0  0  0
   -3.7785   -2.3083   -0.2362 H   0  0  0  0  0  0  0  0  0  0  0  0
   -2.4217   -2.8257    0.7914 H   0  0  0  0  0  0  0  0  0  0  0  0
   -0.2501   -1.7753   -0.0713 H   0  0  0  0  0  0  0  0  0  0  0  0
    1.8510   -0.8606    0.1130 H   0  0  0  0  0  0  0  0  0  0  0  0
    3.2229    1.1313    0.3020 H   0  0  0  0  0  0  0  0  0  0  0  0
    2.1941    3.3365    0.1941 H   0  0  0  0  0  0  0  0  0  0  0  0
   -0.2239    3.4980   -0.1187 H   0  0  0  0  0  0  0  0  0  0  0  0
  1  2  1  0  0  0  0
  1  6  2  0  0  0  0
  1 10  1  0  0  0  0
  2  3  2  0  0  0  0
  3  4  1  0  0  0  0
  4  5  2  0  0  0  0
  5  6  1  0  0  0  0
  6  7  1  0  0  0  0
  7  8  2  0  0  0  0
  8  9  1  0  0  0  0
  9 10  1  0  0  0  0
 10 11  2  0  0  0  0
  9 12  1  0  0  0  0
  8 13  1  0  0  0  0
 14 13  1  0  0  0  0
 13 15  2  0  0  0  0
 14 18  2  0  0  0  0
 15 16  1  0  0  0  0
 16 17  2  0  0  0  0
 17 18  1  0  0  0  0
 17 19  1  0  0  0  0
 19 20  1  0  0  0  0
 20 21  1  0  0  0  0
 21 22  2  0  0  0  0
 21 23  1  0  0  0  0
 23 24  1  0  0  0  0
 25 24  1  0  0  0  0
 24 26  2  0  0  0  0
 25 29  2  0  0  0  0
 26 27  1  0  0  0  0
 27 28  2  0  0  0  0
 28 29  1  0  0  0  0
  2 30  1  0  0  0  0
  3 31  1  0  0  0  0
  4 32  1  0  0  0  0
  5 33  1  0  0  0  0
 12 34  1  0  0  0  0
 12 35  1  0  0  0  0
 12 36  1  0  0  0  0
 14 37  1  0  0  0  0
 15 38  1  0  0  0  0
 16 39  1  0  0  0  0
 18 40  1  0  0  0  0
 20 41  1  0  0  0  0
 20 42  1  0  0  0  0
 23 43  1  0  0  0  0
 26 44  1  0  0  0  0
 27 45  1  0  0  0  0
 28 46  1  0  0  0  0
 29 47  1  0  0  0  0
M  END
$$$$
> 780_AKC_rs.3.rs-2711791/v1

  Mrv0541 06072313553D              89.53000

 52 55  0  0  0  0            999 V2000
    0.9271   -0.3556   -0.2927 C   0  0  0  0  0  0  0  0  0  0  0  0
   -0.8384    0.0919   -0.4005 S   0  0  0  0  0  0  0  0  0  0  0  0
   -0.8034    1.8375   -0.2186 C   0  0  0  0  0  0  0  0  0  0  0  0
   -0.7007    2.6546   -1.3579 C   0  0  0  0  0  0  0  0  0  0  0  0
   -0.5418    4.0413   -1.2128 C   0  0  0  0  0  0  0  0  0  0  0  0
   -0.4840    4.6093    0.0732 C   0  0  0  0  0  0  0  0  0  0  0  0
   -0.2548    6.3463    0.2325 S   0  0  0  0  0  0  0  0  0  0  0  0
   -0.9648    6.6854    1.8037 C   0  0  0  0  0  0  0  0  0  0  0  0
   -1.4470    7.9785    2.0847 C   0  0  0  0  0  0  0  0  0  0  0  0
   -2.1031    8.2307    3.3007 C   0  0  0  0  0  0  0  0  0  0  0  0
   -2.2864    7.1918    4.2285 C   0  0  0  0  0  0  0  0  0  0  0  0
   -1.7751    5.9103    3.9538 C   0  0  0  0  0  0  0  0  0  0  0  0
   -1.0721    5.6374    2.7523 C   0  0  0  0  0  0  0  0  0  0  0  0
   -0.5106    4.3838    2.5115 N   0  0  0  0  0  0  0  0  0  0  0  0
    0.1774    3.6972    3.6021 C   0  0  1  0  0  0  0  0  0  0  0  0
    1.5553    3.0521    3.2616 C   0  0  1  0  0  0  0  0  0  0  0  0
    2.4022    2.6023    4.5041 C   0  0  2  0  0  0  0  0  0  0  0  0
    1.6380    1.5105    5.3261 C   0  0  2  0  0  0  0  0  0  0  0  0
    2.4973    0.9586    6.4894 C   0  0  2  0  0  0  0  0  0  0  0  0
    2.9628    2.1178    7.3988 C   0  0  2  0  0  0  0  0  0  0  0  0
    3.6881    3.2099    6.5707 C   0  0  2  0  0  0  0  0  0  0  0  0
    2.8563    3.7166    5.4234 N   0  3  1  0  0  0  0  0  0  0  0  0
    3.5415    4.8567    4.7371 C   0  0  0  0  0  0  0  0  0  0  0  0
   -0.6065    3.8121    1.2421 C   0  0  0  0  0  0  0  0  0  0  0  0
   -0.8041    2.4195    1.0641 C   0  0  0  0  0  0  0  0  0  0  0  0
    1.0387   -1.4307   -0.4232 H   0  0  0  0  0  0  0  0  0  0  0  0
    1.3175   -0.0663    0.6832 H   0  0  0  0  0  0  0  0  0  0  0  0
    1.4883    0.1628   -1.0712 H   0  0  0  0  0  0  0  0  0  0  0  0
   -0.7222    2.2460   -2.2950 H   0  0  0  0  0  0  0  0  0  0  0  0
   -0.4542    4.6271   -2.0465 H   0  0  0  0  0  0  0  0  0  0  0  0
   -1.3278    8.7347    1.4057 H   0  0  0  0  0  0  0  0  0  0  0  0
   -2.4567    9.1671    3.5048 H   0  0  0  0  0  0  0  0  0  0  0  0
   -2.7913    7.3675    5.1005 H   0  0  0  0  0  0  0  0  0  0  0  0
   -1.9260    5.1704    4.6435 H   0  0  0  0  0  0  0  0  0  0  0  0
    0.3659    4.3875    4.4300 H   0  0  0  0  0  0  0  0  0  0  0  0
   -0.4977    2.9273    3.9796 H   0  0  0  0  0  0  0  0  0  0  0  0
    1.3976    2.1745    2.6347 H   0  0  0  0  0  0  0  0  0  0  0  0
    2.1307    3.7464    2.6493 H   0  0  0  0  0  0  0  0  0  0  0  0
    3.2992    2.1201    4.0963 H   0  0  0  0  0  0  0  0  0  0  0  0
    1.3455    0.6812    4.6779 H   0  0  0  0  0  0  0  0  0  0  0  0
    0.7275    1.9346    5.7581 H   0  0  0  0  0  0  0  0  0  0  0  0
    3.3678    0.4295    6.0917 H   0  0  0  0  0  0  0  0  0  0  0  0
    1.9083    0.2488    7.0773 H   0  0  0  0  0  0  0  0  0  0  0  0
    3.6277    1.7303    8.1766 H   0  0  0  0  0  0  0  0  0  0  0  0
    2.0916    2.5595    7.8893 H   0  0  0  0  0  0  0  0  0  0  0  0
    4.6345    2.8019    6.2006 H   0  0  0  0  0  0  0  0  0  0  0  0
    3.9272    4.0315    7.2533 H   0  0  0  0  0  0  0  0  0  0  0  0
    2.0136    4.1169    5.8423 H   0  0  0  0  0  0  0  0  0  0  0  0
    2.8440    5.4046    4.1052 H   0  0  0  0  0  0  0  0  0  0  0  0
    3.9253    5.5824    5.4543 H   0  0  0  0  0  0  0  0  0  0  0  0
    4.3730    4.5075    4.1221 H   0  0  0  0  0  0  0  0  0  0  0  0
   -0.9266    1.8146    1.8778 H   0  0  0  0  0  0  0  0  0  0  0  0
  1  2  1  0  0  0  0
  2  3  1  0  0  0  0
  3  4  2  0  0  0  0
  4  5  1  0  0  0  0
  5  6  2  0  0  0  0
  6  7  1  0  0  0  0
  7  8  1  0  0  0  0
  8  9  2  0  0  0  0
  9 10  1  0  0  0  0
 10 11  2  0  0  0  0
 11 12  1  0  0  0  0
 12 13  2  0  0  0  0
  8 13  1  0  0  0  0
 13 14  1  0  0  0  0
 14 15  1  0  0  0  0
 15 16  1  0  0  0  0
 16 17  1  0  0  0  0
 17 18  1  0  0  0  0
 18 19  1  0  0  0  0
 19 20  1  0  0  0  0
 20 21  1  0  0  0  0
 21 22  1  0  0  0  0
 17 22  1  0  0  0  0
 22 23  1  0  0  0  0
 14 24  1  0  0  0  0
  6 24  1  0  0  0  0
 24 25  2  0  0  0  0
  3 25  1  0  0  0  0
  1 26  1  0  0  0  0
  1 27  1  0  0  0  0
  1 28  1  0  0  0  0
  4 29  1  0  0  0  0
  5 30  1  0  0  0  0
  9 31  1  0  0  0  0
 10 32  1  0  0  0  0
 11 33  1  0  0  0  0
 12 34  1  0  0  0  0
 15 35  1  0  0  0  0
 15 36  1  0  0  0  0
 16 37  1  0  0  0  0
 16 38  1  0  0  0  0
 17 39  1  0  0  0  0
 18 40  1  0  0  0  0
 18 41  1  0  0  0  0
 19 42  1  0  0  0  0
 19 43  1  0  0  0  0
 20 44  1  0  0  0  0
 20 45  1  0  0  0  0
 21 46  1  0  0  0  0
 21 47  1  0  0  0  0
 22 48  1  0  0  0  0
 23 49  1  0  0  0  0
 23 50  1  0  0  0  0
 23 51  1  0  0  0  0
 25 52  1  0  0  0  0
M  CHG  1  22   1
M  END
>  <type>
common

$$$$
> 781_AKC_cbdv.202300523
Molecule
 OpenBabel06192308543D
Time = Mon Jun 19 08:54:26 2023
 47 48  0  0  0  0  0  0  0  0999 V2000
   -6.3959   -0.8395    3.1802 C   0  0  0  0  0  0  0  0  0  0  0  0
   -5.0038   -0.4226    2.8217 C   0  0  0  0  0  0  0  0  0  0  0  0
   -4.9410    0.1924    1.4175 C   0  0  0  0  0  0  0  0  0  0  0  0
   -5.6633   -0.7288    0.4218 C   0  0  1  0  0  0  0  0  0  0  0  0
   -7.1542   -0.8175    0.7968 C   0  0  0  0  0  0  0  0  0  0  0  0
   -7.3542   -1.0211    2.2633 C   0  0  0  0  0  0  0  0  0  0  0  0
   -6.6357   -1.0689    4.6339 C   0  0  0  0  0  0  0  0  0  0  0  0
   -5.4379   -0.2993   -1.0646 C   0  0  0  0  0  0  0  0  0  0  0  0
   -6.2231   -1.2217   -2.0024 C   0  0  0  0  0  0  0  0  0  0  0  0
   -3.9404   -0.3540   -1.3885 C   0  0  0  0  0  0  0  0  0  0  0  0
   -5.9467    1.1017   -1.2116 N   0  0  0  0  0  0  0  0  0  0  0  0
   -5.9092    1.8819   -2.2973 C   0  0  0  0  0  0  0  0  0  0  0  0
   -6.6181    3.4592   -2.2080 S   0  0  0  0  0  0  0  0  0  0  0  0
   -5.4177    1.3804   -3.5072 N   0  0  0  0  0  0  0  0  0  0  0  0
   -5.1908    2.2880   -4.5441 N   0  0  0  0  0  0  0  0  0  0  0  0
   -4.1717    3.2278   -4.4212 C   0  0  0  0  0  0  0  0  0  0  0  0
   -3.3674    3.1605   -3.5114 O   0  0  0  0  0  0  0  0  0  0  0  0
   -4.0655    4.2029   -5.5384 C   0  0  0  0  0  0  0  0  0  0  0  0
   -2.7320    5.2859   -7.2094 C   0  0  0  0  0  0  0  0  0  0  0  0
   -2.8321    4.3526   -6.1690 C   0  0  0  0  0  0  0  0  0  0  0  0
   -5.1536    4.9745   -5.9380 C   0  0  0  0  0  0  0  0  0  0  0  0
   -4.9627    5.8856   -6.9858 C   0  0  0  0  0  0  0  0  0  0  0  0
   -3.7775    6.0361   -7.6085 N   0  0  0  0  0  0  0  0  0  0  0  0
   -4.6029    0.2981    3.5644 H   0  0  0  0  0  0  0  0  0  0  0  0
   -4.3297   -1.3042    2.8844 H   0  0  0  0  0  0  0  0  0  0  0  0
   -3.8851    0.3445    1.1243 H   0  0  0  0  0  0  0  0  0  0  0  0
   -5.4021    1.1980    1.4346 H   0  0  0  0  0  0  0  0  0  0  0  0
   -5.2254   -1.7570    0.5198 H   0  0  0  0  0  0  0  0  0  0  0  0
   -7.6302   -1.6529    0.2383 H   0  0  0  0  0  0  0  0  0  0  0  0
   -7.7075    0.0923    0.4803 H   0  0  0  0  0  0  0  0  0  0  0  0
   -8.3602   -1.3282    2.5413 H   0  0  0  0  0  0  0  0  0  0  0  0
   -7.6937   -1.2430    4.8723 H   0  0  0  0  0  0  0  0  0  0  0  0
   -6.0773   -1.9472    4.9935 H   0  0  0  0  0  0  0  0  0  0  0  0
   -6.3058   -0.2129    5.2416 H   0  0  0  0  0  0  0  0  0  0  0  0
   -7.3066   -1.0496   -1.9467 H   0  0  0  0  0  0  0  0  0  0  0  0
   -6.0520   -2.2777   -1.7484 H   0  0  0  0  0  0  0  0  0  0  0  0
   -5.9392   -1.1104   -3.0559 H   0  0  0  0  0  0  0  0  0  0  0  0
   -3.3899    0.5082   -0.9892 H   0  0  0  0  0  0  0  0  0  0  0  0
   -3.4783   -1.2519   -0.9477 H   0  0  0  0  0  0  0  0  0  0  0  0
   -3.7254   -0.4223   -2.4630 H   0  0  0  0  0  0  0  0  0  0  0  0
   -6.4457    1.4521   -0.3772 H   0  0  0  0  0  0  0  0  0  0  0  0
   -4.6434    0.6796   -3.4692 H   0  0  0  0  0  0  0  0  0  0  0  0
   -6.0257    2.4323   -5.1324 H   0  0  0  0  0  0  0  0  0  0  0  0
   -1.7851    5.4444   -7.7451 H   0  0  0  0  0  0  0  0  0  0  0  0
   -1.9641    3.7625   -5.8666 H   0  0  0  0  0  0  0  0  0  0  0  0
   -6.1305    4.8884   -5.4603 H   0  0  0  0  0  0  0  0  0  0  0  0
   -5.7850    6.5210   -7.3462 H   0  0  0  0  0  0  0  0  0  0  0  0
  1  2  1  0  0  0  0
  1  6  2  0  0  0  0
  1  7  1  0  0  0  0
  2  3  1  0  0  0  0
  2 24  1  0  0  0  0
  2 25  1  0  0  0  0
  3  4  1  0  0  0  0
  3 26  1  0  0  0  0
  3 27  1  0  0  0  0
  4  5  1  0  0  0  0
  4  8  1  0  0  0  0
  4 28  1  1  0  0  0
  5  6  1  0  0  0  0
  5 29  1  0  0  0  0
  5 30  1  0  0  0  0
  6 31  1  0  0  0  0
  7 32  1  0  0  0  0
  7 33  1  0  0  0  0
  7 34  1  0  0  0  0
  8  9  1  0  0  0  0
  8 10  1  0  0  0  0
  8 11  1  0  0  0  0
  9 35  1  0  0  0  0
  9 36  1  0  0  0  0
  9 37  1  0  0  0  0
 10 38  1  0  0  0  0
 10 39  1  0  0  0  0
 10 40  1  0  0  0  0
 11 12  1  0  0  0  0
 11 41  1  0  0  0  0
 12 13  2  0  0  0  0
 12 14  1  0  0  0  0
 14 15  1  0  0  0  0
 14 42  1  0  0  0  0
 15 16  1  0  0  0  0
 15 43  1  0  0  0  0
 16 17  2  0  0  0  0
 16 18  1  0  0  0  0
 18 20  2  0  0  0  0
 18 21  1  0  0  0  0
 19 20  1  0  0  0  0
 19 23  2  0  0  0  0
 19 44  1  0  0  0  0
 20 45  1  0  0  0  0
 21 22  2  0  0  0  0
 21 46  1  0  0  0  0
 22 23  1  0  0  0  0
 22 47  1  0  0  0  0
M  END
$$$$
> 782_AKC_07391102.2023.2224897

  Mrv0541 06202309093D             125.84000

 73 77  0  0  0  0            999 V2000
    7.4484   -4.0035    2.1945 C   0  0  1  0  0  0  0  0  0  0  0  0
    6.1351   -3.4198    2.8370 C   0  0  2  0  0  0  0  0  0  0  0  0
    5.1550   -2.8654    1.8968 C   0  0  0  0  0  0  0  0  0  0  0  0
    5.1955   -3.0568    0.5575 C   0  0  0  0  0  0  0  0  0  0  0  0
    6.2430   -3.7983   -0.0075 C   0  0  0  0  0  0  0  0  0  0  0  0
    7.0716   -4.6896    0.8410 C   0  0  1  0  0  0  0  0  0  0  0  0
    4.1049   -2.4977   -0.2776 C   0  0  2  0  0  0  0  0  0  0  0  0
    3.1419   -1.5844    0.4062 C   0  0  0  0  0  0  0  0  0  0  0  0
    3.2044   -1.4924    1.7634 C   0  0  0  0  0  0  0  0  0  0  0  0
    4.1593   -2.1577    2.4372 N   0  0  0  0  0  0  0  0  0  0  0  0
    2.2279   -0.8614   -0.3936 C   0  0  0  0  0  0  0  0  0  0  0  0
    2.3804   -0.8041   -1.6388 O   0  0  0  0  0  0  0  0  0  0  0  0
    1.1567   -0.1866    0.1205 O   0  0  0  0  0  0  0  0  0  0  0  0
    6.4927   -3.7359   -1.2351 O   0  0  0  0  0  0  0  0  0  0  0  0
    3.3452   -3.6215   -0.9321 C   0  0  0  0  0  0  0  0  0  0  0  0
    3.2174   -3.6876   -2.3414 C   0  0  0  0  0  0  0  0  0  0  0  0
    2.4634   -4.7059   -2.9543 C   0  0  0  0  0  0  0  0  0  0  0  0
    1.8424   -5.7015   -2.1747 C   0  0  0  0  0  0  0  0  0  0  0  0
    2.0034   -5.6764   -0.7741 C   0  0  0  0  0  0  0  0  0  0  0  0
    2.7236   -4.6357   -0.1593 C   0  0  0  0  0  0  0  0  0  0  0  0
    1.1078   -6.6909   -2.7803 O   0  0  0  0  0  0  0  0  0  0  0  0
   -0.3141   -6.4499   -2.7321 C   0  0  1  0  0  0  0  0  0  0  0  0
   -1.9362   -9.5134   -3.7804 N   0  0  0  0  0  0  0  0  0  0  0  0
   -2.3962   -8.6383   -4.6230 N   0  0  0  0  0  0  0  0  0  0  0  0
   -1.8842   -7.4672   -4.4009 N   0  0  0  0  0  0  0  0  0  0  0  0
   -1.0472   -7.5627   -3.3575 C   0  0  0  0  0  0  0  0  0  0  0  0
   -1.0631   -8.8935   -2.9666 C   0  0  0  0  0  0  0  0  0  0  0  0
   -2.3377  -10.8886   -3.7369 C   0  0  2  0  0  0  0  0  0  0  0  0
   -1.2499  -11.8074   -4.1649 C   0  0  0  0  0  0  0  0  0  0  0  0
   -0.7564  -11.7465   -5.4900 C   0  0  0  0  0  0  0  0  0  0  0  0
    0.2841  -12.5961   -5.9093 C   0  0  0  0  0  0  0  0  0  0  0  0
    0.8393  -13.5250   -5.0112 C   0  0  0  0  0  0  0  0  0  0  0  0
    0.3491  -13.6082   -3.6956 C   0  0  0  0  0  0  0  0  0  0  0  0
   -0.6880  -12.7539   -3.2743 C   0  0  0  0  0  0  0  0  0  0  0  0
    2.3172   -0.7019    2.6152 C   0  0  0  0  0  0  0  0  0  0  0  0
    8.5249   -2.8549    1.9355 C   0  0  0  0  0  0  0  0  0  0  0  0
    8.0901   -5.0562    3.1555 C   0  0  0  0  0  0  0  0  0  0  0  0
    0.1651    0.5538   -0.6043 C   0  0  2  0  0  0  0  0  0  0  0  0
   -0.8097    1.2140    0.3873 C   0  0  0  0  0  0  0  0  0  0  0  0
    6.4073   -2.6468    3.5622 H   0  0  0  0  0  0  0  0  0  0  0  0
    5.6151   -4.2044    3.3954 H   0  0  0  0  0  0  0  0  0  0  0  0
    7.9692   -5.0129    0.3049 H   0  0  0  0  0  0  0  0  0  0  0  0
    6.4683   -5.5787    1.0431 H   0  0  0  0  0  0  0  0  0  0  0  0
    4.6128   -1.8873   -1.0334 H   0  0  0  0  0  0  0  0  0  0  0  0
    4.1441   -2.1009    3.4059 H   0  0  0  0  0  0  0  0  0  0  0  0
    3.6620   -2.9818   -2.9335 H   0  0  0  0  0  0  0  0  0  0  0  0
    2.3636   -4.7178   -3.9718 H   0  0  0  0  0  0  0  0  0  0  0  0
    1.5894   -6.4130   -0.1986 H   0  0  0  0  0  0  0  0  0  0  0  0
    2.7925   -4.6226    0.8616 H   0  0  0  0  0  0  0  0  0  0  0  0
   -0.6634   -6.3721   -1.6981 H   0  0  0  0  0  0  0  0  0  0  0  0
   -0.5642   -5.5206   -3.2549 H   0  0  0  0  0  0  0  0  0  0  0  0
   -0.5308   -9.3076   -2.1970 H   0  0  0  0  0  0  0  0  0  0  0  0
   -3.1966  -11.0447   -4.3973 H   0  0  0  0  0  0  0  0  0  0  0  0
   -2.6789  -11.1174   -2.7227 H   0  0  0  0  0  0  0  0  0  0  0  0
   -1.1501  -11.0783   -6.1577 H   0  0  0  0  0  0  0  0  0  0  0  0
    0.6395  -12.5344   -6.8661 H   0  0  0  0  0  0  0  0  0  0  0  0
    1.6017  -14.1356   -5.3131 H   0  0  0  0  0  0  0  0  0  0  0  0
    0.7504  -14.2858   -3.0431 H   0  0  0  0  0  0  0  0  0  0  0  0
   -1.0250  -12.8249   -2.3110 H   0  0  0  0  0  0  0  0  0  0  0  0
    1.2921   -1.0663    2.5295 H   0  0  0  0  0  0  0  0  0  0  0  0
    2.5865   -0.7635    3.6748 H   0  0  0  0  0  0  0  0  0  0  0  0
    2.3576    0.3519    2.3310 H   0  0  0  0  0  0  0  0  0  0  0  0
    8.0002   -2.0186    1.3798 H   0  0  0  0  0  0  0  0  0  0  0  0
    9.5375   -3.2047    1.4831 H   0  0  0  0  0  0  0  0  0  0  0  0
    8.7930   -2.4249    2.9027 H   0  0  0  0  0  0  0  0  0  0  0  0
    8.3381   -4.5996    4.1163 H   0  0  0  0  0  0  0  0  0  0  0  0
    7.3994   -5.8819    3.3430 H   0  0  0  0  0  0  0  0  0  0  0  0
    9.0038   -5.4710    2.7248 H   0  0  0  0  0  0  0  0  0  0  0  0
   -0.3893   -0.1215   -1.2612 H   0  0  0  0  0  0  0  0  0  0  0  0
    0.6474    1.3254   -1.2111 H   0  0  0  0  0  0  0  0  0  0  0  0
   -1.5737    1.7800   -0.1500 H   0  0  0  0  0  0  0  0  0  0  0  0
   -0.2738    1.8945    1.0509 H   0  0  0  0  0  0  0  0  0  0  0  0
   -1.3031    0.4510    0.9905 H   0  0  0  0  0  0  0  0  0  0  0  0
  1  2  1  0  0  0  0
  2  3  1  0  0  0  0
  3  4  2  0  0  0  0
  4  5  1  0  0  0  0
  5  6  1  0  0  0  0
  1  6  1  0  0  0  0
  4  7  1  0  0  0  0
  7  8  1  0  0  0  0
  8  9  2  0  0  0  0
  9 10  1  0  0  0  0
  3 10  1  0  0  0  0
 11 12  2  0  0  0  0
 11 13  1  0  0  0  0
  8 11  1  0  0  0  0
  5 14  2  0  0  0  0
 15 16  2  0  0  0  0
 16 17  1  0  0  0  0
 17 18  2  0  0  0  0
 18 19  1  0  0  0  0
 19 20  2  0  0  0  0
 15 20  1  0  0  0  0
 23 24  1  0  0  0  0
 24 25  2  0  0  0  0
 25 26  1  0  0  0  0
 26 27  2  0  0  0  0
 23 27  1  0  0  0  0
 28 29  1  0  0  0  0
 29 30  2  0  0  0  0
 30 31  1  0  0  0  0
 31 32  2  0  0  0  0
 32 33  1  0  0  0  0
 33 34  2  0  0  0  0
 29 34  1  0  0  0  0
 23 28  1  0  0  0  0
 22 26  1  0  0  0  0
 21 22  1  0  0  0  0
 18 21  1  0  0  0  0
  7 15  1  0  0  0  0
  9 35  1  0  0  0  0
  1 36  1  0  0  0  0
  1 37  1  0  0  0  0
 38 39  1  0  0  0  0
 13 38  1  0  0  0  0
  2 40  1  0  0  0  0
  2 41  1  0  0  0  0
  6 42  1  0  0  0  0
  6 43  1  0  0  0  0
  7 44  1  0  0  0  0
 10 45  1  0  0  0  0
 16 46  1  0  0  0  0
 17 47  1  0  0  0  0
 19 48  1  0  0  0  0
 20 49  1  0  0  0  0
 22 50  1  0  0  0  0
 22 51  1  0  0  0  0
 27 52  1  0  0  0  0
 28 53  1  0  0  0  0
 28 54  1  0  0  0  0
 30 55  1  0  0  0  0
 31 56  1  0  0  0  0
 32 57  1  0  0  0  0
 33 58  1  0  0  0  0
 34 59  1  0  0  0  0
 35 60  1  0  0  0  0
 35 61  1  0  0  0  0
 35 62  1  0  0  0  0
 36 63  1  0  0  0  0
 36 64  1  0  0  0  0
 36 65  1  0  0  0  0
 37 66  1  0  0  0  0
 37 67  1  0  0  0  0
 37 68  1  0  0  0  0
 38 69  1  0  0  0  0
 38 70  1  0  0  0  0
 39 71  1  0  0  0  0
 39 72  1  0  0  0  0
 39 73  1  0  0  0  0
M  END
>  <type>
systematic

$$$$
> 783_AKC_07391102.2023.2224897

  Mrv0541 06202309093D             128.67000

 73 77  0  0  0  0            999 V2000
    7.2939   -4.1290    2.1957 C   0  0  1  0  0  0  0  0  0  0  0  0
    6.0168   -3.5000    2.8586 C   0  0  2  0  0  0  0  0  0  0  0  0
    5.0608   -2.9093    1.9172 C   0  0  0  0  0  0  0  0  0  0  0  0
    5.0292   -3.1988    0.5931 C   0  0  0  0  0  0  0  0  0  0  0  0
    5.9339   -4.1383    0.0613 C   0  0  0  0  0  0  0  0  0  0  0  0
    6.8414   -4.9290    0.9331 C   0  0  1  0  0  0  0  0  0  0  0  0
    4.0287   -2.5131   -0.2687 C   0  0  1  0  0  0  0  0  0  0  0  0
    2.9958   -1.7056    0.4461 C   0  0  0  0  0  0  0  0  0  0  0  0
    3.1306   -1.5155    1.7886 C   0  0  0  0  0  0  0  0  0  0  0  0
    4.1674   -2.0626    2.4406 N   0  0  0  0  0  0  0  0  0  0  0  0
    1.9080   -1.2002   -0.2976 C   0  0  0  0  0  0  0  0  0  0  0  0
    1.5781   -1.7399   -1.3816 O   0  0  0  0  0  0  0  0  0  0  0  0
    1.1651   -0.1315    0.1218 O   0  0  0  0  0  0  0  0  0  0  0  0
    5.9952   -4.3547   -1.1731 O   0  0  0  0  0  0  0  0  0  0  0  0
    4.7026   -1.6835   -1.3358 C   0  0  0  0  0  0  0  0  0  0  0  0
    4.3394   -1.8186   -2.7004 C   0  0  0  0  0  0  0  0  0  0  0  0
    4.9961   -1.0877   -3.7069 C   0  0  0  0  0  0  0  0  0  0  0  0
    6.0767   -0.2431   -3.3835 C   0  0  0  0  0  0  0  0  0  0  0  0
    6.4200   -0.0623   -2.0300 C   0  0  0  0  0  0  0  0  0  0  0  0
    5.7301   -0.7596   -1.0193 C   0  0  0  0  0  0  0  0  0  0  0  0
    6.7831    0.4120   -4.3602 O   0  0  0  0  0  0  0  0  0  0  0  0
    7.6356   -0.4626   -5.1316 C   0  0  1  0  0  0  0  0  0  0  0  0
    9.6901    1.6044   -7.2701 N   0  0  0  0  0  0  0  0  0  0  0  0
    8.8062    1.1258   -8.0925 N   0  0  0  0  0  0  0  0  0  0  0  0
    7.9702    0.3543   -7.4714 N   0  0  0  0  0  0  0  0  0  0  0  0
    8.3163    0.3145   -6.1766 C   0  0  0  0  0  0  0  0  0  0  0  0
    9.4314    1.1262   -6.0422 C   0  0  0  0  0  0  0  0  0  0  0  0
   10.7494    2.4907   -7.6397 C   0  0  2  0  0  0  0  0  0  0  0  0
   10.4122    3.8987   -7.3012 C   0  0  0  0  0  0  0  0  0  0  0  0
    9.3224    4.5383   -7.9413 C   0  0  0  0  0  0  0  0  0  0  0  0
    8.9901    5.8701   -7.6312 C   0  0  0  0  0  0  0  0  0  0  0  0
    9.7420    6.5802   -6.6782 C   0  0  0  0  0  0  0  0  0  0  0  0
   10.8260    5.9562   -6.0345 C   0  0  0  0  0  0  0  0  0  0  0  0
   11.1606    4.6241   -6.3434 C   0  0  0  0  0  0  0  0  0  0  0  0
    2.2025   -0.7643    2.6391 C   0  0  0  0  0  0  0  0  0  0  0  0
    8.3517   -3.0141    1.7647 C   0  0  0  0  0  0  0  0  0  0  0  0
    7.9964   -5.0897    3.2090 C   0  0  0  0  0  0  0  0  0  0  0  0
    0.1030    0.5153   -0.5859 C   0  0  2  0  0  0  0  0  0  0  0  0
   -0.7346    1.3664    0.3841 C   0  0  0  0  0  0  0  0  0  0  0  0
    6.3333   -2.7467    3.5899 H   0  0  0  0  0  0  0  0  0  0  0  0
    5.4655   -4.2728    3.4067 H   0  0  0  0  0  0  0  0  0  0  0  0
    7.7169   -5.2613    0.3681 H   0  0  0  0  0  0  0  0  0  0  0  0
    6.2932   -5.8227    1.2421 H   0  0  0  0  0  0  0  0  0  0  0  0
    3.4774   -3.3340   -0.7424 H   0  0  0  0  0  0  0  0  0  0  0  0
    4.2680   -1.8424    3.3812 H   0  0  0  0  0  0  0  0  0  0  0  0
    3.5872   -2.4555   -2.9766 H   0  0  0  0  0  0  0  0  0  0  0  0
    4.6959   -1.1854   -4.6792 H   0  0  0  0  0  0  0  0  0  0  0  0
    7.1819    0.5697   -1.7754 H   0  0  0  0  0  0  0  0  0  0  0  0
    6.0017   -0.6075   -0.0457 H   0  0  0  0  0  0  0  0  0  0  0  0
    8.3879   -0.9464   -4.4997 H   0  0  0  0  0  0  0  0  0  0  0  0
    7.0471   -1.2426   -5.6254 H   0  0  0  0  0  0  0  0  0  0  0  0
    9.9565    1.3092   -5.1831 H   0  0  0  0  0  0  0  0  0  0  0  0
   10.9282    2.4234   -8.7169 H   0  0  0  0  0  0  0  0  0  0  0  0
   11.6719    2.1649   -7.1492 H   0  0  0  0  0  0  0  0  0  0  0  0
    8.7619    4.0376   -8.6376 H   0  0  0  0  0  0  0  0  0  0  0  0
    8.2006    6.3205   -8.0992 H   0  0  0  0  0  0  0  0  0  0  0  0
    9.4995    7.5477   -6.4522 H   0  0  0  0  0  0  0  0  0  0  0  0
   11.3718    6.4703   -5.3398 H   0  0  0  0  0  0  0  0  0  0  0  0
   11.9522    4.1877   -5.8620 H   0  0  0  0  0  0  0  0  0  0  0  0
    1.1899   -1.1628    2.5483 H   0  0  0  0  0  0  0  0  0  0  0  0
    2.4676   -0.8065    3.6984 H   0  0  0  0  0  0  0  0  0  0  0  0
    2.1982    0.2891    2.3557 H   0  0  0  0  0  0  0  0  0  0  0  0
    7.8054   -2.2459    1.1397 H   0  0  0  0  0  0  0  0  0  0  0  0
    9.3498   -3.4102    1.3204 H   0  0  0  0  0  0  0  0  0  0  0  0
    8.6535   -2.4754    2.6628 H   0  0  0  0  0  0  0  0  0  0  0  0
    8.2947   -4.5476    4.1110 H   0  0  0  0  0  0  0  0  0  0  0  0
    7.3246   -5.8994    3.5088 H   0  0  0  0  0  0  0  0  0  0  0  0
    8.8890   -5.5371    2.7645 H   0  0  0  0  0  0  0  0  0  0  0  0
   -0.5506   -0.2292   -1.0434 H   0  0  0  0  0  0  0  0  0  0  0  0
    0.5310    1.1461   -1.3695 H   0  0  0  0  0  0  0  0  0  0  0  0
   -1.5501    1.8496   -0.1572 H   0  0  0  0  0  0  0  0  0  0  0  0
   -0.1148    2.1340    0.8496 H   0  0  0  0  0  0  0  0  0  0  0  0
   -1.1639    0.7322    1.1640 H   0  0  0  0  0  0  0  0  0  0  0  0
  1  2  1  0  0  0  0
  2  3  1  0  0  0  0
  3  4  2  0  0  0  0
  4  5  1  0  0  0  0
  5  6  1  0  0  0  0
  1  6  1  0  0  0  0
  4  7  1  0  0  0  0
  7  8  1  0  0  0  0
  8  9  2  0  0  0  0
  9 10  1  0  0  0  0
  3 10  1  0  0  0  0
 11 12  2  0  0  0  0
 11 13  1  0  0  0  0
  8 11  1  0  0  0  0
  5 14  2  0  0  0  0
 15 16  2  0  0  0  0
 16 17  1  0  0  0  0
 17 18  2  0  0  0  0
 18 19  1  0  0  0  0
 19 20  2  0  0  0  0
 15 20  1  0  0  0  0
 23 24  1  0  0  0  0
 24 25  2  0  0  0  0
 25 26  1  0  0  0  0
 26 27  2  0  0  0  0
 23 27  1  0  0  0  0
 28 29  1  0  0  0  0
 29 30  2  0  0  0  0
 30 31  1  0  0  0  0
 31 32  2  0  0  0  0
 32 33  1  0  0  0  0
 33 34  2  0  0  0  0
 29 34  1  0  0  0  0
 23 28  1  0  0  0  0
 22 26  1  0  0  0  0
 21 22  1  0  0  0  0
 18 21  1  0  0  0  0
  7 15  1  0  0  0  0
  9 35  1  0  0  0  0
  1 36  1  0  0  0  0
  1 37  1  0  0  0  0
 38 39  1  0  0  0  0
 13 38  1  0  0  0  0
  2 40  1  0  0  0  0
  2 41  1  0  0  0  0
  6 42  1  0  0  0  0
  6 43  1  0  0  0  0
  7 44  1  0  0  0  0
 10 45  1  0  0  0  0
 16 46  1  0  0  0  0
 17 47  1  0  0  0  0
 19 48  1  0  0  0  0
 20 49  1  0  0  0  0
 22 50  1  0  0  0  0
 22 51  1  0  0  0  0
 27 52  1  0  0  0  0
 28 53  1  0  0  0  0
 28 54  1  0  0  0  0
 30 55  1  0  0  0  0
 31 56  1  0  0  0  0
 32 57  1  0  0  0  0
 33 58  1  0  0  0  0
 34 59  1  0  0  0  0
 35 60  1  0  0  0  0
 35 61  1  0  0  0  0
 35 62  1  0  0  0  0
 36 63  1  0  0  0  0
 36 64  1  0  0  0  0
 36 65  1  0  0  0  0
 37 66  1  0  0  0  0
 37 67  1  0  0  0  0
 37 68  1  0  0  0  0
 38 69  1  0  0  0  0
 38 70  1  0  0  0  0
 39 71  1  0  0  0  0
 39 72  1  0  0  0  0
 39 73  1  0  0  0  0
M  END
>  <type>
systematic

$$$$
> 784_AKC_j.heliyon.2023.e17801

  Mrv1816 07032308393D              92.43000

 32 34  0  0  0  0            999 V2000
   -1.2584   -0.2227    5.1777 C   0  0  0  0  0  0  0  0  0  0  0  0
   -1.9693    0.3946    4.2109 C   0  0  0  0  0  0  0  0  0  0  0  0
   -3.7126    0.4575    4.3587 S   0  0  2  0  0  0  0  0  0  0  0  0
   -4.1592   -0.2564    5.9145 C   0  0  0  0  0  0  0  0  0  0  0  0
   -5.5100   -0.2438    6.3161 C   0  0  0  0  0  0  0  0  0  0  0  0
   -5.8857   -0.8424    7.5289 C   0  0  0  0  0  0  0  0  0  0  0  0
   -4.9148   -1.4667    8.3295 C   0  0  0  0  0  0  0  0  0  0  0  0
   -3.5639   -1.4612    7.9313 C   0  0  0  0  0  0  0  0  0  0  0  0
   -3.1529   -0.8480    6.7187 C   0  0  0  0  0  0  0  0  0  0  0  0
   -1.7720   -0.8283    6.3272 C   0  0  0  0  0  0  0  0  0  0  0  0
   -0.9219   -1.3775    7.0715 O   0  0  0  0  0  0  0  0  0  0  0  0
   -4.4315   -0.3799    3.1908 O   0  0  0  0  0  0  0  0  0  0  0  0
   -4.2224    1.9791    4.2871 O   0  0  0  0  0  0  0  0  0  0  0  0
   -5.2668   -2.0517    9.4416 F   0  0  0  0  0  0  0  0  0  0  0  0
   -1.3576    1.0211    3.1217 C   0  0  0  0  0  0  0  0  0  0  0  0
   -1.7594    0.7562    1.7907 C   0  0  0  0  0  0  0  0  0  0  0  0
   -1.1432    1.4036    0.7048 C   0  0  0  0  0  0  0  0  0  0  0  0
   -0.0895    2.3242    0.9073 C   0  0  0  0  0  0  0  0  0  0  0  0
    0.3175    2.5856    2.2367 C   0  0  0  0  0  0  0  0  0  0  0  0
   -0.3088    1.9500    3.3247 C   0  0  0  0  0  0  0  0  0  0  0  0
    0.5964    3.0096   -0.2224 C   0  0  1  0  0  0  0  0  0  0  0  0
    0.1062    2.6881   -1.4669 F   0  0  0  0  0  0  0  0  0  0  0  0
    0.4758    4.3711   -0.0889 F   0  0  0  0  0  0  0  0  0  0  0  0
    1.9319    2.6875   -0.2280 F   0  0  0  0  0  0  0  0  0  0  0  0
   -0.2661   -0.2520    5.0707 H   0  0  0  0  0  0  0  0  0  0  0  0
   -6.2241    0.1943    5.7298 H   0  0  0  0  0  0  0  0  0  0  0  0
   -6.8657   -0.8257    7.8226 H   0  0  0  0  0  0  0  0  0  0  0  0
   -2.8804   -1.9136    8.5436 H   0  0  0  0  0  0  0  0  0  0  0  0
   -2.4960    0.0804    1.5884 H   0  0  0  0  0  0  0  0  0  0  0  0
   -1.4742    1.1879   -0.2371 H   0  0  0  0  0  0  0  0  0  0  0  0
    1.0773    3.2437    2.4256 H   0  0  0  0  0  0  0  0  0  0  0  0
    0.0115    2.1773    4.2688 H   0  0  0  0  0  0  0  0  0  0  0  0
  1  2  2  0  0  0  0
  2  3  1  0  0  0  0
  3  4  1  0  0  0  0
  4  5  2  0  0  0  0
  5  6  1  0  0  0  0
  6  7  2  0  0  0  0
  7  8  1  0  0  0  0
  8  9  2  0  0  0  0
  4  9  1  0  0  0  0
  9 10  1  0  0  0  0
  1 10  1  0  0  0  0
 10 11  2  0  0  0  0
  3 12  2  0  0  0  0
  3 13  2  0  0  0  0
  7 14  1  0  0  0  0
 16 17  2  0  0  0  0
 17 18  1  0  0  0  0
 18 19  2  0  0  0  0
 19 20  1  0  0  0  0
 15 16  1  0  0  0  0
 15 20  2  0  0  0  0
  2 15  1  0  0  0  0
 18 21  1  0  0  0  0
 21 22  1  0  0  0  0
 21 23  1  0  0  0  0
 21 24  1  0  0  0  0
  1 25  1  0  0  0  0
  5 26  1  0  0  0  0
  6 27  1  0  0  0  0
  8 28  1  0  0  0  0
 16 29  1  0  0  0  0
 17 30  1  0  0  0  0
 19 31  1  0  0  0  0
 20 32  1  0  0  0  0
M  END
>  <type>
systematic

$$$$
> 785_AKC_D3MD00243H
(E)-4-[2-(5-nitrofurfurylene)hydrazinyl]-2-(4-fluorophenyl)quinazoline
  Mrv0541 07242307013D              67.85000

 40 43  0  0  0  0            999 V2000
   -3.3133    3.7126   -2.9124 C   0  0  0  0  0  0  0  0  0  0  0  0
   -4.5186    3.2241   -3.4458 C   0  0  0  0  0  0  0  0  0  0  0  0
   -4.9418    1.9170   -3.1455 C   0  0  0  0  0  0  0  0  0  0  0  0
   -4.1459    1.0855   -2.3320 C   0  0  0  0  0  0  0  0  0  0  0  0
   -4.5598   -0.1792   -2.0560 N   0  0  0  0  0  0  0  0  0  0  0  0
   -3.8083   -1.0341   -1.3156 C   0  0  0  0  0  0  0  0  0  0  0  0
   -2.6136   -0.6042   -0.8378 N   0  0  0  0  0  0  0  0  0  0  0  0
   -2.1349    0.6541   -1.0425 C   0  0  0  0  0  0  0  0  0  0  0  0
   -2.9093    1.5610   -1.8110 C   0  0  0  0  0  0  0  0  0  0  0  0
   -2.5118    2.8878   -2.1009 C   0  0  0  0  0  0  0  0  0  0  0  0
   -4.2356   -2.3495   -1.0408 C   0  0  0  0  0  0  0  0  0  0  0  0
   -3.3985   -3.4493   -1.3428 C   0  0  0  0  0  0  0  0  0  0  0  0
   -3.8136   -4.7649   -1.0644 C   0  0  0  0  0  0  0  0  0  0  0  0
   -5.0654   -4.9958   -0.4652 C   0  0  0  0  0  0  0  0  0  0  0  0
   -5.8996   -3.9082   -0.1459 C   0  0  0  0  0  0  0  0  0  0  0  0
   -5.4923   -2.5933   -0.4409 C   0  0  0  0  0  0  0  0  0  0  0  0
   -5.4511   -6.2150   -0.2075 F   0  0  0  0  0  0  0  0  0  0  0  0
   -0.9240    0.9939   -0.5197 N   0  0  0  0  0  0  0  0  0  0  0  0
   -0.0649    0.1163   -0.1976 N   0  0  0  0  0  0  0  0  0  0  0  0
    1.6237   -2.0217    0.1916 O   0  0  0  0  0  0  0  0  0  0  0  0
    1.9207   -0.7435    0.5372 C   0  0  0  0  0  0  0  0  0  0  0  0
    1.0879    0.3298    0.3194 C   0  0  0  0  0  0  0  0  0  0  0  0
    3.1929   -0.7283    1.1033 C   0  0  0  0  0  0  0  0  0  0  0  0
    3.6573   -2.0365    1.0886 C   0  0  0  0  0  0  0  0  0  0  0  0
    2.6650   -2.8297    0.5119 C   0  0  0  0  0  0  0  0  0  0  0  0
    2.6943   -4.1369    0.2942 N   0  3  0  0  0  0  0  0  0  0  0  0
    1.7805   -4.6788   -0.1893 O   0  0  0  0  0  0  0  0  0  0  0  0
    3.7040   -4.8466    0.5862 O   0  5  0  0  0  0  0  0  0  0  0  0
   -3.0193    4.6706   -3.1149 H   0  0  0  0  0  0  0  0  0  0  0  0
   -5.0887    3.8228   -4.0487 H   0  0  0  0  0  0  0  0  0  0  0  0
   -5.8272    1.5771   -3.5270 H   0  0  0  0  0  0  0  0  0  0  0  0
   -1.6398    3.2682   -1.7291 H   0  0  0  0  0  0  0  0  0  0  0  0
   -2.4825   -3.3027   -1.7760 H   0  0  0  0  0  0  0  0  0  0  0  0
   -3.2027   -5.5510   -1.2996 H   0  0  0  0  0  0  0  0  0  0  0  0
   -6.8038   -4.0692    0.3031 H   0  0  0  0  0  0  0  0  0  0  0  0
   -6.1138   -1.8173   -0.1976 H   0  0  0  0  0  0  0  0  0  0  0  0
   -0.6902    1.9321   -0.4378 H   0  0  0  0  0  0  0  0  0  0  0  0
    1.3884    1.2520    0.5429 H   0  0  0  0  0  0  0  0  0  0  0  0
    3.6976    0.0863    1.4613 H   0  0  0  0  0  0  0  0  0  0  0  0
    4.5623   -2.3544    1.4404 H   0  0  0  0  0  0  0  0  0  0  0  0
  1  2  2  0  0  0  0
  2  3  1  0  0  0  0
  3  4  2  0  0  0  0
  4  5  1  0  0  0  0
  5  6  2  0  0  0  0
  6  7  1  0  0  0  0
  7  8  2  0  0  0  0
  8  9  1  0  0  0  0
  4  9  1  0  0  0  0
  9 10  2  0  0  0  0
  1 10  1  0  0  0  0
 11 12  2  0  0  0  0
 12 13  1  0  0  0  0
 13 14  2  0  0  0  0
 14 15  1  0  0  0  0
 15 16  2  0  0  0  0
 11 16  1  0  0  0  0
 14 17  1  0  0  0  0
  6 11  1  0  0  0  0
 18 19  1  0  0  0  0
 20 21  1  0  0  0  0
 21 22  1  0  0  0  0
 21 23  2  0  0  0  0
 23 24  1  0  0  0  0
 24 25  2  0  0  0  0
 20 25  1  0  0  0  0
 26 27  2  0  0  0  0
 26 28  1  0  0  0  0
 25 26  1  0  0  0  0
 19 22  2  0  0  0  0
  8 18  1  0  0  0  0
  1 29  1  0  0  0  0
  2 30  1  0  0  0  0
  3 31  1  0  0  0  0
 10 32  1  0  0  0  0
 12 33  1  0  0  0  0
 13 34  1  0  0  0  0
 15 35  1  0  0  0  0
 16 36  1  0  0  0  0
 18 37  1  0  0  0  0
 22 38  1  0  0  0  0
 23 39  1  0  0  0  0
 24 40  1  0  0  0  0
M  CHG  2  26   1  28  -1
M  END
>  <type>
systematic

$$$$
> 786_AKC_j.intimp.2023.110750
 2-{[(5-bromo-1H-indol-3-yl)-methylene]amino}-5,6,7,8-tetrahydro-4H-cyclohepta[b]thiophene-3-carbonitrile
  Mrv0541 08082312403D              72.33000

 40 43  0  0  0  0            999 V2000
    3.9805   -1.6842    0.1062 S   0  0  0  0  0  0  0  0  0  0  0  0
    2.0925   -3.0943    1.0530 C   0  0  0  0  0  0  0  0  0  0  0  0
    2.2716   -1.8229    0.4778 C   0  0  0  0  0  0  0  0  0  0  0  0
    4.4435   -3.2521    0.7227 C   0  0  0  0  0  0  0  0  0  0  0  0
    3.2744   -3.8827    1.1964 C   0  0  0  0  0  0  0  0  0  0  0  0
    3.3305   -5.2512    1.7935 C   0  0  2  0  0  0  0  0  0  0  0  0
    3.9051   -6.3289    0.8328 C   0  0  2  0  0  0  0  0  0  0  0  0
    5.4499   -6.3060    0.6695 C   0  0  2  0  0  0  0  0  0  0  0  0
    6.0096   -5.0622   -0.0679 C   0  0  2  0  0  0  0  0  0  0  0  0
    5.8373   -3.7367    0.7110 C   0  0  1  0  0  0  0  0  0  0  0  0
    0.9011   -3.4795    1.4258 C   0  0  0  0  0  0  0  0  0  0  0  0
   -0.1491   -3.8106    1.7522 N   0  0  0  0  0  0  0  0  0  0  0  0
    1.3471   -0.8878    0.2619 N   0  0  0  0  0  0  0  0  0  0  0  0
    1.5504    0.2799   -0.2368 C   0  0  0  0  0  0  0  0  0  0  0  0
   -0.8054    1.1247   -0.1575 C   0  0  0  0  0  0  0  0  0  0  0  0
    0.5607    1.2173   -0.4404 C   0  0  0  0  0  0  0  0  0  0  0  0
    0.7400    2.4867   -0.9935 C   0  0  0  0  0  0  0  0  0  0  0  0
    1.8938    3.1405   -1.4693 C   0  0  0  0  0  0  0  0  0  0  0  0
    1.7634    4.4459   -1.9862 C   0  0  0  0  0  0  0  0  0  0  0  0
    0.4985    5.0771   -2.0228 C   0  0  0  0  0  0  0  0  0  0  0  0
   -0.6509    4.4120   -1.5434 C   0  0  0  0  0  0  0  0  0  0  0  0
   -0.5056    3.1115   -1.0303 C   0  0  0  0  0  0  0  0  0  0  0  0
   -1.4167    2.2683   -0.5212 N   0  0  0  0  0  0  0  0  0  0  0  0
    3.2727    5.3304   -2.6204 Br  0  0  0  0  0  0  0  0  0  0  0  0
    2.3323   -5.5802    2.0933 H   0  0  0  0  0  0  0  0  0  0  0  0
    3.9303   -5.2150    2.7067 H   0  0  0  0  0  0  0  0  0  0  0  0
    3.4289   -6.2433   -0.1491 H   0  0  0  0  0  0  0  0  0  0  0  0
    3.6389   -7.3116    1.2322 H   0  0  0  0  0  0  0  0  0  0  0  0
    5.7404   -7.1888    0.0944 H   0  0  0  0  0  0  0  0  0  0  0  0
    5.9244   -6.3932    1.6512 H   0  0  0  0  0  0  0  0  0  0  0  0
    5.5496   -4.9776   -1.0580 H   0  0  0  0  0  0  0  0  0  0  0  0
    7.0806   -5.2211   -0.2214 H   0  0  0  0  0  0  0  0  0  0  0  0
    6.4635   -2.9808    0.2303 H   0  0  0  0  0  0  0  0  0  0  0  0
    6.1939   -3.8479    1.7374 H   0  0  0  0  0  0  0  0  0  0  0  0
    2.4701    0.5402   -0.4972 H   0  0  0  0  0  0  0  0  0  0  0  0
   -1.2755    0.3180    0.2589 H   0  0  0  0  0  0  0  0  0  0  0  0
    2.8081    2.6820   -1.4430 H   0  0  0  0  0  0  0  0  0  0  0  0
    0.4151    6.0228   -2.3992 H   0  0  0  0  0  0  0  0  0  0  0  0
   -1.5663    4.8639   -1.5691 H   0  0  0  0  0  0  0  0  0  0  0  0
   -2.3641    2.4529   -0.4314 H   0  0  0  0  0  0  0  0  0  0  0  0
  1  4  1  0  0  0  0
  5  2  1  0  0  0  0
  2  3  2  0  0  0  0
  1  3  1  0  0  0  0
  4  5  2  0  0  0  0
  5  6  1  0  0  0  0
  6  7  1  0  0  0  0
  7  8  1  0  0  0  0
  8  9  1  0  0  0  0
  9 10  1  0  0  0  0
  4 10  1  0  0  0  0
 11 12  3  0  0  0  0
  2 11  1  0  0  0  0
 15 16  2  0  0  0  0
 16 17  1  0  0  0  0
 17 18  2  0  0  0  0
 18 19  1  0  0  0  0
 19 20  2  0  0  0  0
 20 21  1  0  0  0  0
 21 22  2  0  0  0  0
 17 22  1  0  0  0  0
 22 23  1  0  0  0  0
 15 23  1  0  0  0  0
 19 24  1  0  0  0  0
 14 16  1  0  0  0  0
 13 14  2  0  0  0  0
 13  3  1  0  0  0  0
  6 25  1  0  0  0  0
  6 26  1  0  0  0  0
  7 27  1  0  0  0  0
  7 28  1  0  0  0  0
  8 29  1  0  0  0  0
  8 30  1  0  0  0  0
  9 31  1  0  0  0  0
  9 32  1  0  0  0  0
 10 33  1  0  0  0  0
 10 34  1  0  0  0  0
 14 35  1  0  0  0  0
 15 36  1  0  0  0  0
 18 37  1  0  0  0  0
 20 38  1  0  0  0  0
 21 39  1  0  0  0  0
 23 40  1  0  0  0  0
M  END
>  <type>
systematic

$$$$
> 787_AKC_slct.202302415

  Mrv0541 08082312423D              59.77000

 24 25  0  0  0  0            999 V2000
    1.0949   -2.3596    0.0157 C   0  0  0  0  0  0  0  0  0  0  0  0
    0.8304   -3.6974    0.0972 N   0  0  0  0  0  0  0  0  0  0  0  0
   -0.4602   -4.0371    0.2524 C   0  0  0  0  0  0  0  0  0  0  0  0
   -1.3585   -2.5282    0.3137 S   0  0  0  0  0  0  0  0  0  0  0  0
    0.0142   -1.4747    0.0933 C   0  0  0  0  0  0  0  0  0  0  0  0
   -0.9279   -5.1935    0.3341 O   0  0  0  0  0  0  0  0  0  0  0  0
    2.2873   -1.9966   -0.1096 O   0  0  0  0  0  0  0  0  0  0  0  0
    0.1025   -0.1279    0.0205 C   0  0  0  0  0  0  0  0  0  0  0  0
   -0.8671    0.8915    0.1126 C   0  0  0  0  0  0  0  0  0  0  0  0
   -2.2680    0.7015    0.2186 C   0  0  0  0  0  0  0  0  0  0  0  0
   -0.4154    2.2395    0.1034 C   0  0  0  0  0  0  0  0  0  0  0  0
   -1.2995    3.3271    0.2213 C   0  0  0  0  0  0  0  0  0  0  0  0
   -2.6905    3.1215    0.3567 C   0  0  0  0  0  0  0  0  0  0  0  0
   -3.1565    1.7862    0.3535 C   0  0  0  0  0  0  0  0  0  0  0  0
   -3.6415    4.2619    0.5203 C   0  0  2  0  0  0  0  0  0  0  0  0
   -4.0048    4.3674    1.8412 F   0  0  0  0  0  0  0  0  0  0  0  0
   -4.7829    4.0852   -0.2249 F   0  0  0  0  0  0  0  0  0  0  0  0
   -3.1251    5.4775    0.1328 F   0  0  0  0  0  0  0  0  0  0  0  0
    1.5352   -4.3640    0.0516 H   0  0  0  0  0  0  0  0  0  0  0  0
    1.0334    0.1976   -0.1134 H   0  0  0  0  0  0  0  0  0  0  0  0
   -2.6824   -0.2239    0.1999 H   0  0  0  0  0  0  0  0  0  0  0  0
    0.5825    2.4551    0.0157 H   0  0  0  0  0  0  0  0  0  0  0  0
   -0.9108    4.2732    0.2140 H   0  0  0  0  0  0  0  0  0  0  0  0
   -4.1573    1.5900    0.4429 H   0  0  0  0  0  0  0  0  0  0  0  0
  1  2  1  0  0  0  0
  2  3  1  0  0  0  0
  3  4  1  0  0  0  0
  4  5  1  0  0  0  0
  1  5  1  0  0  0  0
  3  6  2  0  0  0  0
  1  7  2  0  0  0  0
  5  8  2  0  0  0  0
  8  9  1  0  0  0  0
 10  9  1  0  0  0  0
  9 11  2  0  0  0  0
 11 12  1  0  0  0  0
 12 13  2  0  0  0  0
 13 14  1  0  0  0  0
 10 14  2  0  0  0  0
 13 15  1  0  0  0  0
 15 16  1  0  0  0  0
 15 17  1  0  0  0  0
 15 18  1  0  0  0  0
  2 19  1  0  0  0  0
  8 20  1  0  0  0  0
 10 21  1  0  0  0  0
 11 22  1  0  0  0  0
 12 23  1  0  0  0  0
 14 24  1  0  0  0  0
M  END
>  <type>
systematic

$$$$
> 788_AKC_ph16081113

  Mrv0541 08142319183D             131.94000

 66 69  0  0  0  0            999 V2000
   -1.1729  -14.1930   -5.7337 C   0  0  0  0  0  0  0  0  0  0  0  0
   -0.6735  -14.9271   -6.8280 C   0  0  0  0  0  0  0  0  0  0  0  0
   -1.5513  -15.7023   -7.6134 C   0  0  0  0  0  0  0  0  0  0  0  0
   -2.9150  -15.7609   -7.2735 C   0  0  0  0  0  0  0  0  0  0  0  0
   -3.4047  -15.0308   -6.1759 C   0  0  0  0  0  0  0  0  0  0  0  0
   -2.5464  -14.2336   -5.3731 C   0  0  0  0  0  0  0  0  0  0  0  0
   -3.0915  -13.5455   -4.2762 C   0  0  0  0  0  0  0  0  0  0  0  0
   -2.4397  -12.7323   -3.4195 C   0  0  0  0  0  0  0  0  0  0  0  0
   -3.0232  -12.0871   -2.3372 C   0  0  0  0  0  0  0  0  0  0  0  0
   -4.2415  -12.2344   -2.0691 O   0  0  0  0  0  0  0  0  0  0  0  0
   -2.2450  -11.2867   -1.5543 N   0  0  0  0  0  0  0  0  0  0  0  0
   -2.6825  -10.6442   -0.3598 C   0  0  2  0  0  0  0  0  0  0  0  0
   -1.6918   -9.6550    0.0910 C   0  0  0  0  0  0  0  0  0  0  0  0
   -0.7859   -9.8239    1.0650 N   0  0  0  0  0  0  0  0  0  0  0  0
   -1.5341   -8.3567   -0.3644 C   0  0  0  0  0  0  0  0  0  0  0  0
   -0.5658   -7.8081    0.3876 N   0  0  0  0  0  0  0  0  0  0  0  0
   -0.1358   -8.7113    1.2165 N   0  0  0  0  0  0  0  0  0  0  0  0
    0.6555  -14.8661   -7.1344 O   0  0  0  0  0  0  0  0  0  0  0  0
   -1.0814  -16.4224   -8.6791 O   0  0  0  0  0  0  0  0  0  0  0  0
   -1.1310  -15.6923   -9.9173 C   0  0  0  0  0  0  0  0  0  0  0  0
    1.4350  -15.9001   -6.3438 C   0  0  0  0  0  0  0  0  0  0  0  0
   -0.1490   -6.5086    0.3389 C   0  0  0  0  0  0  0  0  0  0  0  0
   -0.0431   -5.7283    1.5123 C   0  0  0  0  0  0  0  0  0  0  0  0
    0.1319   -5.8775   -0.8959 C   0  0  0  0  0  0  0  0  0  0  0  0
    0.4335   -4.5012   -0.9681 C   0  0  0  0  0  0  0  0  0  0  0  0
    0.4459   -3.7577    0.2296 C   0  0  0  0  0  0  0  0  0  0  0  0
    0.2332   -4.3959    1.4183 O   0  0  0  0  0  0  0  0  0  0  0  0
    0.7078   -3.8376   -2.1777 C   0  0  0  0  0  0  0  0  0  0  0  0
    0.9158   -2.4434   -2.1886 C   0  0  0  0  0  0  0  0  0  0  0  0
    0.8469   -1.6375   -1.0120 C   0  0  0  0  0  0  0  0  0  0  0  0
    0.6500   -2.3677    0.1984 C   0  0  0  0  0  0  0  0  0  0  0  0
   -0.2387   -6.2034    2.6535 O   0  0  0  0  0  0  0  0  0  0  0  0
    0.9420   -0.2183   -1.0508 N   0  0  0  0  0  0  0  0  0  0  0  0
    0.5210    0.5827    0.1016 C   0  0  2  0  0  0  0  0  0  0  0  0
   -1.0184    0.5920    0.2607 C   0  0  0  0  0  0  0  0  0  0  0  0
    1.3448    0.4511   -2.2954 C   0  0  1  0  0  0  0  0  0  0  0  0
    1.5529    1.9893   -2.3597 C   0  0  0  0  0  0  0  0  0  0  0  0
   -0.5019  -13.6331   -5.2072 H   0  0  0  0  0  0  0  0  0  0  0  0
   -3.5521  -16.3410   -7.8234 H   0  0  0  0  0  0  0  0  0  0  0  0
   -4.4056  -15.0953   -5.9699 H   0  0  0  0  0  0  0  0  0  0  0  0
   -4.0645  -13.6765   -4.1117 H   0  0  0  0  0  0  0  0  0  0  0  0
   -1.4699  -12.5737   -3.5488 H   0  0  0  0  0  0  0  0  0  0  0  0
   -1.3152  -11.1785   -1.8082 H   0  0  0  0  0  0  0  0  0  0  0  0
   -2.8091  -11.4040    0.4146 H   0  0  0  0  0  0  0  0  0  0  0  0
   -3.6422  -10.1441   -0.5155 H   0  0  0  0  0  0  0  0  0  0  0  0
   -2.0834   -7.8973   -1.0945 H   0  0  0  0  0  0  0  0  0  0  0  0
   -0.7729  -16.3472  -10.7114 H   0  0  0  0  0  0  0  0  0  0  0  0
   -2.1519  -15.3891  -10.1623 H   0  0  0  0  0  0  0  0  0  0  0  0
   -0.4850  -14.8117   -9.8855 H   0  0  0  0  0  0  0  0  0  0  0  0
    2.5237  -15.9073   -6.5868 H   0  0  0  0  0  0  0  0  0  0  0  0
    1.3981  -15.7568   -5.2371 H   0  0  0  0  0  0  0  0  0  0  0  0
    1.1053  -16.9533   -6.5127 H   0  0  0  0  0  0  0  0  0  0  0  0
    0.1039   -6.4297   -1.7568 H   0  0  0  0  0  0  0  0  0  0  0  0
    0.7458   -4.3595   -3.0582 H   0  0  0  0  0  0  0  0  0  0  0  0
    1.1026   -2.0289   -3.0996 H   0  0  0  0  0  0  0  0  0  0  0  0
    0.6287   -1.9039    1.1023 H   0  0  0  0  0  0  0  0  0  0  0  0
    0.8358    1.6234    0.0479 H   0  0  0  0  0  0  0  0  0  0  0  0
    0.9911    0.2314    1.0221 H   0  0  0  0  0  0  0  0  0  0  0  0
   -1.4750    1.0433   -0.6213 H   0  0  0  0  0  0  0  0  0  0  0  0
   -1.4159   -0.4176    0.3840 H   0  0  0  0  0  0  0  0  0  0  0  0
   -1.3040    1.1792    1.1344 H   0  0  0  0  0  0  0  0  0  0  0  0
    2.2874    0.0056   -2.6330 H   0  0  0  0  0  0  0  0  0  0  0  0
    0.5843    0.2371   -3.0523 H   0  0  0  0  0  0  0  0  0  0  0  0
    1.9185    2.2745   -3.3495 H   0  0  0  0  0  0  0  0  0  0  0  0
    2.2898    2.3100   -1.6209 H   0  0  0  0  0  0  0  0  0  0  0  0
    0.6086    2.5114   -2.1884 H   0  0  0  0  0  0  0  0  0  0  0  0
  1  2  2  0  0  0  0
  1  6  1  0  0  0  0
  2  3  1  0  0  0  0
  3  4  2  0  0  0  0
  4  5  1  0  0  0  0
  5  6  2  0  0  0  0
  6  7  1  0  0  0  0
  7  8  2  0  0  0  0
  8  9  1  0  0  0  0
  9 10  2  0  0  0  0
  9 11  1  0  0  0  0
 11 12  1  0  0  0  0
 12 13  1  0  0  0  0
 14 13  1  0  0  0  0
 13 15  2  0  0  0  0
 14 17  2  0  0  0  0
 15 16  1  0  0  0  0
 16 17  1  0  0  0  0
  2 18  1  0  0  0  0
  3 19  1  0  0  0  0
 19 20  1  0  0  0  0
 18 21  1  0  0  0  0
 16 22  1  0  0  0  0
 23 22  1  0  0  0  0
 22 24  2  0  0  0  0
 23 27  1  0  0  0  0
 24 25  1  0  0  0  0
 26 27  1  0  0  0  0
 25 28  2  0  0  0  0
 26 25  1  0  0  0  0
 26 31  2  0  0  0  0
 28 29  1  0  0  0  0
 29 30  2  0  0  0  0
 30 31  1  0  0  0  0
 23 32  2  0  0  0  0
 30 33  1  0  0  0  0
 33 34  1  0  0  0  0
 34 35  1  0  0  0  0
 33 36  1  0  0  0  0
 36 37  1  0  0  0  0
  1 38  1  0  0  0  0
  4 39  1  0  0  0  0
  5 40  1  0  0  0  0
  7 41  1  0  0  0  0
  8 42  1  0  0  0  0
 11 43  1  0  0  0  0
 12 44  1  0  0  0  0
 12 45  1  0  0  0  0
 15 46  1  0  0  0  0
 20 47  1  0  0  0  0
 20 48  1  0  0  0  0
 20 49  1  0  0  0  0
 21 50  1  0  0  0  0
 21 51  1  0  0  0  0
 21 52  1  0  0  0  0
 24 53  1  0  0  0  0
 28 54  1  0  0  0  0
 29 55  1  0  0  0  0
 31 56  1  0  0  0  0
 34 57  1  0  0  0  0
 34 58  1  0  0  0  0
 35 59  1  0  0  0  0
 35 60  1  0  0  0  0
 35 61  1  0  0  0  0
 36 62  1  0  0  0  0
 36 63  1  0  0  0  0
 37 64  1  0  0  0  0
 37 65  1  0  0  0  0
 37 66  1  0  0  0  0
M  END
$$$$
> 789_AKC_j.algal.2023.103241
76317957
  -OEChem-08282313543D

 73 76  0     1  0  0  0  0  0999 V2000
    3.2049    1.2571   -2.3262 S   0  0  0  0  0  0  0  0  0  0  0  0
   -0.2716   -3.8914   -0.4467 O   0  0  0  0  0  0  0  0  0  0  0  0
   -3.8529    2.1332    0.0270 O   0  0  0  0  0  0  0  0  0  0  0  0
    2.7641   -2.6052   -0.8838 O   0  0  0  0  0  0  0  0  0  0  0  0
   -3.7616   -2.1927    1.2908 O   0  0  0  0  0  0  0  0  0  0  0  0
   -0.7586    3.4675   -1.8401 O   0  0  0  0  0  0  0  0  0  0  0  0
   -2.4662   -1.0333   -0.2427 N   0  0  0  0  0  0  0  0  0  0  0  0
    0.0296   -1.9032    0.6421 N   0  0  0  0  0  0  0  0  0  0  0  0
    2.8109   -0.9832    0.7805 N   0  0  0  0  0  0  0  0  0  0  0  0
   -2.6925    1.0375    1.6670 N   0  0  0  0  0  0  0  0  0  0  0  0
    1.7285    1.4359   -0.2268 N   0  0  0  0  0  0  0  0  0  0  0  0
   -0.6087    2.6953    0.3416 N   0  0  0  0  0  0  0  0  0  0  0  0
   -1.8995   -2.1907   -0.9166 C   0  0  1  0  0  0  0  0  0  0  0  0
    1.1887   -2.7582    0.9552 C   0  0  1  0  0  0  0  0  0  0  0  0
   -1.5417   -1.8498   -2.3558 C   0  0  0  0  0  0  0  0  0  0  0  0
    0.7860   -4.1465    0.4745 C   0  0  1  0  0  0  0  0  0  0  0  0
   -0.6701   -2.6256   -0.1741 C   0  0  0  0  0  0  0  0  0  0  0  0
    3.7019   -0.0452    0.1058 C   0  0  2  0  0  0  0  0  0  0  0  0
    4.5434    0.7216    1.1183 C   0  0  2  0  0  0  0  0  0  0  0  0
   -3.8586    0.2029    1.3385 C   0  0  1  0  0  0  0  0  0  0  0  0
    2.3467   -2.1451    0.1758 C   0  0  0  0  0  0  0  0  0  0  0  0
   -4.6622    0.9965    0.3149 C   0  0  1  0  0  0  0  0  0  0  0  0
    5.4767    1.7519    0.4534 C   0  0  0  0  0  0  0  0  0  0  0  0
   -3.3581   -1.1331    0.8118 C   0  0  0  0  0  0  0  0  0  0  0  0
   -2.7871   -1.4374   -3.1410 C   0  0  0  0  0  0  0  0  0  0  0  0
   -0.4899   -0.7414   -2.4049 C   0  0  0  0  0  0  0  0  0  0  0  0
    0.2557   -5.0268    1.5993 C   0  0  0  0  0  0  0  0  0  0  0  0
    2.8293    0.8839   -0.6921 C   0  0  0  0  0  0  0  0  0  0  0  0
    5.3722   -0.2569    1.9576 C   0  0  0  0  0  0  0  0  0  0  0  0
   -2.8121    2.0635    0.8858 C   0  0  0  0  0  0  0  0  0  0  0  0
   -1.8715    3.2283    0.8239 C   0  0  1  0  0  0  0  0  0  0  0  0
   -5.9978    1.4772    0.8638 C   0  0  0  0  0  0  0  0  0  0  0  0
    6.3285    2.5288    1.4470 C   0  0  0  0  0  0  0  0  0  0  0  0
    1.1010    2.1709   -1.2192 C   0  0  0  0  0  0  0  0  0  0  0  0
   -1.7133    3.8792    2.1886 C   0  0  0  0  0  0  0  0  0  0  0  0
   -0.1658    2.8431   -0.9650 C   0  0  0  0  0  0  0  0  0  0  0  0
    1.7714    2.1914   -2.4282 C   0  0  0  0  0  0  0  0  0  0  0  0
   -2.6290   -3.0085   -0.8777 H   0  0  0  0  0  0  0  0  0  0  0  0
    1.4224   -2.7421    2.0255 H   0  0  0  0  0  0  0  0  0  0  0  0
   -1.1152   -2.7387   -2.8387 H   0  0  0  0  0  0  0  0  0  0  0  0
    1.5955   -4.6700   -0.0447 H   0  0  0  0  0  0  0  0  0  0  0  0
    4.3510   -0.6240   -0.5638 H   0  0  0  0  0  0  0  0  0  0  0  0
    3.8785    1.2617    1.8078 H   0  0  0  0  0  0  0  0  0  0  0  0
   -4.4348    0.0047    2.2500 H   0  0  0  0  0  0  0  0  0  0  0  0
   -2.1454   -0.1069   -0.5017 H   0  0  0  0  0  0  0  0  0  0  0  0
   -4.8313    0.4401   -0.6137 H   0  0  0  0  0  0  0  0  0  0  0  0
    2.3765   -0.6796    1.6479 H   0  0  0  0  0  0  0  0  0  0  0  0
    4.8834    2.4897   -0.0973 H   0  0  0  0  0  0  0  0  0  0  0  0
    6.1326    1.2592   -0.2745 H   0  0  0  0  0  0  0  0  0  0  0  0
   -3.2237   -0.5059   -2.7654 H   0  0  0  0  0  0  0  0  0  0  0  0
   -3.5540   -2.2177   -3.0934 H   0  0  0  0  0  0  0  0  0  0  0  0
   -2.5382   -1.2813   -4.1963 H   0  0  0  0  0  0  0  0  0  0  0  0
   -0.8628    0.2068   -2.0137 H   0  0  0  0  0  0  0  0  0  0  0  0
   -0.2054   -0.5545   -3.4476 H   0  0  0  0  0  0  0  0  0  0  0  0
    0.4299   -1.0093   -1.8812 H   0  0  0  0  0  0  0  0  0  0  0  0
   -0.5929   -4.5572    2.1090 H   0  0  0  0  0  0  0  0  0  0  0  0
    1.0361   -5.2360    2.3371 H   0  0  0  0  0  0  0  0  0  0  0  0
   -0.1089   -5.9776    1.1959 H   0  0  0  0  0  0  0  0  0  0  0  0
    4.7469   -1.0209    2.4310 H   0  0  0  0  0  0  0  0  0  0  0  0
    5.8915    0.2522    2.7753 H   0  0  0  0  0  0  0  0  0  0  0  0
    6.1212   -0.7701    1.3444 H   0  0  0  0  0  0  0  0  0  0  0  0
   -2.2539    3.9659    0.1099 H   0  0  0  0  0  0  0  0  0  0  0  0
   -5.8598    2.0958    1.7576 H   0  0  0  0  0  0  0  0  0  0  0  0
   -6.6481    0.6340    1.1154 H   0  0  0  0  0  0  0  0  0  0  0  0
   -6.5079    2.1047    0.1250 H   0  0  0  0  0  0  0  0  0  0  0  0
    6.8375    3.3527    0.9356 H   0  0  0  0  0  0  0  0  0  0  0  0
    7.1045    1.9018    1.8952 H   0  0  0  0  0  0  0  0  0  0  0  0
    5.7152    2.9570    2.2461 H   0  0  0  0  0  0  0  0  0  0  0  0
   -0.0636    2.1263    0.9841 H   0  0  0  0  0  0  0  0  0  0  0  0
   -2.6774    4.2405    2.5619 H   0  0  0  0  0  0  0  0  0  0  0  0
   -1.0244    4.7289    2.1341 H   0  0  0  0  0  0  0  0  0  0  0  0
   -1.3122    3.1772    2.9286 H   0  0  0  0  0  0  0  0  0  0  0  0
    1.4955    2.6901   -3.3467 H   0  0  0  0  0  0  0  0  0  0  0  0
  1 28  1  0  0  0  0
  1 37  1  0  0  0  0
  2 16  1  0  0  0  0
  2 17  1  0  0  0  0
  3 22  1  0  0  0  0
  3 30  1  0  0  0  0
  4 21  2  0  0  0  0
  5 24  2  0  0  0  0
  6 36  2  0  0  0  0
  7 13  1  0  0  0  0
  7 24  1  0  0  0  0
  7 45  1  0  0  0  0
  8 14  1  0  0  0  0
  8 17  2  0  0  0  0
  9 18  1  0  0  0  0
  9 21  1  0  0  0  0
  9 47  1  0  0  0  0
 10 20  1  0  0  0  0
 10 30  2  0  0  0  0
 11 28  2  0  0  0  0
 11 34  1  0  0  0  0
 12 31  1  0  0  0  0
 12 36  1  0  0  0  0
 12 69  1  0  0  0  0
 13 15  1  0  0  0  0
 13 17  1  0  0  0  0
 13 38  1  0  0  0  0
 14 16  1  0  0  0  0
 14 21  1  0  0  0  0
 14 39  1  0  0  0  0
 15 25  1  0  0  0  0
 15 26  1  0  0  0  0
 15 40  1  0  0  0  0
 16 27  1  0  0  0  0
 16 41  1  0  0  0  0
 18 19  1  0  0  0  0
 18 28  1  0  0  0  0
 18 42  1  0  0  0  0
 19 23  1  0  0  0  0
 19 29  1  0  0  0  0
 19 43  1  0  0  0  0
 20 22  1  0  0  0  0
 20 24  1  0  0  0  0
 20 44  1  0  0  0  0
 22 32  1  0  0  0  0
 22 46  1  0  0  0  0
 23 33  1  0  0  0  0
 23 48  1  0  0  0  0
 23 49  1  0  0  0  0
 25 50  1  0  0  0  0
 25 51  1  0  0  0  0
 25 52  1  0  0  0  0
 26 53  1  0  0  0  0
 26 54  1  0  0  0  0
 26 55  1  0  0  0  0
 27 56  1  0  0  0  0
 27 57  1  0  0  0  0
 27 58  1  0  0  0  0
 29 59  1  0  0  0  0
 29 60  1  0  0  0  0
 29 61  1  0  0  0  0
 30 31  1  0  0  0  0
 31 35  1  0  0  0  0
 31 62  1  0  0  0  0
 32 63  1  0  0  0  0
 32 64  1  0  0  0  0
 32 65  1  0  0  0  0
 33 66  1  0  0  0  0
 33 67  1  0  0  0  0
 33 68  1  0  0  0  0
 34 36  1  0  0  0  0
 34 37  2  0  0  0  0
 35 70  1  0  0  0  0
 35 71  1  0  0  0  0
 35 72  1  0  0  0  0
 37 73  1  0  0  0  0
M  END
> <PUBCHEM_COMPOUND_CID>
76317957

> <PUBCHEM_CONFORMER_RMSD>
0.8

> <PUBCHEM_CONFORMER_DIVERSEORDER>
1
15
21
5
20
14
19
13
18
23
11
8
16
3
17
9
6
7
4
12
10
22
2

> <PUBCHEM_MMFF94_PARTIAL_CHARGES>
31
1 -0.08
10 -0.7
11 -0.57
12 -0.73
13 0.36
14 0.31
16 0.28
17 0.54
18 0.48
2 -0.43
20 0.31
21 0.57
22 0.28
24 0.57
28 0.2
3 -0.43
30 0.54
31 0.36
34 0.14
36 0.72
37 -0.11
4 -0.57
45 0.37
47 0.37
5 -0.57
6 -0.57
69 0.37
7 -0.73
73 0.15
8 -0.7
9 -0.73

> <PUBCHEM_EFFECTIVE_ROTOR_COUNT>
5

> <PUBCHEM_PHARMACOPHORE_FEATURES>
13
1 11 acceptor
1 12 donor
1 29 hydrophobe
1 33 hydrophobe
1 4 acceptor
1 5 acceptor
1 6 acceptor
1 7 donor
1 9 donor
3 15 25 26 hydrophobe
5 1 11 28 34 37 rings
5 2 8 14 16 17 rings
5 3 10 20 22 30 rings

> <PUBCHEM_HEAVY_ATOM_COUNT>
37

> <PUBCHEM_ATOM_DEF_STEREO_COUNT>
8

> <PUBCHEM_ATOM_UDEF_STEREO_COUNT>
0

> <PUBCHEM_BOND_DEF_STEREO_COUNT>
0

> <PUBCHEM_BOND_UDEF_STEREO_COUNT>
0

> <PUBCHEM_ISOTOPIC_ATOM_COUNT>
0

> <PUBCHEM_COMPONENT_COUNT>
1

> <PUBCHEM_CACTVS_TAUTO_COUNT>
8

> <PUBCHEM_CONFORMER_ID>
048C850500000001

> <PUBCHEM_MMFF94_ENERGY>
56.2249

> <PUBCHEM_FEATURE_SELFOVERLAP>
65.973

> <PUBCHEM_SHAPE_FINGERPRINT>
11513181 2 17916867889851061927
12104220 1 18195516207599489000
12156800 1 15910468136904648981
12422481 6 18263351517782401386
12633257 1 17313108565731788523
12788726 201 18051711123797147684
13140716 1 18336263419154009690
13615921 28 17838601615538228830
14004853 49 18335150764911010036
14114207 22 18262223418736148133
14394314 77 18343587326658720161
14840074 17 18187082858434517056
16120349 306 18410289207455712304
19319366 153 18340481179970158547
20739085 24 18114466643944132478
20764821 26 16250817940755528721
22113638 7 18262806305384678432
35225 105 17631437995495330325
392239 28 18272929432033550400
4403749 210 18189315932713382152
469060 322 18189595237844833045
6009941 240 14780915652666478918
6287921 2 18122922935742646818
7288768 16 18261391182507224538

> <PUBCHEM_SHAPE_MULTIPOLES>
706.06
10.02
5.84
2.5
5.9
3.44
1.62
-6.59
-5.31
-1.07
-1.64
-0.1
-0.36
-1.61

> <PUBCHEM_SHAPE_SELFOVERLAP>
1475.354

> <PUBCHEM_SHAPE_VOLUME>
406.7

> <PUBCHEM_COORDINATE_TYPE>
2
5
10

$$$$
> 790_AKC_j.algal.2023.103241
46237174
  -OEChem-08282313572D

119119  0     1  0  0  0  0  0999 V2000
    8.0622    2.7500    0.0000 O   0  0  0  0  0  0  0  0  0  0  0  0
    7.1962   -0.7500    0.0000 O   0  0  0  0  0  0  0  0  0  0  0  0
    4.5981    3.7500    0.0000 O   0  0  0  0  0  0  0  0  0  0  0  0
   10.6603   -1.7500    0.0000 O   0  0  0  0  0  0  0  0  0  0  0  0
    9.7942   -5.2500    0.0000 O   0  0  0  0  0  0  0  0  0  0  0  0
    2.0000    8.2500    0.0000 O   0  0  0  0  0  0  0  0  0  0  0  0
   12.3923   -7.7500    0.0000 O   0  0  0  0  0  0  0  0  0  0  0  0
    7.1962    1.2500    0.0000 N   0  0  0  0  0  0  0  0  0  0  0  0
    6.3301    3.7500    0.0000 N   0  0  0  0  0  0  0  0  0  0  0  0
    8.9282   -0.7500    0.0000 N   0  0  0  0  0  0  0  0  0  0  0  0
    9.7942   -3.2500    0.0000 N   0  0  0  0  0  0  0  0  0  0  0  0
   11.5263   -5.2500    0.0000 N   0  0  0  0  0  0  0  0  0  0  0  0
   13.2583   -6.2500    0.0000 N   0  0  0  0  0  0  0  0  0  0  0  0
    6.3301    2.7500    0.0000 C   0  0  1  0  0  0  0  0  0  0  0  0
    8.0622    0.7500    0.0000 C   0  0  1  0  0  0  0  0  0  0  0  0
    5.4641    2.2500    0.0000 C   0  0  0  0  0  0  0  0  0  0  0  0
    8.9282    1.2500    0.0000 C   0  0  0  0  0  0  0  0  0  0  0  0
    7.1962    2.2500    0.0000 C   0  0  0  0  0  0  0  0  0  0  0  0
    8.9282   -1.7500    0.0000 C   0  0  1  0  0  0  0  0  0  0  0  0
    8.0622   -0.2500    0.0000 C   0  0  0  0  0  0  0  0  0  0  0  0
    5.4641    5.2500    0.0000 C   0  0  1  0  0  0  0  0  0  0  0  0
    8.0622   -2.2500    0.0000 C   0  0  0  0  0  0  0  0  0  0  0  0
    5.4641    4.2500    0.0000 C   0  0  0  0  0  0  0  0  0  0  0  0
    4.5981    2.7500    0.0000 C   0  0  0  0  0  0  0  0  0  0  0  0
    5.4641    1.2500    0.0000 C   0  0  0  0  0  0  0  0  0  0  0  0
    4.5981    5.7500    0.0000 C   0  0  0  0  0  0  0  0  0  0  0  0
    8.9282    2.2500    0.0000 C   0  0  0  0  0  0  0  0  0  0  0  0
    9.7942    0.7500    0.0000 C   0  0  0  0  0  0  0  0  0  0  0  0
    6.3301    0.7500    0.0000 C   0  0  0  0  0  0  0  0  0  0  0  0
    7.1962    4.2500    0.0000 C   0  0  0  0  0  0  0  0  0  0  0  0
    9.7942   -2.2500    0.0000 C   0  0  0  0  0  0  0  0  0  0  0  0
    4.5981    6.7500    0.0000 C   0  0  0  0  0  0  0  0  0  0  0  0
    6.3301    5.7500    0.0000 C   0  0  0  0  0  0  0  0  0  0  0  0
    7.1962   -1.7500    0.0000 C   0  0  0  0  0  0  0  0  0  0  0  0
    8.0622   -3.2500    0.0000 C   0  0  0  0  0  0  0  0  0  0  0  0
   10.6603   -3.7500    0.0000 C   0  0  2  0  0  0  0  0  0  0  0  0
    3.7320    7.2500    0.0000 C   0  0  0  0  0  0  0  0  0  0  0  0
   10.6603   -4.7500    0.0000 C   0  0  0  0  0  0  0  0  0  0  0  0
    8.9282   -3.7500    0.0000 C   0  0  0  0  0  0  0  0  0  0  0  0
    3.7320    8.2500    0.0000 C   0  0  0  0  0  0  0  0  0  0  0  0
   11.5263   -3.2500    0.0000 C   0  0  0  0  0  0  0  0  0  0  0  0
   11.5263   -6.2500    0.0000 C   0  0  1  0  0  0  0  0  0  0  0  0
   10.6603   -6.7500    0.0000 C   0  0  0  0  0  0  0  0  0  0  0  0
   12.3923   -4.7500    0.0000 C   0  0  0  0  0  0  0  0  0  0  0  0
    2.8660    8.7500    0.0000 C   0  0  0  0  0  0  0  0  0  0  0  0
   12.3923   -6.7500    0.0000 C   0  0  0  0  0  0  0  0  0  0  0  0
   10.6603   -7.7500    0.0000 C   0  0  0  0  0  0  0  0  0  0  0  0
    2.8660    9.7500    0.0000 C   0  0  0  0  0  0  0  0  0  0  0  0
    9.7942   -8.2500    0.0000 C   0  0  0  0  0  0  0  0  0  0  0  0
   11.5263   -8.2500    0.0000 C   0  0  0  0  0  0  0  0  0  0  0  0
    9.7942   -9.2500    0.0000 C   0  0  0  0  0  0  0  0  0  0  0  0
   11.5263   -9.2500    0.0000 C   0  0  0  0  0  0  0  0  0  0  0  0
   10.6603   -9.7500    0.0000 C   0  0  0  0  0  0  0  0  0  0  0  0
    6.8671    3.0600    0.0000 H   0  0  0  0  0  0  0  0  0  0  0  0
    8.0622    1.3700    0.0000 H   0  0  0  0  0  0  0  0  0  0  0  0
    5.4641    2.8700    0.0000 H   0  0  0  0  0  0  0  0  0  0  0  0
    9.4651    1.5600    0.0000 H   0  0  0  0  0  0  0  0  0  0  0  0
    9.4651   -1.4400    0.0000 H   0  0  0  0  0  0  0  0  0  0  0  0
    5.4641    5.8700    0.0000 H   0  0  0  0  0  0  0  0  0  0  0  0
    8.0622   -1.6300    0.0000 H   0  0  0  0  0  0  0  0  0  0  0  0
    9.4651   -0.4400    0.0000 H   0  0  0  0  0  0  0  0  0  0  0  0
    4.9081    3.2869    0.0000 H   0  0  0  0  0  0  0  0  0  0  0  0
    4.0611    3.0600    0.0000 H   0  0  0  0  0  0  0  0  0  0  0  0
    4.2881    2.2131    0.0000 H   0  0  0  0  0  0  0  0  0  0  0  0
    4.8441    1.2500    0.0000 H   0  0  0  0  0  0  0  0  0  0  0  0
    5.4641    0.6300    0.0000 H   0  0  0  0  0  0  0  0  0  0  0  0
    6.0841    1.2500    0.0000 H   0  0  0  0  0  0  0  0  0  0  0  0
    3.9875    5.8577    0.0000 H   0  0  0  0  0  0  0  0  0  0  0  0
    4.3860    5.1674    0.0000 H   0  0  0  0  0  0  0  0  0  0  0  0
    9.5482    2.2500    0.0000 H   0  0  0  0  0  0  0  0  0  0  0  0
    8.9282    2.8700    0.0000 H   0  0  0  0  0  0  0  0  0  0  0  0
    8.3082    2.2500    0.0000 H   0  0  0  0  0  0  0  0  0  0  0  0
    9.4842    0.2131    0.0000 H   0  0  0  0  0  0  0  0  0  0  0  0
   10.3312    0.4400    0.0000 H   0  0  0  0  0  0  0  0  0  0  0  0
   10.1042    1.2869    0.0000 H   0  0  0  0  0  0  0  0  0  0  0  0
    6.0201    1.2869    0.0000 H   0  0  0  0  0  0  0  0  0  0  0  0
    5.7932    0.4400    0.0000 H   0  0  0  0  0  0  0  0  0  0  0  0
    6.6401    0.2131    0.0000 H   0  0  0  0  0  0  0  0  0  0  0  0
    7.5062    3.7131    0.0000 H   0  0  0  0  0  0  0  0  0  0  0  0
    7.7331    4.5600    0.0000 H   0  0  0  0  0  0  0  0  0  0  0  0
    6.8862    4.7869    0.0000 H   0  0  0  0  0  0  0  0  0  0  0  0
    5.2087    6.6423    0.0000 H   0  0  0  0  0  0  0  0  0  0  0  0
    4.8101    7.3326    0.0000 H   0  0  0  0  0  0  0  0  0  0  0  0
    6.6401    5.2131    0.0000 H   0  0  0  0  0  0  0  0  0  0  0  0
    6.8671    6.0600    0.0000 H   0  0  0  0  0  0  0  0  0  0  0  0
    6.0201    6.2869    0.0000 H   0  0  0  0  0  0  0  0  0  0  0  0
    7.5062   -1.2131    0.0000 H   0  0  0  0  0  0  0  0  0  0  0  0
    6.6592   -1.4400    0.0000 H   0  0  0  0  0  0  0  0  0  0  0  0
    6.8862   -2.2869    0.0000 H   0  0  0  0  0  0  0  0  0  0  0  0
    7.4422   -3.2500    0.0000 H   0  0  0  0  0  0  0  0  0  0  0  0
    8.0622   -3.8700    0.0000 H   0  0  0  0  0  0  0  0  0  0  0  0
    8.6822   -3.2500    0.0000 H   0  0  0  0  0  0  0  0  0  0  0  0
   10.6603   -3.1300    0.0000 H   0  0  0  0  0  0  0  0  0  0  0  0
    3.1215    7.3577    0.0000 H   0  0  0  0  0  0  0  0  0  0  0  0
    3.5200    6.6674    0.0000 H   0  0  0  0  0  0  0  0  0  0  0  0
    8.6182   -3.2131    0.0000 H   0  0  0  0  0  0  0  0  0  0  0  0
    8.3913   -4.0600    0.0000 H   0  0  0  0  0  0  0  0  0  0  0  0
    9.2382   -4.2869    0.0000 H   0  0  0  0  0  0  0  0  0  0  0  0
    4.3426    8.1423    0.0000 H   0  0  0  0  0  0  0  0  0  0  0  0
    3.9441    8.8326    0.0000 H   0  0  0  0  0  0  0  0  0  0  0  0
   11.8363   -3.7869    0.0000 H   0  0  0  0  0  0  0  0  0  0  0  0
   12.0632   -2.9400    0.0000 H   0  0  0  0  0  0  0  0  0  0  0  0
   11.2163   -2.7131    0.0000 H   0  0  0  0  0  0  0  0  0  0  0  0
   12.0632   -5.9400    0.0000 H   0  0  0  0  0  0  0  0  0  0  0  0
   10.4482   -6.1674    0.0000 H   0  0  0  0  0  0  0  0  0  0  0  0
   10.0497   -6.8577    0.0000 H   0  0  0  0  0  0  0  0  0  0  0  0
   12.7023   -5.2869    0.0000 H   0  0  0  0  0  0  0  0  0  0  0  0
   12.9292   -4.4400    0.0000 H   0  0  0  0  0  0  0  0  0  0  0  0
   12.0823   -4.2131    0.0000 H   0  0  0  0  0  0  0  0  0  0  0  0
    3.4860    9.7500    0.0000 H   0  0  0  0  0  0  0  0  0  0  0  0
    2.8660   10.3700    0.0000 H   0  0  0  0  0  0  0  0  0  0  0  0
    2.2460    9.7500    0.0000 H   0  0  0  0  0  0  0  0  0  0  0  0
    9.2573   -7.9400    0.0000 H   0  0  0  0  0  0  0  0  0  0  0  0
   12.0632   -7.9400    0.0000 H   0  0  0  0  0  0  0  0  0  0  0  0
   13.7953   -6.5600    0.0000 H   0  0  0  0  0  0  0  0  0  0  0  0
   13.2583   -5.6300    0.0000 H   0  0  0  0  0  0  0  0  0  0  0  0
    9.2573   -9.5600    0.0000 H   0  0  0  0  0  0  0  0  0  0  0  0
   12.0632   -9.5600    0.0000 H   0  0  0  0  0  0  0  0  0  0  0  0
   10.6603  -10.3700    0.0000 H   0  0  0  0  0  0  0  0  0  0  0  0
  1 18  2  0  0  0  0
  2 20  2  0  0  0  0
  3 23  2  0  0  0  0
  4 31  2  0  0  0  0
  5 38  2  0  0  0  0
  6 45  2  0  0  0  0
  7 46  2  0  0  0  0
 15  8  1  1  0  0  0
  8 18  1  0  0  0  0
  8 29  1  0  0  0  0
 14  9  1  6  0  0  0
  9 23  1  0  0  0  0
  9 30  1  0  0  0  0
 19 10  1  6  0  0  0
 10 20  1  0  0  0  0
 10 61  1  0  0  0  0
 11 31  1  0  0  0  0
 36 11  1  1  0  0  0
 11 39  1  0  0  0  0
 12 38  1  0  0  0  0
 42 12  1  6  0  0  0
 12 44  1  0  0  0  0
 13 46  1  0  0  0  0
 13115  1  0  0  0  0
 13116  1  0  0  0  0
 14 16  1  0  0  0  0
 14 18  1  0  0  0  0
 14 54  1  0  0  0  0
 15 17  1  0  0  0  0
 15 20  1  0  0  0  0
 15 55  1  0  0  0  0
 16 24  1  0  0  0  0
 16 25  1  0  0  0  0
 16 56  1  0  0  0  0
 17 27  1  0  0  0  0
 17 28  1  0  0  0  0
 17 57  1  0  0  0  0
 19 22  1  0  0  0  0
 19 31  1  0  0  0  0
 19 58  1  0  0  0  0
 21 23  1  0  0  0  0
 21 26  1  0  0  0  0
 21 33  1  1  0  0  0
 21 59  1  0  0  0  0
 22 34  1  0  0  0  0
 22 35  1  0  0  0  0
 22 60  1  0  0  0  0
 24 62  1  0  0  0  0
 24 63  1  0  0  0  0
 24 64  1  0  0  0  0
 25 65  1  0  0  0  0
 25 66  1  0  0  0  0
 25 67  1  0  0  0  0
 26 32  1  0  0  0  0
 26 68  1  0  0  0  0
 26 69  1  0  0  0  0
 27 70  1  0  0  0  0
 27 71  1  0  0  0  0
 27 72  1  0  0  0  0
 28 73  1  0  0  0  0
 28 74  1  0  0  0  0
 28 75  1  0  0  0  0
 29 76  1  0  0  0  0
 29 77  1  0  0  0  0
 29 78  1  0  0  0  0
 30 79  1  0  0  0  0
 30 80  1  0  0  0  0
 30 81  1  0  0  0  0
 32 37  1  0  0  0  0
 32 82  1  0  0  0  0
 32 83  1  0  0  0  0
 33 84  1  0  0  0  0
 33 85  1  0  0  0  0
 33 86  1  0  0  0  0
 34 87  1  0  0  0  0
 34 88  1  0  0  0  0
 34 89  1  0  0  0  0
 35 90  1  0  0  0  0
 35 91  1  0  0  0  0
 35 92  1  0  0  0  0
 36 38  1  0  0  0  0
 36 41  1  0  0  0  0
 36 93  1  0  0  0  0
 37 40  1  0  0  0  0
 37 94  1  0  0  0  0
 37 95  1  0  0  0  0
 39 96  1  0  0  0  0
 39 97  1  0  0  0  0
 39 98  1  0  0  0  0
 40 45  1  0  0  0  0
 40 99  1  0  0  0  0
 40100  1  0  0  0  0
 41101  1  0  0  0  0
 41102  1  0  0  0  0
 41103  1  0  0  0  0
 42 43  1  0  0  0  0
 42 46  1  0  0  0  0
 42104  1  0  0  0  0
 43 47  1  0  0  0  0
 43105  1  0  0  0  0
 43106  1  0  0  0  0
 44107  1  0  0  0  0
 44108  1  0  0  0  0
 44109  1  0  0  0  0
 45 48  1  0  0  0  0
 47 49  2  0  0  0  0
 47 50  1  0  0  0  0
 48110  1  0  0  0  0
 48111  1  0  0  0  0
 48112  1  0  0  0  0
 49 51  1  0  0  0  0
 49113  1  0  0  0  0
 50 52  2  0  0  0  0
 50114  1  0  0  0  0
 51 53  2  0  0  0  0
 51117  1  0  0  0  0
 52 53  1  0  0  0  0
 52118  1  0  0  0  0
 53119  1  0  0  0  0
M  END
> <PUBCHEM_COMPOUND_CID>
46237174

> <PUBCHEM_COMPOUND_CANONICALIZED>
1

> <PUBCHEM_CACTVS_COMPLEXITY>
1260

> <PUBCHEM_CACTVS_HBOND_ACCEPTOR>
7

> <PUBCHEM_CACTVS_HBOND_DONOR>
2

> <PUBCHEM_CACTVS_ROTATABLE_BOND>
21

> <PUBCHEM_CACTVS_SUBSKEYS>
AAADcfB/uAAAAAAAAAAAAAAAAAAAAAAAAAAwAAAAAAAAAAABAAAAHgAQAAAADSzBmAQyAIPAAACIAqFSEAACAAAgAAAIiIGIAIgIYDKAkTGUIAAglgCIiAcYiMCOAAAAAAAAAAAAAAAAAAAAAAAAAAAAAA==

> <PUBCHEM_IUPAC_OPENEYE_NAME>
(2R)-N-[(1S)-1-[[(1S)-1-[[(1S)-1-[[(1S)-2-[[(1S)-2-amino-1-benzyl-2-oxo-ethyl]-methyl-amino]-1-methyl-2-oxo-ethyl]-methyl-carbamoyl]-2-methyl-propyl]carbamoyl]-2-methyl-propyl]-methyl-carbamoyl]-2-methyl-propyl]-N,2-dimethyl-7-oxo-octanamide

> <PUBCHEM_IUPAC_CAS_NAME>
(2R)-N-[(2S)-1-[[(2S)-1-[[(2S)-1-[[(2S)-1-[[(2S)-1-amino-1-oxo-3-phenylpropan-2-yl]-methylamino]-1-oxopropan-2-yl]-methylamino]-3-methyl-1-oxobutan-2-yl]amino]-3-methyl-1-oxobutan-2-yl]-methylamino]-3-methyl-1-oxobutan-2-yl]-N,2-dimethyl-7-oxooctanamide

> <PUBCHEM_IUPAC_NAME_MARKUP>
(2<I>R</I>)-<I>N</I>-[(2<I>S</I>)-1-[[(2<I>S</I>)-1-[[(2<I>S</I>)-1-[[(2<I>S</I>)-1-[[(2<I>S</I>)-1-amino-1-oxo-3-phenylpropan-2-yl]-methylamino]-1-oxopropan-2-yl]-methylamino]-3-methyl-1-oxobutan-2-yl]amino]-3-methyl-1-oxobutan-2-yl]-methylamino]-3-methyl-1-oxobutan-2-yl]-<I>N</I>,2-dimethyl-7-oxooctanamide

> <PUBCHEM_IUPAC_NAME>
(2R)-N-[(2S)-1-[[(2S)-1-[[(2S)-1-[[(2S)-1-[[(2S)-1-amino-1-oxo-3-phenylpropan-2-yl]-methylamino]-1-oxopropan-2-yl]-methylamino]-3-methyl-1-oxobutan-2-yl]amino]-3-methyl-1-oxobutan-2-yl]-methylamino]-3-methyl-1-oxobutan-2-yl]-N,2-dimethyl-7-oxooctanamide

> <PUBCHEM_IUPAC_SYSTEMATIC_NAME>
(2R)-N-[(2S)-1-[[(2S)-1-[[(2S)-1-[[(2S)-1-[[(2S)-1-azanyl-1-oxidanylidene-3-phenyl-propan-2-yl]-methyl-amino]-1-oxidanylidene-propan-2-yl]-methyl-amino]-3-methyl-1-oxidanylidene-butan-2-yl]amino]-3-methyl-1-oxidanylidene-butan-2-yl]-methyl-amino]-3-methyl-1-oxidanylidene-butan-2-yl]-N,2-dimethyl-7-oxidanylidene-octanamide

> <PUBCHEM_IUPAC_TRADITIONAL_NAME>
(2R)-N-[(1S)-1-[[(1S)-1-[[(1S)-1-[[(1S)-2-[[(1S)-2-amino-1-benzyl-2-keto-ethyl]-methyl-amino]-2-keto-1-methyl-ethyl]-methyl-carbamoyl]-2-methyl-propyl]carbamoyl]-2-methyl-propyl]-methyl-carbamoyl]-2-methyl-propyl]-7-keto-N,2-dimethyl-caprylamide

> <PUBCHEM_IUPAC_INCHI>
InChI=1S/C40H66N6O7/c1-24(2)32(39(52)43(10)29(9)38(51)44(11)31(35(41)48)23-30-21-15-14-16-22-30)42-36(49)33(25(3)4)45(12)40(53)34(26(5)6)46(13)37(50)27(7)19-17-18-20-28(8)47/h14-16,21-22,24-27,29,31-34H,17-20,23H2,1-13H3,(H2,41,48)(H,42,49)/t27-,29+,31+,32+,33+,34+/m1/s1

> <PUBCHEM_IUPAC_INCHIKEY>
WPASHCDGVMUZKC-GRPUOVBYSA-N

> <PUBCHEM_XLOGP3_AA>
4.5

> <PUBCHEM_EXACT_MASS>
742.49929847

> <PUBCHEM_MOLECULAR_FORMULA>
C40H66N6O7

> <PUBCHEM_MOLECULAR_WEIGHT>
743.0

> <PUBCHEM_OPENEYE_CAN_SMILES>
CC(C)C(C(=O)N(C)C(C)C(=O)N(C)C(CC1=CC=CC=C1)C(=O)N)NC(=O)C(C(C)C)N(C)C(=O)C(C(C)C)N(C)C(=O)C(C)CCCCC(=O)C

> <PUBCHEM_OPENEYE_ISO_SMILES>
C[C@H](CCCCC(=O)C)C(=O)N(C)[C@@H](C(C)C)C(=O)N(C)[C@@H](C(C)C)C(=O)N[C@@H](C(C)C)C(=O)N(C)[C@@H](C)C(=O)N(C)[C@@H](CC1=CC=CC=C1)C(=O)N

> <PUBCHEM_CACTVS_TPSA>
171

> <PUBCHEM_MONOISOTOPIC_WEIGHT>
742.49929847

> <PUBCHEM_TOTAL_CHARGE>
0

> <PUBCHEM_HEAVY_ATOM_COUNT>
53

> <PUBCHEM_ATOM_DEF_STEREO_COUNT>
6

> <PUBCHEM_ATOM_UDEF_STEREO_COUNT>
0

> <PUBCHEM_BOND_DEF_STEREO_COUNT>
0

> <PUBCHEM_BOND_UDEF_STEREO_COUNT>
0

> <PUBCHEM_ISOTOPIC_ATOM_COUNT>
0

> <PUBCHEM_COMPONENT_COUNT>
1

> <PUBCHEM_CACTVS_TAUTO_COUNT>
-1

> <PUBCHEM_COORDINATE_TYPE>
1
5
255

> <PUBCHEM_BONDANNOTATIONS>
19  10  6
36  11  5
42  12  6
21  33  5
47  49  8
47  50  8
49  51  8
50  52  8
51  53  8
52  53  8
15  8  5
14  9  6

$$$$
> 791_AKC_j.algal.2023.103241
769.sdf
 OpenBabel08282315083D

126127  0  0  1  0  0  0  0  0999 V2000
    1.2989    7.1412    7.6518 O   0  0  0  0  0  0  0  0  0  0  0  0
    2.8951    5.5535    7.6503 O   0  0  0  0  0  0  0  0  0  0  0  0
    2.4716    7.0978    4.6558 O   0  0  0  0  0  0  0  0  0  0  0  0
    3.1789    6.7311    4.3882 H   0  0  0  0  0  0  0  0  0  0  0  0
    5.7962    8.9469    7.7654 O   0  0  0  0  0  0  0  0  0  0  0  0
    7.6644    6.7974    3.3320 O   0  0  0  0  0  0  0  0  0  0  0  0
    4.7049    5.5482    4.5018 O   0  0  0  0  0  0  0  0  0  0  0  0
    3.0101    4.7347    2.5029 O   0  0  0  0  0  0  0  0  0  0  0  0
    4.0944    6.3648    1.4093 O   0  0  0  0  0  0  0  0  0  0  0  0
    0.1336    8.7395    3.3538 O   0  0  0  0  0  0  0  0  0  0  0  0
    0.0433    4.7231    5.7136 O   0  0  0  0  0  0  0  0  0  0  0  0
    4.7227    7.2565    6.6889 N   0  0  0  0  0  0  0  0  0  0  0  0
    4.8296    6.4933    6.2658 H   0  0  0  0  0  0  0  0  0  0  0  0
    7.5116    7.3464    5.5036 N   0  0  0  0  0  0  0  0  0  0  0  0
    6.4160    4.3306    3.7676 N   0  0  0  0  0  0  0  0  0  0  0  0
    1.2460    7.5241    1.8045 N   0  0  0  0  0  0  0  0  0  0  0  0
   -0.6290    6.6811    4.8176 N   0  0  0  0  0  0  0  0  0  0  0  0
   -1.0245    7.4508    4.9783 H   0  0  0  0  0  0  0  0  0  0  0  0
    2.5142    6.6747    7.4138 C   0  0  0  0  0  0  0  0  0  0  0  0
    3.3850    7.7674    6.8243 C   0  0  2  0  0  0  0  0  0  0  0  0
    3.3960    8.5472    7.4494 H   0  0  0  0  0  0  0  0  0  0  0  0
    2.7984    8.2223    5.4616 C   0  0  1  0  0  0  0  0  0  0  0  0
    1.9443    8.7065    5.6544 H   0  0  0  0  0  0  0  0  0  0  0  0
    3.7120    9.1933    4.7445 C   0  0  0  0  0  0  0  0  0  0  0  0
    4.5177    8.7230    4.4436 H   0  0  0  0  0  0  0  0  0  0  0  0
    3.9655    9.9169    5.3550 H   0  0  0  0  0  0  0  0  0  0  0  0
    3.2454    9.5696    3.9686 H   0  0  0  0  0  0  0  0  0  0  0  0
    5.8224    7.8700    7.1696 C   0  0  0  0  0  0  0  0  0  0  0  0
    7.1221    7.1031    6.8818 C   0  0  2  0  0  0  0  0  0  0  0  0
    6.9184    6.1283    6.9668 H   0  0  0  0  0  0  0  0  0  0  0  0
    8.2122    7.4406    7.9210 C   0  0  0  0  0  0  0  0  0  0  0  0
    8.2963    8.4343    7.9870 H   0  0  0  0  0  0  0  0  0  0  0  0
    7.7777    6.9000    9.2619 C   0  0  0  0  0  0  0  0  0  0  0  0
    6.9256    7.3113    9.5188 H   0  0  0  0  0  0  0  0  0  0  0  0
    8.4576    7.1092    9.9350 H   0  0  0  0  0  0  0  0  0  0  0  0
    7.6652    5.9279    9.2017 H   0  0  0  0  0  0  0  0  0  0  0  0
    9.5469    6.8683    7.4854 C   0  0  0  0  0  0  0  0  0  0  0  0
    9.4636    5.8994    7.3661 H   0  0  0  0  0  0  0  0  0  0  0  0
   10.2217    7.0568    8.1703 H   0  0  0  0  0  0  0  0  0  0  0  0
    9.8175    7.2799    6.6380 H   0  0  0  0  0  0  0  0  0  0  0  0
    7.8119    8.7311    5.1412 C   0  0  0  0  0  0  0  0  0  0  0  0
    7.0013    9.1627    4.7985 H   0  0  0  0  0  0  0  0  0  0  0  0
    8.5057    8.7438    4.4485 H   0  0  0  0  0  0  0  0  0  0  0  0
    8.1304    9.2144    5.9314 H   0  0  0  0  0  0  0  0  0  0  0  0
    7.4614    6.4515    4.4909 C   0  0  0  0  0  0  0  0  0  0  0  0
    7.3296    4.9452    4.7600 C   0  0  2  0  0  0  0  0  0  0  0  0
    7.0134    4.7744    5.6923 H   0  0  0  0  0  0  0  0  0  0  0  0
    8.6638    4.2206    4.4878 C   0  0  0  0  0  0  0  0  0  0  0  0
    9.4299    4.8238    4.6549 H   0  0  0  0  0  0  0  0  0  0  0  0
    8.7522    3.4233    5.0687 H   0  0  0  0  0  0  0  0  0  0  0  0
    8.6073    3.8176    3.0349 C   0  0  0  0  0  0  0  0  0  0  0  0
    9.2119    3.0549    2.8515 H   0  0  0  0  0  0  0  0  0  0  0  0
    8.8531    4.5737    2.4445 H   0  0  0  0  0  0  0  0  0  0  0  0
    7.1363    3.4178    2.8405 C   0  0  0  0  0  0  0  0  0  0  0  0
    6.8484    3.5598    1.9040 H   0  0  0  0  0  0  0  0  0  0  0  0
    6.9887    2.4700    3.0848 H   0  0  0  0  0  0  0  0  0  0  0  0
    5.1443    4.7157    3.7209 C   0  0  0  0  0  0  0  0  0  0  0  0
    4.2201    3.9868    2.7347 C   0  0  1  0  0  0  0  0  0  0  0  0
    4.6974    3.8292    1.8699 H   0  0  0  0  0  0  0  0  0  0  0  0
    3.7272    2.6413    3.3227 C   0  0  1  0  0  0  0  0  0  0  0  0
    4.5356    2.0967    3.5472 H   0  0  0  0  0  0  0  0  0  0  0  0
    2.9305    2.8116    4.5843 C   0  0  0  0  0  0  0  0  0  0  0  0
    3.4524    3.3269    5.2338 H   0  0  0  0  0  0  0  0  0  0  0  0
    2.7197    1.9310    4.9587 H   0  0  0  0  0  0  0  0  0  0  0  0
    2.0978    3.2882    4.3825 H   0  0  0  0  0  0  0  0  0  0  0  0
    2.9202    1.8628    2.2758 C   0  0  0  0  0  0  0  0  0  0  0  0
    2.5248    1.0679    2.7130 H   0  0  0  0  0  0  0  0  0  0  0  0
    2.1744    2.4348    1.9662 H   0  0  0  0  0  0  0  0  0  0  0  0
    3.7025    1.4037    1.0687 C   0  0  0  0  0  0  0  0  0  0  0  0
    3.1069    0.9238    0.4559 H   0  0  0  0  0  0  0  0  0  0  0  0
    4.4258    0.8072    1.3547 H   0  0  0  0  0  0  0  0  0  0  0  0
    4.0837    2.1819    0.6103 H   0  0  0  0  0  0  0  0  0  0  0  0
    3.0730    5.8348    1.7251 C   0  0  0  0  0  0  0  0  0  0  0  0
    1.6746    6.2347    1.2429 C   0  0  2  0  0  0  0  0  0  0  0  0
    1.0360    5.5392    1.5699 H   0  0  0  0  0  0  0  0  0  0  0  0
    1.6706    6.1744   -0.2956 C   0  0  0  0  0  0  0  0  0  0  0  0
    2.3927    6.7745   -0.6408 H   0  0  0  0  0  0  0  0  0  0  0  0
    1.9733    4.7516   -0.7373 C   0  0  0  0  0  0  0  0  0  0  0  0
    1.2955    4.1455   -0.3709 H   0  0  0  0  0  0  0  0  0  0  0  0
    2.8581    4.4889   -0.4082 H   0  0  0  0  0  0  0  0  0  0  0  0
    1.9603    4.7031   -1.7156 H   0  0  0  0  0  0  0  0  0  0  0  0
    0.3353    6.6409   -0.8696 C   0  0  0  0  0  0  0  0  0  0  0  0
   -0.3919    6.1148   -0.4755 H   0  0  0  0  0  0  0  0  0  0  0  0
    0.3360    6.5187   -1.8423 H   0  0  0  0  0  0  0  0  0  0  0  0
    0.2025    7.5891   -0.6602 H   0  0  0  0  0  0  0  0  0  0  0  0
    1.9394    8.7237    1.3082 C   0  0  0  0  0  0  0  0  0  0  0  0
    1.5933    9.5157    1.7701 H   0  0  0  0  0  0  0  0  0  0  0  0
    1.7840    8.8145    0.3442 H   0  0  0  0  0  0  0  0  0  0  0  0
    2.9004    8.6399    1.4775 H   0  0  0  0  0  0  0  0  0  0  0  0
    0.4176    7.6384    2.8747 C   0  0  0  0  0  0  0  0  0  0  0  0
   -0.2304    6.3870    3.4611 C   0  0  2  0  0  0  0  0  0  0  0  0
    0.4485    5.6522    3.4787 H   0  0  0  0  0  0  0  0  0  0  0  0
   -1.4558    5.9173    2.6149 C   0  0  0  0  0  0  0  0  0  0  0  0
   -1.1822    5.9320    1.6537 H   0  0  0  0  0  0  0  0  0  0  0  0
   -1.8446    4.4925    2.9602 C   0  0  0  0  0  0  0  0  0  0  0  0
   -1.0776    3.9004    2.8146 H   0  0  0  0  0  0  0  0  0  0  0  0
   -2.5884    4.2101    2.3875 H   0  0  0  0  0  0  0  0  0  0  0  0
   -2.1196    4.4471    3.8991 H   0  0  0  0  0  0  0  0  0  0  0  0
   -2.6452    6.8630    2.7720 C   0  0  0  0  0  0  0  0  0  0  0  0
   -2.9629    6.8386    3.6993 H   0  0  0  0  0  0  0  0  0  0  0  0
   -3.3677    6.5824    2.1724 H   0  0  0  0  0  0  0  0  0  0  0  0
   -2.3696    7.7761    2.5460 H   0  0  0  0  0  0  0  0  0  0  0  0
   -0.4305    5.8412    5.8505 C   0  0  0  0  0  0  0  0  0  0  0  0
   -0.9183    6.3193    7.2349 C   0  0  0  0  0  0  0  0  0  0  0  0
   -1.9996    5.3207    7.6658 C   0  0  0  0  0  0  0  0  0  0  0  0
   -2.7302    5.3276    7.0125 H   0  0  0  0  0  0  0  0  0  0  0  0
   -2.3468    5.5753    8.5464 H   0  0  0  0  0  0  0  0  0  0  0  0
   -1.6137    4.4212    7.7147 H   0  0  0  0  0  0  0  0  0  0  0  0
   -1.5096    7.7442    7.2272 C   0  0  0  0  0  0  0  0  0  0  0  0
   -0.8600    8.3648    6.8351 H   0  0  0  0  0  0  0  0  0  0  0  0
   -1.7108    8.0188    8.1456 H   0  0  0  0  0  0  0  0  0  0  0  0
   -2.3322    7.7533    6.6949 H   0  0  0  0  0  0  0  0  0  0  0  0
    0.2842    6.2326    8.1885 C   0  0  2  0  0  0  0  0  0  0  0  0
    0.6465    5.3010    8.1634 H   0  0  0  0  0  0  0  0  0  0  0  0
    0.0305    6.6144    9.6367 C   0  0  0  0  0  0  0  0  0  0  0  0
   -0.6271    5.9787   10.0163 H   0  0  0  0  0  0  0  0  0  0  0  0
   -0.3828    7.5141    9.6548 H   0  0  0  0  0  0  0  0  0  0  0  0
    1.2575    6.6324   10.5405 C   0  0  0  0  0  0  0  0  0  0  0  0
    1.9392    7.2255   10.1361 H   0  0  0  0  0  0  0  0  0  0  0  0
    1.0020    7.0222   11.4136 H   0  0  0  0  0  0  0  0  0  0  0  0
    1.8826    5.2731   10.7832 C   0  0  0  0  0  0  0  0  0  0  0  0
    1.1921    4.6583   11.1363 H   0  0  0  0  0  0  0  0  0  0  0  0
    2.2019    4.9060    9.9205 H   0  0  0  0  0  0  0  0  0  0  0  0
    3.0137    5.3218   11.7321 C   0  0  0  0  0  0  0  0  0  0  0  0
    3.8735    5.3461   12.5363 C   0  0  0  0  0  0  0  0  0  0  0  0
    4.5663    5.3652   13.1854 H   0  0  0  0  0  0  0  0  0  0  0  0
  1113  1  0  0  0  0
  3 22  1  0  0  0  0
  4  3  1  0  0  0  0
  6 45  2  0  0  0  0
  8 58  1  0  0  0  0
  9 73  2  0  0  0  0
 11103  2  0  0  0  0
 12 20  1  0  0  0  0
 12 28  1  0  0  0  0
 13 12  1  0  0  0  0
 14 29  1  0  0  0  0
 15 46  1  0  0  0  0
 16 90  1  0  0  0  0
 17 18  1  0  0  0  0
 17103  1  0  0  0  0
 19  2  2  0  0  0  0
 19  1  1  0  0  0  0
 20 19  1  0  0  0  0
 20 21  1  1  0  0  0
 22 23  1  1  0  0  0
 22 20  1  0  0  0  0
 24 26  1  0  0  0  0
 24 22  1  0  0  0  0
 25 24  1  0  0  0  0
 27 24  1  0  0  0  0
 28  5  2  0  0  0  0
 29 30  1  1  0  0  0
 29 28  1  0  0  0  0
 29 31  1  0  0  0  0
 31 32  1  0  0  0  0
 31 33  1  0  0  0  0
 33 34  1  0  0  0  0
 33 35  1  0  0  0  0
 36 33  1  0  0  0  0
 37 31  1  0  0  0  0
 37 39  1  0  0  0  0
 38 37  1  0  0  0  0
 40 37  1  0  0  0  0
 41 14  1  0  0  0  0
 41 44  1  0  0  0  0
 42 41  1  0  0  0  0
 43 41  1  0  0  0  0
 45 46  1  0  0  0  0
 45 14  1  0  0  0  0
 46 47  1  1  0  0  0
 48 49  1  0  0  0  0
 48 46  1  0  0  0  0
 48 50  1  0  0  0  0
 51 48  1  0  0  0  0
 52 51  1  0  0  0  0
 53 51  1  0  0  0  0
 54 51  1  0  0  0  0
 54 56  1  0  0  0  0
 54 15  1  0  0  0  0
 55 54  1  0  0  0  0
 57 15  1  0  0  0  0
 57  7  2  0  0  0  0
 58 59  1  6  0  0  0
 58 60  1  0  0  0  0
 58 57  1  0  0  0  0
 60 61  1  1  0  0  0
 60 62  1  0  0  0  0
 62 64  1  0  0  0  0
 62 63  1  0  0  0  0
 65 62  1  0  0  0  0
 66 67  1  0  0  0  0
 66 60  1  0  0  0  0
 68 66  1  0  0  0  0
 69 71  1  0  0  0  0
 69 66  1  0  0  0  0
 70 69  1  0  0  0  0
 72 69  1  0  0  0  0
 73  8  1  0  0  0  0
 74 75  1  1  0  0  0
 74 73  1  0  0  0  0
 74 16  1  0  0  0  0
 76 74  1  0  0  0  0
 77 76  1  0  0  0  0
 78 80  1  0  0  0  0
 78 79  1  0  0  0  0
 78 76  1  0  0  0  0
 81 78  1  0  0  0  0
 82 85  1  0  0  0  0
 82 83  1  0  0  0  0
 82 76  1  0  0  0  0
 84 82  1  0  0  0  0
 86 89  1  0  0  0  0
 86 87  1  0  0  0  0
 86 16  1  0  0  0  0
 88 86  1  0  0  0  0
 90 10  2  0  0  0  0
 90 91  1  0  0  0  0
 91 92  1  1  0  0  0
 91 17  1  0  0  0  0
 93 99  1  0  0  0  0
 93 95  1  0  0  0  0
 93 91  1  0  0  0  0
 94 93  1  0  0  0  0
 95 98  1  0  0  0  0
 96 95  1  0  0  0  0
 97 95  1  0  0  0  0
 99100  1  0  0  0  0
101 99  1  0  0  0  0
102 99  1  0  0  0  0
103104  1  0  0  0  0
104105  1  0  0  0  0
104113  1  0  0  0  0
105108  1  0  0  0  0
105107  1  0  0  0  0
106105  1  0  0  0  0
109104  1  0  0  0  0
109111  1  0  0  0  0
110109  1  0  0  0  0
112109  1  0  0  0  0
113114  1  6  0  0  0
113115  1  0  0  0  0
115117  1  0  0  0  0
115116  1  0  0  0  0
115118  1  0  0  0  0
118121  1  0  0  0  0
118120  1  0  0  0  0
119118  1  0  0  0  0
121122  1  0  0  0  0
121124  1  0  0  0  0
123121  1  0  0  0  0
124125  3  0  0  0  0
125126  1  0  0  0  0
M  END
$$$$
> 792_AKC_j.algal.2023.103241
44627702
  -OEChem-08282314033D

 47 47  0     1  0  0  0  0  0999 V2000
    8.1882    0.0716   -1.2757 Cl  0  0  0  0  0  0  0  0  0  0  0  0
    7.2236   -1.0687    1.2211 Cl  0  0  0  0  0  0  0  0  0  0  0  0
    7.4001    1.8141    0.8799 Cl  0  0  0  0  0  0  0  0  0  0  0  0
   -4.6962    1.8659   -1.3595 S   0  0  0  0  0  0  0  0  0  0  0  0
   -1.6208   -0.1036   -1.6259 O   0  0  0  0  0  0  0  0  0  0  0  0
   -2.7479   -0.8526    0.2509 N   0  0  0  0  0  0  0  0  0  0  0  0
   -4.6511    1.3493    1.1729 N   0  0  0  0  0  0  0  0  0  0  0  0
   -5.0936   -1.6513    0.3057 C   0  0  0  0  0  0  0  0  0  0  0  0
   -4.0783   -0.6235   -0.2644 C   0  0  1  0  0  0  0  0  0  0  0  0
   -6.4893   -1.4750   -0.3068 C   0  0  0  0  0  0  0  0  0  0  0  0
   -4.6256   -3.0924    0.0568 C   0  0  0  0  0  0  0  0  0  0  0  0
   -4.4690    0.8215   -0.0170 C   0  0  0  0  0  0  0  0  0  0  0  0
    5.5291    0.3077   -0.5143 C   0  0  1  0  0  0  0  0  0  0  0  0
    4.4637    0.5478    0.5919 C   0  0  0  0  0  0  0  0  0  0  0  0
   -1.6115   -0.5678   -0.4875 C   0  0  0  0  0  0  0  0  0  0  0  0
    6.9832    0.2691    0.0500 C   0  0  0  0  0  0  0  0  0  0  0  0
    5.1645   -0.9600   -1.3154 C   0  0  0  0  0  0  0  0  0  0  0  0
   -0.3247   -0.8718    0.2312 C   0  0  0  0  0  0  0  0  0  0  0  0
    3.0602    0.6319    0.0521 C   0  0  0  0  0  0  0  0  0  0  0  0
    0.7226   -0.0929   -0.1033 C   0  0  0  0  0  0  0  0  0  0  0  0
    2.0644   -0.1823    0.4355 C   0  0  0  0  0  0  0  0  0  0  0  0
   -5.0728    3.1392   -0.2739 C   0  0  0  0  0  0  0  0  0  0  0  0
   -4.9968    2.6782    1.0237 C   0  0  0  0  0  0  0  0  0  0  0  0
   -0.3220   -1.9544    1.2719 C   0  0  0  0  0  0  0  0  0  0  0  0
   -5.1788   -1.5103    1.3916 H   0  0  0  0  0  0  0  0  0  0  0  0
   -4.0281   -0.7931   -1.3494 H   0  0  0  0  0  0  0  0  0  0  0  0
   -6.9112   -0.4949   -0.0635 H   0  0  0  0  0  0  0  0  0  0  0  0
   -7.1817   -2.2301    0.0811 H   0  0  0  0  0  0  0  0  0  0  0  0
   -6.4591   -1.5731   -1.3973 H   0  0  0  0  0  0  0  0  0  0  0  0
   -3.6823   -3.3022    0.5707 H   0  0  0  0  0  0  0  0  0  0  0  0
   -5.3636   -3.8100    0.4316 H   0  0  0  0  0  0  0  0  0  0  0  0
   -4.4820   -3.2832   -1.0122 H   0  0  0  0  0  0  0  0  0  0  0  0
   -2.6675   -1.1484    1.2186 H   0  0  0  0  0  0  0  0  0  0  0  0
    5.4693    1.1511   -1.2181 H   0  0  0  0  0  0  0  0  0  0  0  0
    4.6625    1.4933    1.1084 H   0  0  0  0  0  0  0  0  0  0  0  0
    4.5222   -0.2412    1.3508 H   0  0  0  0  0  0  0  0  0  0  0  0
    5.8993   -1.1787   -2.0951 H   0  0  0  0  0  0  0  0  0  0  0  0
    4.2053   -0.8430   -1.8303 H   0  0  0  0  0  0  0  0  0  0  0  0
    5.0889   -1.8384   -0.6661 H   0  0  0  0  0  0  0  0  0  0  0  0
    2.8741    1.4089   -0.6863 H   0  0  0  0  0  0  0  0  0  0  0  0
    0.5897    0.6854   -0.8539 H   0  0  0  0  0  0  0  0  0  0  0  0
    2.2719   -0.9435    1.1801 H   0  0  0  0  0  0  0  0  0  0  0  0
   -5.3225    4.1304   -0.6241 H   0  0  0  0  0  0  0  0  0  0  0  0
   -5.1863    3.2757    1.9052 H   0  0  0  0  0  0  0  0  0  0  0  0
   -0.7098   -1.5759    2.2229 H   0  0  0  0  0  0  0  0  0  0  0  0
   -0.9423   -2.7989    0.9516 H   0  0  0  0  0  0  0  0  0  0  0  0
    0.6745   -2.3664    1.4518 H   0  0  0  0  0  0  0  0  0  0  0  0
  1 16  1  0  0  0  0
  2 16  1  0  0  0  0
  3 16  1  0  0  0  0
  4 12  1  0  0  0  0
  4 22  1  0  0  0  0
  5 15  2  0  0  0  0
  6  9  1  0  0  0  0
  6 15  1  0  0  0  0
  6 33  1  0  0  0  0
  7 12  2  0  0  0  0
  7 23  1  0  0  0  0
  8  9  1  0  0  0  0
  8 10  1  0  0  0  0
  8 11  1  0  0  0  0
  8 25  1  0  0  0  0
  9 12  1  0  0  0  0
  9 26  1  0  0  0  0
 10 27  1  0  0  0  0
 10 28  1  0  0  0  0
 10 29  1  0  0  0  0
 11 30  1  0  0  0  0
 11 31  1  0  0  0  0
 11 32  1  0  0  0  0
 13 14  1  0  0  0  0
 13 16  1  0  0  0  0
 13 17  1  0  0  0  0
 13 34  1  0  0  0  0
 14 19  1  0  0  0  0
 14 35  1  0  0  0  0
 14 36  1  0  0  0  0
 15 18  1  0  0  0  0
 17 37  1  0  0  0  0
 17 38  1  0  0  0  0
 17 39  1  0  0  0  0
 18 20  2  0  0  0  0
 18 24  1  0  0  0  0
 19 21  2  0  0  0  0
 19 40  1  0  0  0  0
 20 21  1  0  0  0  0
 20 41  1  0  0  0  0
 21 42  1  0  0  0  0
 22 23  2  0  0  0  0
 22 43  1  0  0  0  0
 23 44  1  0  0  0  0
 24 45  1  0  0  0  0
 24 46  1  0  0  0  0
 24 47  1  0  0  0  0
M  END
> <PUBCHEM_COMPOUND_CID>
44627702

> <PUBCHEM_CONFORMER_RMSD>
1.4

> <PUBCHEM_CONFORMER_DIVERSEORDER>
1
40
8
52
55
28
56
27
23
18
62
38
41
60
12
44
48
50
64
4
26
61
2
54
7
13
58
10
49
59
63
21
65
36
9
22
33
6
30
3
67
17
11
25
35
43
19
24
42
5
29
53
66
15
16
37
20
31
39
51
34
47
68
14
69
32
57
46
45

> <PUBCHEM_MMFF94_PARTIAL_CHARGES>
25
1 -0.29
12 0.2
14 0.14
15 0.62
16 0.87
18 -0.12
19 -0.29
2 -0.29
20 -0.15
21 -0.15
22 -0.11
23 0.08
24 0.14
3 -0.29
33 0.37
4 -0.08
40 0.15
41 0.15
42 0.15
43 0.15
44 0.15
5 -0.57
6 -0.73
7 -0.57
9 0.48

> <PUBCHEM_EFFECTIVE_ROTOR_COUNT>
9

> <PUBCHEM_PHARMACOPHORE_FEATURES>
7
1 17 hydrophobe
1 24 hydrophobe
1 5 acceptor
1 6 donor
1 7 acceptor
3 8 10 11 hydrophobe
5 4 7 12 22 23 rings

> <PUBCHEM_HEAVY_ATOM_COUNT>
24

> <PUBCHEM_ATOM_DEF_STEREO_COUNT>
2

> <PUBCHEM_ATOM_UDEF_STEREO_COUNT>
0

> <PUBCHEM_BOND_DEF_STEREO_COUNT>
2

> <PUBCHEM_BOND_UDEF_STEREO_COUNT>
0

> <PUBCHEM_ISOTOPIC_ATOM_COUNT>
0

> <PUBCHEM_COMPONENT_COUNT>
1

> <PUBCHEM_CACTVS_TAUTO_COUNT>
5

> <PUBCHEM_CONFORMER_ID>
02A8F6F600000001

> <PUBCHEM_MMFF94_ENERGY>
35.6442

> <PUBCHEM_FEATURE_SELFOVERLAP>
35.522

> <PUBCHEM_SHAPE_FINGERPRINT>
100830 39 18411136922304879881
10299344 5 18040715866539873138
10411042 1 18050005799619495683
10638233 991 17676778668591732692
10670039 82 18408318882856399777
11315181 36 18040436624713904855
12082328 90 18413671314176779982
12390115 104 18335986385373540259
13073987 5 18408322176906626282
13631057 29 18335979874609860259
13885169 127 18410856573142058370
14251752 14 18342454825201669312
14251764 18 18187082867171839290
14856354 85 18113341937705960495
14933364 13 18343866632438789288
15021287 119 16805326604055110964
15183329 4 17967814959846880622
15419008 42 17915182312823994692
1577012 14 17967253088130704292
15778101 99 18411983525300194257
17093844 174 18408318891166675249
17844677 252 18339647835839190112
20281389 69 18408884044855174176
21130935 74 18334852814998622594
21236236 1 18335420175508266763
21315759 40 17821445781207780250
23081809 10 17821728343185522834
23198884 109 18261392277628322146
23522609 53 17822875108017571148
23559900 14 14261054516013242506
249057 25 17968103065630669796
4015057 19 13541883768093978874
444735 82 18268145535100145760
54446538 1 18409167748613891293
57634706 229 17986690173241003761
6327066 14 18190454958092905693
7226269 152 18341613685410387672
9996256 80 18260263049412111530

> <PUBCHEM_SHAPE_MULTIPOLES>
487.54
24.22
2.73
1.26
35.73
0.68
-0.15
4.46
-0.63
-6.51
0.46
0.76
0.15
0.18

> <PUBCHEM_SHAPE_SELFOVERLAP>
929.86

> <PUBCHEM_SHAPE_VOLUME>
302.7

> <PUBCHEM_COORDINATE_TYPE>
2
5
10

$$$$
> 793_AKC_d3md00220a

  Mrv0541 09112319593D              68.63000

 41 43  0  0  0  0            999 V2000
    3.6456   -4.5531    1.3087 O   0  0  0  0  0  0  0  0  0  0  0  0
    2.7405   -3.9603    1.7444 N   0  0  0  0  0  0  0  0  0  0  0  0
    2.4709   -4.0688    2.8741 O   0  0  0  0  0  0  0  0  0  0  0  0
    2.0375   -3.1680    0.9700 C   0  0  0  0  0  0  0  0  0  0  0  0
    2.2961   -1.8194    0.7476 C   0  0  0  0  0  0  0  0  0  0  0  0
    1.3260   -1.3441   -0.1313 C   0  0  0  0  0  0  0  0  0  0  0  0
    1.1898   -0.0658   -0.6335 C   0  0  0  0  0  0  0  0  0  0  0  0
    2.0152    0.8584   -0.2979 N   0  0  0  0  0  0  0  0  0  0  0  0
    1.9732    2.0139   -0.7174 N   0  0  0  0  0  0  0  0  0  0  0  0
    2.7966    2.9455   -0.3936 C   0  0  0  0  0  0  0  0  0  0  0  0
    2.6951    4.2348   -0.9171 C   0  0  0  0  0  0  0  0  0  0  0  0
    3.6310    5.2320   -0.5403 C   0  0  0  0  0  0  0  0  0  0  0  0
    3.5111    6.5553   -1.0077 C   0  0  0  0  0  0  0  0  0  0  0  0
    2.4525    6.9106   -1.8658 C   0  0  0  0  0  0  0  0  0  0  0  0
    2.2989    8.2049   -2.2803 O   0  0  0  0  0  0  0  0  0  0  0  0
    1.4200    8.9543   -1.4181 C   0  0  1  0  0  0  0  0  0  0  0  0
    1.2985   10.3221   -1.9677 C   0  0  0  0  0  0  0  0  0  0  0  0
    2.2304   11.3232   -1.6060 C   0  0  0  0  0  0  0  0  0  0  0  0
    2.1278   12.6192   -2.1440 C   0  0  0  0  0  0  0  0  0  0  0  0
    1.0942   12.9293   -3.0462 C   0  0  0  0  0  0  0  0  0  0  0  0
    0.1624   11.9410   -3.4118 C   0  0  0  0  0  0  0  0  0  0  0  0
    0.2611   10.6444   -2.8747 C   0  0  0  0  0  0  0  0  0  0  0  0
    1.5499    5.9217   -2.2982 C   0  0  0  0  0  0  0  0  0  0  0  0
    1.6706    4.6006   -1.8297 C   0  0  0  0  0  0  0  0  0  0  0  0
    0.5081   -2.4405   -0.4090 C   0  0  0  0  0  0  0  0  0  0  0  0
    0.9430   -3.5355    0.2606 O   0  0  0  0  0  0  0  0  0  0  0  0
    3.0615   -1.2820    1.1630 H   0  0  0  0  0  0  0  0  0  0  0  0
    0.4440    0.1233   -1.2693 H   0  0  0  0  0  0  0  0  0  0  0  0
    3.5298    2.7401    0.2528 H   0  0  0  0  0  0  0  0  0  0  0  0
    4.4099    5.0091    0.0858 H   0  0  0  0  0  0  0  0  0  0  0  0
    4.1876    7.2641   -0.7121 H   0  0  0  0  0  0  0  0  0  0  0  0
    0.4310    8.4859   -1.3640 H   0  0  0  0  0  0  0  0  0  0  0  0
    1.8232    8.9960   -0.4008 H   0  0  0  0  0  0  0  0  0  0  0  0
    2.9859   11.1159   -0.9457 H   0  0  0  0  0  0  0  0  0  0  0  0
    2.8044   13.3361   -1.8756 H   0  0  0  0  0  0  0  0  0  0  0  0
    1.0187   13.8722   -3.4334 H   0  0  0  0  0  0  0  0  0  0  0  0
   -0.5896   12.1645   -4.0664 H   0  0  0  0  0  0  0  0  0  0  0  0
   -0.4298    9.9387   -3.1476 H   0  0  0  0  0  0  0  0  0  0  0  0
    0.7945    6.1690   -2.9436 H   0  0  0  0  0  0  0  0  0  0  0  0
    0.9928    3.9094   -2.1600 H   0  0  0  0  0  0  0  0  0  0  0  0
   -0.3080   -2.4312   -1.0252 H   0  0  0  0  0  0  0  0  0  0  0  0
  1  2  2  0  0  0  0
  2  3  2  0  0  0  0
  2  4  1  0  0  0  0
  4  5  2  0  0  0  0
  5  6  1  0  0  0  0
  6  7  1  0  0  0  0
  7  8  2  0  0  0  0
  8  9  1  0  0  0  0
  9 10  2  0  0  0  0
 10 11  1  0  0  0  0
 11 12  2  0  0  0  0
 12 13  1  0  0  0  0
 13 14  2  0  0  0  0
 14 15  1  0  0  0  0
 15 16  1  0  0  0  0
 16 17  1  0  0  0  0
 17 18  2  0  0  0  0
 18 19  1  0  0  0  0
 19 20  2  0  0  0  0
 20 21  1  0  0  0  0
 21 22  2  0  0  0  0
 17 22  1  0  0  0  0
 14 23  1  0  0  0  0
 23 24  2  0  0  0  0
 11 24  1  0  0  0  0
  6 25  2  0  0  0  0
 25 26  1  0  0  0  0
  4 26  1  0  0  0  0
  5 27  1  0  0  0  0
  7 28  1  0  0  0  0
 10 29  1  0  0  0  0
 12 30  1  0  0  0  0
 13 31  1  0  0  0  0
 16 32  1  0  0  0  0
 16 33  1  0  0  0  0
 18 34  1  0  0  0  0
 19 35  1  0  0  0  0
 20 36  1  0  0  0  0
 21 37  1  0  0  0  0
 22 38  1  0  0  0  0
 23 39  1  0  0  0  0
 24 40  1  0  0  0  0
 25 41  1  0  0  0  0
M  END
$$$$
> 794_AKC_preprints202308.1856.v1

  Mrv0541 09112319583D              78.21000

 45 47  0  0  0  0            999 V2000
    1.5071   -0.0417   -0.0888 C   0  0  0  0  0  0  0  0  0  0  0  0
    0.0676   -0.0019   -0.0410 O   0  0  0  0  0  0  0  0  0  0  0  0
   -0.4038    0.5878    1.1036 C   0  0  0  0  0  0  0  0  0  0  0  0
   -0.6766   -0.1926    2.2479 C   0  0  0  0  0  0  0  0  0  0  0  0
   -0.4856   -1.5507    2.2177 O   0  0  0  0  0  0  0  0  0  0  0  0
   -1.6715   -2.2968    1.8655 C   0  0  1  0  0  0  0  0  0  0  0  0
   -1.4152   -3.7198    1.9765 C   0  0  0  0  0  0  0  0  0  0  0  0
   -1.0625   -4.3102    3.1253 C   0  0  0  0  0  0  0  0  0  0  0  0
   -1.0981    0.4442    3.4333 C   0  0  0  0  0  0  0  0  0  0  0  0
   -1.3663   -0.5331    4.9957 Br  0  0  0  0  0  0  0  0  0  0  0  0
   -1.3006    1.8372    3.4579 C   0  0  0  0  0  0  0  0  0  0  0  0
   -1.0800    2.6350    2.3069 C   0  0  0  0  0  0  0  0  0  0  0  0
   -1.2543    4.0256    2.2946 C   0  0  0  0  0  0  0  0  0  0  0  0
   -2.0714    4.7341    3.1025 C   0  0  0  0  0  0  0  0  0  0  0  0
   -2.1865    6.1059    3.0889 C   0  0  0  0  0  0  0  0  0  0  0  0
   -2.5672    6.6543    1.9119 C   0  0  0  0  0  0  0  0  0  0  0  0
   -1.9462    6.8616    4.2827 C   0  0  0  0  0  0  0  0  0  0  0  0
   -1.4876    6.2293    5.4848 C   0  0  0  0  0  0  0  0  0  0  0  0
   -1.3000    6.9355    6.6892 C   0  0  0  0  0  0  0  0  0  0  0  0
   -1.5579    8.3099    6.7125 C   0  0  0  0  0  0  0  0  0  0  0  0
   -1.4496    9.1366    7.7659 O   0  0  0  0  0  0  0  0  0  0  0  0
   -1.8230   10.4037    7.1951 C   0  0  1  0  0  0  0  0  0  0  0  0
   -2.1385   10.2878    5.7933 O   0  0  0  0  0  0  0  0  0  0  0  0
   -1.9691    8.9691    5.5711 C   0  0  0  0  0  0  0  0  0  0  0  0
   -2.1615    8.2738    4.3655 C   0  0  0  0  0  0  0  0  0  0  0  0
   -0.6250    1.9805    1.1343 C   0  0  0  0  0  0  0  0  0  0  0  0
    1.9205   -0.5921    0.7615 H   0  0  0  0  0  0  0  0  0  0  0  0
    1.8101   -0.5557   -1.0023 H   0  0  0  0  0  0  0  0  0  0  0  0
    1.9322    0.9657   -0.1121 H   0  0  0  0  0  0  0  0  0  0  0  0
   -2.5122   -2.0440    2.5203 H   0  0  0  0  0  0  0  0  0  0  0  0
   -1.9619   -2.0693    0.8352 H   0  0  0  0  0  0  0  0  0  0  0  0
   -1.5120   -4.2900    1.1657 H   0  0  0  0  0  0  0  0  0  0  0  0
   -0.9489   -3.7847    3.9593 H   0  0  0  0  0  0  0  0  0  0  0  0
   -0.9072   -5.2900    3.1567 H   0  0  0  0  0  0  0  0  0  0  0  0
   -1.5942    2.2626    4.3383 H   0  0  0  0  0  0  0  0  0  0  0  0
   -0.7336    4.5380    1.6164 H   0  0  0  0  0  0  0  0  0  0  0  0
   -2.6402    4.2528    3.7588 H   0  0  0  0  0  0  0  0  0  0  0  0
   -2.6749    7.6253    1.7792 H   0  0  0  0  0  0  0  0  0  0  0  0
   -2.7559    6.0919    1.1131 H   0  0  0  0  0  0  0  0  0  0  0  0
   -1.2858    5.2260    5.5175 H   0  0  0  0  0  0  0  0  0  0  0  0
   -0.9795    6.4543    7.5325 H   0  0  0  0  0  0  0  0  0  0  0  0
   -2.6939   10.7946    7.7290 H   0  0  0  0  0  0  0  0  0  0  0  0
   -0.9950   11.1059    7.3243 H   0  0  0  0  0  0  0  0  0  0  0  0
   -2.4688    8.8291    3.5687 H   0  0  0  0  0  0  0  0  0  0  0  0
   -0.4437    2.5168    0.2798 H   0  0  0  0  0  0  0  0  0  0  0  0
  1  2  1  0  0  0  0
  2  3  1  0  0  0  0
  3  4  2  0  0  0  0
  4  5  1  0  0  0  0
  5  6  1  0  0  0  0
  6  7  1  0  0  0  0
  7  8  2  0  0  0  0
  4  9  1  0  0  0  0
  9 10  1  0  0  0  0
  9 11  2  0  0  0  0
 11 12  1  0  0  0  0
 12 13  1  0  0  0  0
 13 14  2  0  0  0  0
 14 15  1  0  0  0  0
 15 16  2  0  0  0  0
 15 17  1  0  0  0  0
 17 18  2  0  0  0  0
 18 19  1  0  0  0  0
 19 20  2  0  0  0  0
 20 21  1  0  0  0  0
 21 22  1  0  0  0  0
 22 23  1  0  0  0  0
 23 24  1  0  0  0  0
 20 24  1  0  0  0  0
 24 25  2  0  0  0  0
 17 25  1  0  0  0  0
 12 26  2  0  0  0  0
  3 26  1  0  0  0  0
  1 27  1  0  0  0  0
  1 28  1  0  0  0  0
  1 29  1  0  0  0  0
  6 30  1  0  0  0  0
  6 31  1  0  0  0  0
  7 32  1  0  0  0  0
  8 33  1  0  0  0  0
  8 34  1  0  0  0  0
 11 35  1  0  0  0  0
 13 36  1  0  0  0  0
 14 37  1  0  0  0  0
 16 38  1  0  0  0  0
 16 39  1  0  0  0  0
 18 40  1  0  0  0  0
 19 41  1  0  0  0  0
 22 42  1  0  0  0  0
 22 43  1  0  0  0  0
 25 44  1  0  0  0  0
 26 45  1  0  0  0  0
M  END
$$$$
> 795_AKC_ufu.di.2023.494

  Mrv0541 09112319583D             116.68000

 56 58  0  0  0  0            999 V2000
    7.7032   -5.7569    3.8588 C   0  0  0  0  0  0  0  0  0  0  0  0
    7.2038   -6.6434    4.8295 C   0  0  0  0  0  0  0  0  0  0  0  0
    6.7331   -7.9156    4.4498 C   0  0  0  0  0  0  0  0  0  0  0  0
    6.7574   -8.2926    3.0921 C   0  0  0  0  0  0  0  0  0  0  0  0
    7.2546   -7.4036    2.1213 C   0  0  0  0  0  0  0  0  0  0  0  0
    7.7306   -6.1304    2.4983 C   0  0  0  0  0  0  0  0  0  0  0  0
    8.3817   -5.0242    1.2773 S   0  0  2  0  0  0  0  0  0  0  0  0
    6.1447   -8.9877    5.6214 Cl  0  0  0  0  0  0  0  0  0  0  0  0
    7.5539   -5.1589   -0.0916 O   0  0  0  0  0  0  0  0  0  0  0  0
    9.9053   -5.4288    0.9756 O   0  0  0  0  0  0  0  0  0  0  0  0
    8.3010   -3.3579    1.8834 N   0  0  2  0  0  0  0  0  0  0  0  0
    7.0394   -1.1954    2.0051 C   0  0  2  0  0  0  0  0  0  0  0  0
    7.1138   -2.6111    1.3785 C   0  0  1  0  0  0  0  0  0  0  0  0
    9.5756   -2.6028    1.7386 C   0  0  1  0  0  0  0  0  0  0  0  0
    9.4514   -1.2128    2.4101 C   0  0  2  0  0  0  0  0  0  0  0  0
    8.3128   -0.5099    1.8442 N   0  0  0  0  0  0  0  0  0  0  0  0
    8.4751    0.6879    1.1546 C   0  0  0  0  0  0  0  0  0  0  0  0
    9.6009    1.2351    1.0651 O   0  0  0  0  0  0  0  0  0  0  0  0
    7.4519    1.3664    0.4533 C   0  0  0  0  0  0  0  0  0  0  0  0
    7.5025    1.4290   -0.9562 C   0  0  0  0  0  0  0  0  0  0  0  0
    6.3797    1.9916    1.1283 C   0  0  0  0  0  0  0  0  0  0  0  0
    5.3416    2.6104    0.4030 C   0  0  0  0  0  0  0  0  0  0  0  0
    5.3648    2.6251   -1.0070 C   0  0  0  0  0  0  0  0  0  0  0  0
    6.4765    2.0652   -1.6750 C   0  0  0  0  0  0  0  0  0  0  0  0
    4.3430    3.2269   -1.7062 O   0  0  0  0  0  0  0  0  0  0  0  0
    3.5657    2.3374   -2.5417 C   0  0  1  0  0  0  0  0  0  0  0  0
    2.6892    3.1672   -3.5105 C   0  0  2  0  0  0  0  0  0  0  0  0
    1.9952    2.3060   -4.5275 N   0  0  1  0  0  0  0  0  0  0  0  0
    0.6914    2.8563   -5.0009 C   0  0  0  0  0  0  0  0  0  0  0  0
    2.8702    1.9048   -5.6731 C   0  0  0  0  0  0  0  0  0  0  0  0
    8.0488   -4.8417    4.1539 H   0  0  0  0  0  0  0  0  0  0  0  0
    7.1883   -6.3586    5.8113 H   0  0  0  0  0  0  0  0  0  0  0  0
    6.4170   -9.2135    2.8053 H   0  0  0  0  0  0  0  0  0  0  0  0
    7.2702   -7.6927    1.1410 H   0  0  0  0  0  0  0  0  0  0  0  0
    6.8160   -1.2892    3.0731 H   0  0  0  0  0  0  0  0  0  0  0  0
    6.1956   -0.6738    1.5530 H   0  0  0  0  0  0  0  0  0  0  0  0
    7.1674   -2.5076    0.2922 H   0  0  0  0  0  0  0  0  0  0  0  0
    6.1980   -3.1543    1.6245 H   0  0  0  0  0  0  0  0  0  0  0  0
   10.3908   -3.1459    2.2192 H   0  0  0  0  0  0  0  0  0  0  0  0
    9.8255   -2.4731    0.6820 H   0  0  0  0  0  0  0  0  0  0  0  0
   10.4025   -0.6890    2.2805 H   0  0  0  0  0  0  0  0  0  0  0  0
    9.3027   -1.3392    3.4866 H   0  0  0  0  0  0  0  0  0  0  0  0
    8.2795    1.0064   -1.4714 H   0  0  0  0  0  0  0  0  0  0  0  0
    6.3489    1.9907    2.1508 H   0  0  0  0  0  0  0  0  0  0  0  0
    4.5711    3.0538    0.9046 H   0  0  0  0  0  0  0  0  0  0  0  0
    6.5401    2.1143   -2.6942 H   0  0  0  0  0  0  0  0  0  0  0  0
    4.2157    1.6906   -3.1307 H   0  0  0  0  0  0  0  0  0  0  0  0
    2.9275    1.6996   -1.9254 H   0  0  0  0  0  0  0  0  0  0  0  0
    3.3071    3.9232   -4.0051 H   0  0  0  0  0  0  0  0  0  0  0  0
    1.9663    3.7088   -2.8957 H   0  0  0  0  0  0  0  0  0  0  0  0
    0.1829    2.1263   -5.6356 H   0  0  0  0  0  0  0  0  0  0  0  0
    0.0323    3.0564   -4.1538 H   0  0  0  0  0  0  0  0  0  0  0  0
    0.8275    3.7809   -5.5690 H   0  0  0  0  0  0  0  0  0  0  0  0
    3.7181    1.3172   -5.3280 H   0  0  0  0  0  0  0  0  0  0  0  0
    2.3273    1.2773   -6.3811 H   0  0  0  0  0  0  0  0  0  0  0  0
    3.2509    2.7762   -6.2117 H   0  0  0  0  0  0  0  0  0  0  0  0
  1  2  1  0  0  0  0
  1  6  2  0  0  0  0
  2  3  2  0  0  0  0
  3  4  1  0  0  0  0
  4  5  2  0  0  0  0
  5  6  1  0  0  0  0
  6  7  1  0  0  0  0
  3  8  1  0  0  0  0
  7  9  2  0  0  0  0
  7 10  2  0  0  0  0
  7 11  1  0  0  0  0
 13 11  1  0  0  0  0
 11 14  1  0  0  0  0
 12 13  1  0  0  0  0
 12 16  1  0  0  0  0
 14 15  1  0  0  0  0
 15 16  1  0  0  0  0
 16 17  1  0  0  0  0
 17 18  2  0  0  0  0
 17 19  1  0  0  0  0
 20 19  1  0  0  0  0
 19 21  2  0  0  0  0
 20 24  2  0  0  0  0
 21 22  1  0  0  0  0
 22 23  2  0  0  0  0
 23 24  1  0  0  0  0
 23 25  1  0  0  0  0
 25 26  1  0  0  0  0
 26 27  1  0  0  0  0
 27 28  1  0  0  0  0
 28 29  1  0  0  0  0
 28 30  1  0  0  0  0
  1 31  1  0  0  0  0
  2 32  1  0  0  0  0
  4 33  1  0  0  0  0
  5 34  1  0  0  0  0
 12 35  1  0  0  0  0
 12 36  1  0  0  0  0
 13 37  1  0  0  0  0
 13 38  1  0  0  0  0
 14 39  1  0  0  0  0
 14 40  1  0  0  0  0
 15 41  1  0  0  0  0
 15 42  1  0  0  0  0
 20 43  1  0  0  0  0
 21 44  1  0  0  0  0
 22 45  1  0  0  0  0
 24 46  1  0  0  0  0
 26 47  1  0  0  0  0
 26 48  1  0  0  0  0
 27 49  1  0  0  0  0
 27 50  1  0  0  0  0
 29 51  1  0  0  0  0
 29 52  1  0  0  0  0
 29 53  1  0  0  0  0
 30 54  1  0  0  0  0
 30 55  1  0  0  0  0
 30 56  1  0  0  0  0
M  END
$$$$
> 796_AKC_ufu.di.2023.494

  Mrv0541 09112320013D             118.71000

 54 56  0  0  0  0            999 V2000
   10.6550   -0.9817    1.8962 C   0  0  0  0  0  0  0  0  0  0  0  0
   11.6711   -1.5543    1.1122 C   0  0  0  0  0  0  0  0  0  0  0  0
   13.0167   -1.2348    1.3698 C   0  0  0  0  0  0  0  0  0  0  0  0
   13.3404   -0.3455    2.4128 C   0  0  0  0  0  0  0  0  0  0  0  0
   12.3211    0.2274    3.1980 C   0  0  0  0  0  0  0  0  0  0  0  0
   10.9695   -0.0859    2.9443 C   0  0  0  0  0  0  0  0  0  0  0  0
    9.6830    0.6381    3.9275 S   0  0  2  0  0  0  0  0  0  0  0  0
   13.9619   -1.7629    0.6432 F   0  0  0  0  0  0  0  0  0  0  0  0
    9.7276    2.2374    3.8076 O   0  0  0  0  0  0  0  0  0  0  0  0
    9.8680    0.2349    5.4694 O   0  0  0  0  0  0  0  0  0  0  0  0
    8.1415    0.0217    3.3219 N   0  0  0  0  0  0  0  0  0  0  0  0
    6.1890    0.1952    1.8300 C   0  0  2  0  0  0  0  0  0  0  0  0
    7.2496    0.9891    2.6344 C   0  0  1  0  0  0  0  0  0  0  0  0
    7.4720   -1.0164    4.1459 C   0  0  1  0  0  0  0  0  0  0  0  0
    6.4147   -1.7281    3.2665 C   0  0  2  0  0  0  0  0  0  0  0  0
    5.4939   -0.7206    2.7377 N   0  0  0  0  0  0  0  0  0  0  0  0
    4.1289   -0.6134    3.0953 C   0  0  0  0  0  0  0  0  0  0  0  0
    3.2812    0.4213    2.5994 C   0  0  0  0  0  0  0  0  0  0  0  0
    3.4897   -1.5205    3.9921 C   0  0  0  0  0  0  0  0  0  0  0  0
    2.1085   -1.4873    4.2609 C   0  0  0  0  0  0  0  0  0  0  0  0
    1.2968   -0.5171    3.6546 C   0  0  0  0  0  0  0  0  0  0  0  0
    1.9001    0.4692    2.8583 C   0  0  0  0  0  0  0  0  0  0  0  0
   -0.0673   -0.5557    3.8005 O   0  0  0  0  0  0  0  0  0  0  0  0
   -0.6865   -1.2996    2.7236 C   0  0  1  0  0  0  0  0  0  0  0  0
   -2.2302   -1.2555    2.8352 C   0  0  2  0  0  0  0  0  0  0  0  0
   -2.9401   -2.0828    1.8029 N   0  0  1  0  0  0  0  0  0  0  0  0
   -4.4011   -2.1968    2.0748 C   0  0  0  0  0  0  0  0  0  0  0  0
   -2.6821   -1.6650    0.3928 C   0  0  0  0  0  0  0  0  0  0  0  0
    9.6879   -1.2319    1.6855 H   0  0  0  0  0  0  0  0  0  0  0  0
   11.4229   -2.2011    0.3580 H   0  0  0  0  0  0  0  0  0  0  0  0
   14.3181   -0.1136    2.6030 H   0  0  0  0  0  0  0  0  0  0  0  0
   12.5698    0.8722    3.9527 H   0  0  0  0  0  0  0  0  0  0  0  0
    6.6961   -0.3770    1.0450 H   0  0  0  0  0  0  0  0  0  0  0  0
    5.5676    0.9011    1.2899 H   0  0  0  0  0  0  0  0  0  0  0  0
    6.7607    1.6375    3.3670 H   0  0  0  0  0  0  0  0  0  0  0  0
    7.8219    1.6156    1.9456 H   0  0  0  0  0  0  0  0  0  0  0  0
    8.1959   -1.7547    4.4990 H   0  0  0  0  0  0  0  0  0  0  0  0
    6.9905   -0.5562    5.0151 H   0  0  0  0  0  0  0  0  0  0  0  0
    5.9726   -2.5279    3.8492 H   0  0  0  0  0  0  0  0  0  0  0  0
    6.9206   -2.2418    2.4414 H   0  0  0  0  0  0  0  0  0  0  0  0
    3.6340    1.1827    2.0305 H   0  0  0  0  0  0  0  0  0  0  0  0
    4.0038   -2.2420    4.4852 H   0  0  0  0  0  0  0  0  0  0  0  0
    1.6856   -2.1832    4.8832 H   0  0  0  0  0  0  0  0  0  0  0  0
    1.3265    1.2112    2.4462 H   0  0  0  0  0  0  0  0  0  0  0  0
   -0.3980   -0.8662    1.7620 H   0  0  0  0  0  0  0  0  0  0  0  0
   -0.3619   -2.3445    2.7452 H   0  0  0  0  0  0  0  0  0  0  0  0
   -2.5564   -0.2123    2.7685 H   0  0  0  0  0  0  0  0  0  0  0  0
   -2.4914   -1.6226    3.8338 H   0  0  0  0  0  0  0  0  0  0  0  0
   -4.8734   -2.8673    1.3529 H   0  0  0  0  0  0  0  0  0  0  0  0
   -4.5711   -2.6229    3.0643 H   0  0  0  0  0  0  0  0  0  0  0  0
   -4.8916   -1.2212    2.0196 H   0  0  0  0  0  0  0  0  0  0  0  0
   -1.6488   -1.8801    0.1224 H   0  0  0  0  0  0  0  0  0  0  0  0
   -3.3086   -2.2182   -0.3103 H   0  0  0  0  0  0  0  0  0  0  0  0
   -2.8700   -0.5980    0.2542 H   0  0  0  0  0  0  0  0  0  0  0  0
  1  2  1  0  0  0  0
  1  6  2  0  0  0  0
  2  3  2  0  0  0  0
  3  4  1  0  0  0  0
  4  5  2  0  0  0  0
  5  6  1  0  0  0  0
  6  7  1  0  0  0  0
  3  8  1  0  0  0  0
  7  9  2  0  0  0  0
  7 10  2  0  0  0  0
  7 11  1  0  0  0  0
 13 11  1  0  0  0  0
 11 14  1  0  0  0  0
 12 13  1  0  0  0  0
 12 16  1  0  0  0  0
 14 15  1  0  0  0  0
 15 16  1  0  0  0  0
 18 17  1  0  0  0  0
 17 19  2  0  0  0  0
 18 22  2  0  0  0  0
 19 20  1  0  0  0  0
 20 21  2  0  0  0  0
 21 22  1  0  0  0  0
 21 23  1  0  0  0  0
 23 24  1  0  0  0  0
 24 25  1  0  0  0  0
 25 26  1  0  0  0  0
 26 27  1  0  0  0  0
 26 28  1  0  0  0  0
 16 17  1  0  0  0  0
  1 29  1  0  0  0  0
  2 30  1  0  0  0  0
  4 31  1  0  0  0  0
  5 32  1  0  0  0  0
 12 33  1  0  0  0  0
 12 34  1  0  0  0  0
 13 35  1  0  0  0  0
 13 36  1  0  0  0  0
 14 37  1  0  0  0  0
 14 38  1  0  0  0  0
 15 39  1  0  0  0  0
 15 40  1  0  0  0  0
 18 41  1  0  0  0  0
 19 42  1  0  0  0  0
 20 43  1  0  0  0  0
 22 44  1  0  0  0  0
 24 45  1  0  0  0  0
 24 46  1  0  0  0  0
 25 47  1  0  0  0  0
 25 48  1  0  0  0  0
 27 49  1  0  0  0  0
 27 50  1  0  0  0  0
 27 51  1  0  0  0  0
 28 52  1  0  0  0  0
 28 53  1  0  0  0  0
 28 54  1  0  0  0  0
M  END
$$$$
> 797_AKC_pharmaceutics15092292

  Mrv0541 09112320053D              89.40000

 59 61  0  0  0  0            999 V2000
    1.8163    1.4284    2.7725 C   0  0  0  0  0  0  0  0  0  0  0  0
    2.1022    0.0719    2.5248 C   0  0  0  0  0  0  0  0  0  0  0  0
    1.7887   -0.4883    1.2695 C   0  0  0  0  0  0  0  0  0  0  0  0
    1.2655    0.3409    0.2548 C   0  0  0  0  0  0  0  0  0  0  0  0
    1.0637    1.7129    0.5033 C   0  0  0  0  0  0  0  0  0  0  0  0
    1.3878    2.3060    1.7493 C   0  0  0  0  0  0  0  0  0  0  0  0
    1.2688    3.8010    1.9397 C   0  0  1  0  0  0  0  0  0  0  0  0
    3.5335    4.5593    1.6940 C   0  0  1  0  0  0  0  0  0  0  0  0
    2.3726    4.5909    2.7081 C   0  0  2  0  0  0  0  0  0  0  0  0
    1.3573    4.4784    0.6654 O   0  0  0  0  0  0  0  0  0  0  0  0
    2.7536    4.7096    0.3490 C   0  0  1  0  0  0  0  0  0  0  0  0
    2.9395    6.0255   -0.3390 C   0  0  0  0  0  0  0  0  0  0  0  0
    4.6799    5.5596    2.0023 C   0  0  0  0  0  0  0  0  0  0  0  0
    2.7360    4.1857    4.1617 C   0  0  0  0  0  0  0  0  0  0  0  0
    2.1806    7.1645    0.0235 C   0  0  0  0  0  0  0  0  0  0  0  0
    3.9460    6.1782   -1.3221 C   0  0  0  0  0  0  0  0  0  0  0  0
    4.2194    7.4368   -1.8856 C   0  0  0  0  0  0  0  0  0  0  0  0
    3.4731    8.5679   -1.5014 C   0  0  0  0  0  0  0  0  0  0  0  0
    2.4466    8.4304   -0.5413 C   0  0  0  0  0  0  0  0  0  0  0  0
    2.6757   -0.6890    3.5094 O   0  0  0  0  0  0  0  0  0  0  0  0
    4.1162   -0.5925    3.5118 C   0  0  0  0  0  0  0  0  0  0  0  0
    2.0247   -1.8148    1.0185 O   0  0  0  0  0  0  0  0  0  0  0  0
    0.9695   -2.6838    1.4674 C   0  0  0  0  0  0  0  0  0  0  0  0
    0.9445   -0.1774   -0.9726 O   0  0  0  0  0  0  0  0  0  0  0  0
    2.0407   -0.1233   -1.9036 C   0  0  0  0  0  0  0  0  0  0  0  0
    3.7853    9.7991   -2.0168 O   0  0  0  0  0  0  0  0  0  0  0  0
    1.6985    9.5195   -0.1775 O   0  0  0  0  0  0  0  0  0  0  0  0
    2.1649   10.1585    1.0245 C   0  0  0  0  0  0  0  0  0  0  0  0
    3.1611   10.0820   -3.2808 C   0  0  0  0  0  0  0  0  0  0  0  0
    1.9501    1.7550    3.7203 H   0  0  0  0  0  0  0  0  0  0  0  0
    0.6784    2.2824   -0.2521 H   0  0  0  0  0  0  0  0  0  0  0  0
    0.2926    4.0141    2.3868 H   0  0  0  0  0  0  0  0  0  0  0  0
    3.9825    3.5595    1.7212 H   0  0  0  0  0  0  0  0  0  0  0  0
    2.0141    5.6254    2.7874 H   0  0  0  0  0  0  0  0  0  0  0  0
    3.0673    3.9039   -0.3265 H   0  0  0  0  0  0  0  0  0  0  0  0
    4.2998    6.5791    2.0997 H   0  0  0  0  0  0  0  0  0  0  0  0
    5.1744    5.2817    2.9349 H   0  0  0  0  0  0  0  0  0  0  0  0
    5.4233    5.5302    1.2036 H   0  0  0  0  0  0  0  0  0  0  0  0
    3.2201    5.0166    4.6731 H   0  0  0  0  0  0  0  0  0  0  0  0
    3.4354    3.3491    4.1873 H   0  0  0  0  0  0  0  0  0  0  0  0
    1.8310    3.9292    4.7161 H   0  0  0  0  0  0  0  0  0  0  0  0
    1.4337    7.0834    0.7165 H   0  0  0  0  0  0  0  0  0  0  0  0
    4.5048    5.3757   -1.6219 H   0  0  0  0  0  0  0  0  0  0  0  0
    4.9714    7.5308   -2.5719 H   0  0  0  0  0  0  0  0  0  0  0  0
    4.5035   -1.2263    4.3113 H   0  0  0  0  0  0  0  0  0  0  0  0
    4.5432   -0.9411    2.5661 H   0  0  0  0  0  0  0  0  0  0  0  0
    4.4524    0.4316    3.7029 H   0  0  0  0  0  0  0  0  0  0  0  0
    1.2424   -3.7064    1.2085 H   0  0  0  0  0  0  0  0  0  0  0  0
    0.8434   -2.6325    2.5513 H   0  0  0  0  0  0  0  0  0  0  0  0
    0.0200   -2.4503    0.9791 H   0  0  0  0  0  0  0  0  0  0  0  0
    1.7183   -0.5834   -2.8376 H   0  0  0  0  0  0  0  0  0  0  0  0
    2.3344    0.9071   -2.1174 H   0  0  0  0  0  0  0  0  0  0  0  0
    2.9049   -0.6793   -1.5340 H   0  0  0  0  0  0  0  0  0  0  0  0
    1.5333   11.0267    1.2162 H   0  0  0  0  0  0  0  0  0  0  0  0
    2.0888    9.4880    1.8839 H   0  0  0  0  0  0  0  0  0  0  0  0
    3.1960   10.5061    0.9207 H   0  0  0  0  0  0  0  0  0  0  0  0
    3.4926   11.0687   -3.6073 H   0  0  0  0  0  0  0  0  0  0  0  0
    3.4530    9.3577   -4.0450 H   0  0  0  0  0  0  0  0  0  0  0  0
    2.0729   10.1006   -3.1895 H   0  0  0  0  0  0  0  0  0  0  0  0
  1  2  1  0  0  0  0
  1  6  2  0  0  0  0
  2  3  2  0  0  0  0
  3  4  1  0  0  0  0
  4  5  2  0  0  0  0
  5  6  1  0  0  0  0
  7  6  1  0  0  0  0
  9  7  1  0  0  0  0
  7 10  1  0  0  0  0
  8  9  1  0  0  0  0
  8 11  1  0  0  0  0
 10 11  1  0  0  0  0
 11 12  1  0  0  0  0
  8 13  1  0  0  0  0
  9 14  1  0  0  0  0
 15 12  1  0  0  0  0
 12 16  2  0  0  0  0
 15 19  2  0  0  0  0
 16 17  1  0  0  0  0
 17 18  2  0  0  0  0
 18 19  1  0  0  0  0
  2 20  1  0  0  0  0
 20 21  1  0  0  0  0
  3 22  1  0  0  0  0
 22 23  1  0  0  0  0
  4 24  1  0  0  0  0
 24 25  1  0  0  0  0
 18 26  1  0  0  0  0
 19 27  1  0  0  0  0
 27 28  1  0  0  0  0
 26 29  1  0  0  0  0
  1 30  1  0  0  0  0
  5 31  1  0  0  0  0
  7 32  1  0  0  0  0
  8 33  1  0  0  0  0
  9 34  1  0  0  0  0
 11 35  1  0  0  0  0
 13 36  1  0  0  0  0
 13 37  1  0  0  0  0
 13 38  1  0  0  0  0
 14 39  1  0  0  0  0
 14 40  1  0  0  0  0
 14 41  1  0  0  0  0
 15 42  1  0  0  0  0
 16 43  1  0  0  0  0
 17 44  1  0  0  0  0
 21 45  1  0  0  0  0
 21 46  1  0  0  0  0
 21 47  1  0  0  0  0
 23 48  1  0  0  0  0
 23 49  1  0  0  0  0
 23 50  1  0  0  0  0
 25 51  1  0  0  0  0
 25 52  1  0  0  0  0
 25 53  1  0  0  0  0
 28 54  1  0  0  0  0
 28 55  1  0  0  0  0
 28 56  1  0  0  0  0
 29 57  1  0  0  0  0
 29 58  1  0  0  0  0
 29 59  1  0  0  0  0
M  END
$$$$
> 798_AKC_journal.pone.0291321
9444
  -OEChem-09122307363D

 29 30  0     1  0  0  0  0  0999 V2000
   -1.3610   -0.5442    1.0197 O   0  0  0  0  0  0  0  0  0  0  0  0
   -1.2258    2.3520   -1.0905 O   0  0  0  0  0  0  0  0  0  0  0  0
   -3.3947    1.5578    0.3599 O   0  0  0  0  0  0  0  0  0  0  0  0
   -2.3334   -3.0676    0.2750 O   0  0  0  0  0  0  0  0  0  0  0  0
    1.5399    2.2986    0.7076 O   0  0  0  0  0  0  0  0  0  0  0  0
    0.7200    0.1982    0.2563 N   0  0  0  0  0  0  0  0  0  0  0  0
    3.0456    0.6838    0.1553 N   0  0  0  0  0  0  0  0  0  0  0  0
    2.2632   -1.4889   -0.3176 N   0  0  0  0  0  0  0  0  0  0  0  0
    4.5620   -0.9798   -0.4099 N   0  0  0  0  0  0  0  0  0  0  0  0
   -1.3576    0.9761   -0.7980 C   0  0  2  0  0  0  0  0  0  0  0  0
   -2.7891    0.5875   -0.4940 C   0  0  1  0  0  0  0  0  0  0  0  0
   -2.6084   -0.6947    0.3070 C   0  0  1  0  0  0  0  0  0  0  0  0
   -0.6446    0.5801    0.4835 C   0  0  1  0  0  0  0  0  0  0  0  0
   -2.5096   -1.9398   -0.5642 C   0  0  0  0  0  0  0  0  0  0  0  0
    1.7608    1.1291    0.3911 C   0  0  0  0  0  0  0  0  0  0  0  0
    1.0581   -1.0888   -0.1008 C   0  0  0  0  0  0  0  0  0  0  0  0
    3.2744   -0.5592   -0.1803 C   0  0  0  0  0  0  0  0  0  0  0  0
   -0.9913    0.4013   -1.6572 H   0  0  0  0  0  0  0  0  0  0  0  0
   -3.4182    0.4863   -1.3821 H   0  0  0  0  0  0  0  0  0  0  0  0
   -0.6756    1.3881    1.2239 H   0  0  0  0  0  0  0  0  0  0  0  0
   -3.3902   -0.8285    1.0633 H   0  0  0  0  0  0  0  0  0  0  0  0
   -1.6715   -1.8970   -1.2643 H   0  0  0  0  0  0  0  0  0  0  0  0
   -3.4332   -2.0773   -1.1359 H   0  0  0  0  0  0  0  0  0  0  0  0
   -0.2769    2.5400   -1.1881 H   0  0  0  0  0  0  0  0  0  0  0  0
   -2.9111    1.5850    1.2023 H   0  0  0  0  0  0  0  0  0  0  0  0
    0.2319   -1.7989   -0.1987 H   0  0  0  0  0  0  0  0  0  0  0  0
   -2.2847   -3.8492   -0.3014 H   0  0  0  0  0  0  0  0  0  0  0  0
    4.7632   -1.9389   -0.6709 H   0  0  0  0  0  0  0  0  0  0  0  0
    5.3464   -0.3428   -0.3243 H   0  0  0  0  0  0  0  0  0  0  0  0
  1 12  1  0  0  0  0
  1 13  1  0  0  0  0
  2 10  1  0  0  0  0
  2 24  1  0  0  0  0
  3 11  1  0  0  0  0
  3 25  1  0  0  0  0
  4 14  1  0  0  0  0
  4 27  1  0  0  0  0
  5 15  2  0  0  0  0
  6 13  1  0  0  0  0
  6 15  1  0  0  0  0
  6 16  1  0  0  0  0
  7 15  1  0  0  0  0
  7 17  2  0  0  0  0
  8 16  2  0  0  0  0
  8 17  1  0  0  0  0
  9 17  1  0  0  0  0
  9 28  1  0  0  0  0
  9 29  1  0  0  0  0
 10 11  1  0  0  0  0
 10 13  1  0  0  0  0
 10 18  1  0  0  0  0
 11 12  1  0  0  0  0
 11 19  1  0  0  0  0
 12 14  1  0  0  0  0
 12 21  1  0  0  0  0
 13 20  1  0  0  0  0
 14 22  1  0  0  0  0
 14 23  1  0  0  0  0
 16 26  1  0  0  0  0
M  END
> <PUBCHEM_COMPOUND_CID>
9444

> <PUBCHEM_CONFORMER_RMSD>
0.6

> <PUBCHEM_CONFORMER_DIVERSEORDER>
1
12
13
7
5
14
10
2
6
11
4
9
8
3

> <PUBCHEM_MMFF94_PARTIAL_CHARGES>
23
1 -0.56
10 0.28
11 0.28
12 0.28
13 0.58
14 0.28
15 0.84
16 0.45
17 0.71
2 -0.68
24 0.4
25 0.4
26 0.06
27 0.4
28 0.4
29 0.4
3 -0.68
4 -0.68
5 -0.57
6 -0.42
7 -0.66
8 -0.66
9 -0.85

> <PUBCHEM_EFFECTIVE_ROTOR_COUNT>
3

> <PUBCHEM_PHARMACOPHORE_FEATURES>
12
1 1 acceptor
1 2 acceptor
1 2 donor
1 3 acceptor
1 3 donor
1 4 acceptor
1 4 donor
1 5 acceptor
1 7 donor
1 9 donor
5 1 10 11 12 13 rings
6 6 7 8 15 16 17 rings

> <PUBCHEM_HEAVY_ATOM_COUNT>
17

> <PUBCHEM_ATOM_DEF_STEREO_COUNT>
4

> <PUBCHEM_ATOM_UDEF_STEREO_COUNT>
0

> <PUBCHEM_BOND_DEF_STEREO_COUNT>
0

> <PUBCHEM_BOND_UDEF_STEREO_COUNT>
0

> <PUBCHEM_ISOTOPIC_ATOM_COUNT>
0

> <PUBCHEM_COMPONENT_COUNT>
1

> <PUBCHEM_CACTVS_TAUTO_COUNT>
3

> <PUBCHEM_CONFORMER_ID>
000024E400000001

> <PUBCHEM_MMFF94_ENERGY>
50.9521

> <PUBCHEM_FEATURE_SELFOVERLAP>
60.962

> <PUBCHEM_SHAPE_FINGERPRINT>
10608611 8 18411694409049253760
11132069 177 18412541020444494778
12138202 97 18115012001220561597
12500047 106 18337105674893126407
12932764 1 17967523554309708816
12969540 114 17969481746681867365
13024252 1 16008756779798805865
14115302 16 18337121076640867588
14965852 173 18412545426753782225
15219456 202 18411978091654822960
15375462 6 18194680603708808396
15775835 57 18261114006691984659
16945 1 18263910082036207721
200 152 17703782604885574207
20201158 50 18340205189608376350
21501502 16 18409730707041059616
221490 88 18268153230900097050
22802520 49 18409727395758327137
23388829 49 17762053646393732453
23402539 116 17385722483089480382
23559900 14 18270389607048294688
25 1 18194116309536170397
2748010 2 18265888245114462605
2871803 45 18264760133526972055
5493415 88 18342737442455005866
6333449 129 18335699421259755389
69090 78 18410569549046287917
74978 22 18341892987106739929
81228 2 18115583893723206425
8809292 202 18409731750839594346
93112 12 18412260640293982853
9709674 26 18341890856908754887

> <PUBCHEM_SHAPE_MULTIPOLES>
300.58
6.14
2.47
0.84
3.95
0.5
0.04
1.55
0.49
-1.36
0.1
-0.24
-0.17
0.57

> <PUBCHEM_SHAPE_SELFOVERLAP>
635.496

> <PUBCHEM_SHAPE_VOLUME>
168.2

> <PUBCHEM_COORDINATE_TYPE>
2
5
10

$$$$
> 799_AKC_journal.pntd.0011646

  Mrv0541 10092314023D             129.59000

 58 62  0  0  0  0            999 V2000
    1.2219   -2.9872    4.2565 C   0  0  0  0  0  0  0  0  0  0  0  0
    1.9129   -3.7190    3.2864 C   0  0  0  0  0  0  0  0  0  0  0  0
    1.9477   -3.3232    1.9381 C   0  0  0  0  0  0  0  0  0  0  0  0
    1.2519   -2.1514    1.5717 C   0  0  0  0  0  0  0  0  0  0  0  0
    0.5414   -1.4061    2.5394 C   0  0  0  0  0  0  0  0  0  0  0  0
    0.5262   -1.8151    3.8904 C   0  0  0  0  0  0  0  0  0  0  0  0
    2.5040   -4.7986    3.9252 C   0  0  0  0  0  0  0  0  0  0  0  0
    2.1632   -4.6914    5.2669 C   0  0  0  0  0  0  0  0  0  0  0  0
    1.3869   -3.5990    5.4523 N   0  0  0  0  0  0  0  0  0  0  0  0
    0.7675   -3.0898    6.9878 S   0  0  0  0  0  0  0  0  0  0  0  0
   -0.9085   -2.7188    6.8153 C   0  0  0  0  0  0  0  0  0  0  0  0
    0.9722   -4.3742    8.1230 C   0  0  0  0  0  0  0  0  0  0  0  0
    1.7084   -1.6688    7.5272 C   0  0  0  0  0  0  0  0  0  0  0  0
    1.1723   -0.7318    8.4308 C   0  0  0  0  0  0  0  0  0  0  0  0
    3.0335   -1.4937    7.0833 C   0  0  0  0  0  0  0  0  0  0  0  0
    3.8224   -0.3974    7.5109 C   0  0  0  0  0  0  0  0  0  0  0  0
    3.2702    0.5554    8.4123 C   0  0  0  0  0  0  0  0  0  0  0  0
    1.9413    0.3626    8.8664 C   0  0  0  0  0  0  0  0  0  0  0  0
    2.6087   -4.0155    1.0502 F   0  0  0  0  0  0  0  0  0  0  0  0
    5.2265   -0.2873    7.0282 C   0  0  1  0  0  0  0  0  0  0  0  0
    6.2427   -0.3966    8.1935 C   0  0  1  0  0  0  0  0  0  0  0  0
    6.5006    0.9090    8.8904 N   0  0  1  0  0  0  0  0  0  0  0  0
    5.3348    1.4161    9.6908 C   0  0  1  0  0  0  0  0  0  0  0  0
    4.0509    1.7472    8.8763 C   0  0  2  0  0  0  0  0  0  0  0  0
    7.7724    0.8857    9.6949 C   0  0  2  0  0  0  0  0  0  0  0  0
    8.9848    0.7321    8.8415 C   0  0  0  0  0  0  0  0  0  0  0  0
    9.7750   -0.4417    8.9020 C   0  0  0  0  0  0  0  0  0  0  0  0
   10.9082   -0.5904    8.0820 C   0  0  0  0  0  0  0  0  0  0  0  0
   11.2727    0.4406    7.1971 C   0  0  0  0  0  0  0  0  0  0  0  0
   10.4891    1.6078    7.1159 C   0  0  0  0  0  0  0  0  0  0  0  0
    9.3529    1.7521    7.9338 C   0  0  0  0  0  0  0  0  0  0  0  0
   12.3379    0.3120    6.4555 F   0  0  0  0  0  0  0  0  0  0  0  0
    1.2623   -1.8362    0.5994 H   0  0  0  0  0  0  0  0  0  0  0  0
    0.0398   -0.5606    2.2572 H   0  0  0  0  0  0  0  0  0  0  0  0
    0.0229   -1.2605    4.5844 H   0  0  0  0  0  0  0  0  0  0  0  0
    3.0853   -5.5239    3.5016 H   0  0  0  0  0  0  0  0  0  0  0  0
    2.4722   -5.3454    5.9901 H   0  0  0  0  0  0  0  0  0  0  0  0
   -1.2347   -1.7893    6.9180 H   0  0  0  0  0  0  0  0  0  0  0  0
   -1.5479   -3.4419    6.5961 H   0  0  0  0  0  0  0  0  0  0  0  0
    0.5175   -5.2403    7.9677 H   0  0  0  0  0  0  0  0  0  0  0  0
    1.5558   -4.2601    8.9152 H   0  0  0  0  0  0  0  0  0  0  0  0
    0.2218   -0.8415    8.7854 H   0  0  0  0  0  0  0  0  0  0  0  0
    3.4382   -2.1866    6.4481 H   0  0  0  0  0  0  0  0  0  0  0  0
    1.5197    1.0225    9.5266 H   0  0  0  0  0  0  0  0  0  0  0  0
    5.4518   -1.0850    6.3137 H   0  0  0  0  0  0  0  0  0  0  0  0
    5.3652    0.6538    6.4900 H   0  0  0  0  0  0  0  0  0  0  0  0
    5.9251   -1.1568    8.9174 H   0  0  0  0  0  0  0  0  0  0  0  0
    7.1653   -0.7659    7.7401 H   0  0  0  0  0  0  0  0  0  0  0  0
    5.0893    0.7166   10.4955 H   0  0  0  0  0  0  0  0  0  0  0  0
    5.6346    2.3565   10.1647 H   0  0  0  0  0  0  0  0  0  0  0  0
    3.4227    2.3801    9.5123 H   0  0  0  0  0  0  0  0  0  0  0  0
    4.3207    2.3589    8.0113 H   0  0  0  0  0  0  0  0  0  0  0  0
    7.7135    0.0871   10.4416 H   0  0  0  0  0  0  0  0  0  0  0  0
    7.8995    1.8184   10.2529 H   0  0  0  0  0  0  0  0  0  0  0  0
    9.5232   -1.2026    9.5365 H   0  0  0  0  0  0  0  0  0  0  0  0
   11.4632   -1.4483    8.1329 H   0  0  0  0  0  0  0  0  0  0  0  0
   10.7411    2.3513    6.4596 H   0  0  0  0  0  0  0  0  0  0  0  0
    8.7985    2.6094    7.8697 H   0  0  0  0  0  0  0  0  0  0  0  0
  2  3  2  0  0  0  0
  3  4  1  0  0  0  0
  4  5  2  0  0  0  0
  5  6  1  0  0  0  0
  1  6  2  0  0  0  0
  2  7  1  0  0  0  0
  1  2  1  0  0  0  0
  1  9  1  0  0  0  0
  7  8  2  0  0  0  0
  8  9  1  0  0  0  0
  9 10  1  0  0  0  0
 10 11  2  0  0  0  0
 10 12  2  0  0  0  0
 10 13  1  0  0  0  0
 14 13  1  0  0  0  0
 13 15  2  0  0  0  0
 15 16  1  0  0  0  0
 16 17  2  0  0  0  0
 17 18  1  0  0  0  0
 14 18  2  0  0  0  0
  3 19  1  0  0  0  0
 16 20  1  0  0  0  0
 20 21  1  0  0  0  0
 21 22  1  0  0  0  0
 22 23  1  0  0  0  0
 24 17  1  0  0  0  0
 24 23  1  0  0  0  0
 22 25  1  0  0  0  0
 25 26  1  0  0  0  0
 26 27  1  0  0  0  0
 26 31  2  0  0  0  0
 27 28  2  0  0  0  0
 28 29  1  0  0  0  0
 29 30  2  0  0  0  0
 30 31  1  0  0  0  0
 29 32  1  0  0  0  0
  4 33  1  0  0  0  0
  5 34  1  0  0  0  0
  6 35  1  0  0  0  0
  7 36  1  0  0  0  0
  8 37  1  0  0  0  0
 11 38  1  0  0  0  0
 11 39  1  0  0  0  0
 12 40  1  0  0  0  0
 12 41  1  0  0  0  0
 14 42  1  0  0  0  0
 15 43  1  0  0  0  0
 18 44  1  0  0  0  0
 20 45  1  0  0  0  0
 20 46  1  0  0  0  0
 21 47  1  0  0  0  0
 21 48  1  0  0  0  0
 23 49  1  0  0  0  0
 23 50  1  0  0  0  0
 24 51  1  0  0  0  0
 24 52  1  0  0  0  0
 25 53  1  0  0  0  0
 25 54  1  0  0  0  0
 27 55  1  0  0  0  0
 28 56  1  0  0  0  0
 30 57  1  0  0  0  0
 31 58  1  0  0  0  0
M  END
>  <type>
common

$$$$
> 800_AKC_acs.jmedchem.3c00697

  Mrv0541 10092313543D             101.14000

 54 57  0  0  0  0            999 V2000
   -9.2540  -10.1634    2.5466 N   0  0  0  0  0  0  0  0  0  0  0  0
   -9.9715  -11.0063    3.3313 C   0  0  0  0  0  0  0  0  0  0  0  0
  -11.1120  -10.5258    3.9944 C   0  0  0  0  0  0  0  0  0  0  0  0
  -11.4858   -9.1826    3.8120 C   0  0  0  0  0  0  0  0  0  0  0  0
  -10.7151   -8.3385    2.9877 C   0  0  0  0  0  0  0  0  0  0  0  0
   -9.5577   -8.8459    2.3449 C   0  0  0  0  0  0  0  0  0  0  0  0
   -8.7016   -8.0699    1.5590 C   0  0  0  0  0  0  0  0  0  0  0  0
   -7.8432   -8.6501    0.8002 N   0  0  0  0  0  0  0  0  0  0  0  0
   -8.7350   -6.7251    1.5646 N   0  0  0  0  0  0  0  0  0  0  0  0
   -7.6462   -5.8942    1.4593 C   0  0  0  0  0  0  0  0  0  0  0  0
   -6.5961   -3.8748    0.5365 C   0  0  0  0  0  0  0  0  0  0  0  0
   -7.7358   -4.6882    0.7305 C   0  0  0  0  0  0  0  0  0  0  0  0
   -6.4206   -6.2060    2.0871 C   0  0  0  0  0  0  0  0  0  0  0  0
   -5.2920   -5.3897    1.9062 C   0  0  0  0  0  0  0  0  0  0  0  0
   -5.3362   -4.2406    1.0763 C   0  0  0  0  0  0  0  0  0  0  0  0
   -4.1281   -3.5359    0.7764 C   0  0  0  0  0  0  0  0  0  0  0  0
   -3.0480   -4.1669    0.8789 O   0  0  0  0  0  0  0  0  0  0  0  0
   -4.1032   -2.2509    0.2995 N   0  0  0  0  0  0  0  0  0  0  0  0
   -2.9985   -1.5341   -0.0891 C   0  0  0  0  0  0  0  0  0  0  0  0
   -2.0430    0.0310   -1.7132 C   0  0  0  0  0  0  0  0  0  0  0  0
   -3.1511   -0.6490   -1.1763 C   0  0  0  0  0  0  0  0  0  0  0  0
   -1.7201   -1.6402    0.5105 C   0  0  0  0  0  0  0  0  0  0  0  0
   -0.6090   -0.9767   -0.0393 C   0  0  0  0  0  0  0  0  0  0  0  0
   -0.7487   -0.1449   -1.1668 C   0  0  0  0  0  0  0  0  0  0  0  0
    0.3916    0.4047   -1.6876 N   0  0  0  0  0  0  0  0  0  0  0  0
    0.4470    1.3493   -2.6220 C   0  0  0  0  0  0  0  0  0  0  0  0
   -0.0415    2.4953   -2.3173 N   0  0  0  0  0  0  0  0  0  0  0  0
    1.0069    1.0957   -3.8728 C   0  0  0  0  0  0  0  0  0  0  0  0
    2.2217   -0.3002   -5.4743 C   0  0  0  0  0  0  0  0  0  0  0  0
    1.7321   -0.0869   -4.1726 C   0  0  0  0  0  0  0  0  0  0  0  0
    0.8283    1.9999   -4.8785 N   0  0  0  0  0  0  0  0  0  0  0  0
    1.2841    1.8264   -6.1452 C   0  0  0  0  0  0  0  0  0  0  0  0
    1.9942    0.6598   -6.4743 C   0  0  0  0  0  0  0  0  0  0  0  0
   -9.6746  -11.9785    3.4401 H   0  0  0  0  0  0  0  0  0  0  0  0
  -11.6577  -11.1434    4.6004 H   0  0  0  0  0  0  0  0  0  0  0  0
  -12.3174   -8.8197    4.2841 H   0  0  0  0  0  0  0  0  0  0  0  0
  -11.0055   -7.3657    2.8684 H   0  0  0  0  0  0  0  0  0  0  0  0
   -7.7839   -9.5828    0.7630 H   0  0  0  0  0  0  0  0  0  0  0  0
   -9.6036   -6.3025    1.6443 H   0  0  0  0  0  0  0  0  0  0  0  0
   -6.6932   -3.0276   -0.0292 H   0  0  0  0  0  0  0  0  0  0  0  0
   -8.6278   -4.4097    0.3147 H   0  0  0  0  0  0  0  0  0  0  0  0
   -6.3389   -7.0374    2.6792 H   0  0  0  0  0  0  0  0  0  0  0  0
   -4.4272   -5.6554    2.3832 H   0  0  0  0  0  0  0  0  0  0  0  0
   -4.9600   -1.8201    0.1626 H   0  0  0  0  0  0  0  0  0  0  0  0
   -2.1897    0.6280   -2.5274 H   0  0  0  0  0  0  0  0  0  0  0  0
   -4.0705   -0.5151   -1.6024 H   0  0  0  0  0  0  0  0  0  0  0  0
   -1.5794   -2.2037    1.3490 H   0  0  0  0  0  0  0  0  0  0  0  0
    0.3099   -1.1076    0.3910 H   0  0  0  0  0  0  0  0  0  0  0  0
    1.2413    0.0409   -1.3840 H   0  0  0  0  0  0  0  0  0  0  0  0
   -0.0316    3.2061   -2.9249 H   0  0  0  0  0  0  0  0  0  0  0  0
    2.7417   -1.1540   -5.6926 H   0  0  0  0  0  0  0  0  0  0  0  0
    1.9120   -0.7968   -3.4584 H   0  0  0  0  0  0  0  0  0  0  0  0
    1.1036    2.5401   -6.8526 H   0  0  0  0  0  0  0  0  0  0  0  0
    2.3372    0.5104   -7.4253 H   0  0  0  0  0  0  0  0  0  0  0  0
  1  2  1  0  0  0  0
  2  3  2  0  0  0  0
  3  4  1  0  0  0  0
  4  5  2  0  0  0  0
  5  6  1  0  0  0  0
  1  6  2  0  0  0  0
  6  7  1  0  0  0  0
  7  8  2  0  0  0  0
  7  9  1  0  0  0  0
  9 10  1  0  0  0  0
 12 10  2  0  0  0  0
 10 13  1  0  0  0  0
 11 12  1  0  0  0  0
 13 14  2  0  0  0  0
 14 15  1  0  0  0  0
 11 15  2  0  0  0  0
 15 16  1  0  0  0  0
 16 17  2  0  0  0  0
 16 18  1  0  0  0  0
 18 19  1  0  0  0  0
 21 19  2  0  0  0  0
 19 22  1  0  0  0  0
 20 21  1  0  0  0  0
 22 23  2  0  0  0  0
 23 24  1  0  0  0  0
 20 24  2  0  0  0  0
 24 25  1  0  0  0  0
 25 26  1  0  0  0  0
 26 27  2  0  0  0  0
 26 28  1  0  0  0  0
 30 28  2  0  0  0  0
 28 31  1  0  0  0  0
 29 30  1  0  0  0  0
 31 32  2  0  0  0  0
 32 33  1  0  0  0  0
 29 33  2  0  0  0  0
  2 34  1  0  0  0  0
  3 35  1  0  0  0  0
  4 36  1  0  0  0  0
  5 37  1  0  0  0  0
  8 38  1  0  0  0  0
  9 39  1  0  0  0  0
 11 40  1  0  0  0  0
 12 41  1  0  0  0  0
 13 42  1  0  0  0  0
 14 43  1  0  0  0  0
 18 44  1  0  0  0  0
 20 45  1  0  0  0  0
 21 46  1  0  0  0  0
 22 47  1  0  0  0  0
 23 48  1  0  0  0  0
 25 49  1  0  0  0  0
 27 50  1  0  0  0  0
 29 51  1  0  0  0  0
 30 52  1  0  0  0  0
 32 53  1  0  0  0  0
 33 54  1  0  0  0  0
M  END
>  <type>
common

$$$$
> 801_AKC_j.bioorg.2023.106890

  Mrv0541 10092314213D             122.96000

 80 80  0  0  0  0            999 V2000
   -1.7152    1.9524   -0.6704 C   0  0  1  0  0  0  0  0  0  0  0  0
   -1.8458    1.8609    0.8803 C   0  0  1  0  0  0  0  0  0  0  0  0
   -0.7739    0.8780    1.3997 C   0  0  2  0  0  0  0  0  0  0  0  0
    0.0332    0.4312    0.1704 C   0  0  1  0  0  0  0  0  0  0  0  0
   -0.2486    1.4794   -0.9286 C   0  0  1  0  0  0  0  0  0  0  0  0
   -2.8278    1.1688   -1.4477 C   0  0  2  0  0  0  0  0  0  0  0  0
    0.0970    0.9154   -2.3343 C   0  0  2  0  0  0  0  0  0  0  0  0
   -0.1257    1.9040   -3.3575 O   0  0  0  0  0  0  0  0  0  0  0  0
   -0.1117    1.3609   -4.8646 P   0  0  1  0  0  0  0  0  0  0  0  0
   -1.3839    0.4405   -5.0872 O   0  5  0  0  0  0  0  0  0  0  0  0
   -0.1878    2.5106   -5.7744 O   0  0  0  0  0  0  0  0  0  0  0  0
    1.2411    0.5591   -5.1648 O   0  0  0  0  0  0  0  0  0  0  0  0
    1.2074   -0.8786   -5.0278 C   0  0  1  0  0  0  0  0  0  0  0  0
    2.6561   -1.4436   -5.0587 C   0  0  1  0  0  0  0  0  0  0  0  0
    2.8970   -2.6002   -4.0373 C   0  0  2  0  0  0  0  0  0  0  0  0
    4.2525   -3.3003   -4.0332 N   0  3  2  0  0  0  0  0  0  0  0  0
    4.2406   -4.3589   -2.9501 C   0  0  0  0  0  0  0  0  0  0  0  0
    5.3707   -2.3315   -3.7323 C   0  0  0  0  0  0  0  0  0  0  0  0
    4.5153   -3.9789   -5.3566 C   0  0  0  0  0  0  0  0  0  0  0  0
   -4.2661    1.7468   -1.3184 C   0  0  2  0  0  0  0  0  0  0  0  0
   -5.3205    0.9171   -2.1029 C   0  0  1  0  0  0  0  0  0  0  0  0
   -6.7712    1.4174   -1.8682 C   0  0  2  0  0  0  0  0  0  0  0  0
   -7.8373    0.5659   -2.6126 C   0  0  2  0  0  0  0  0  0  0  0  0
   -9.2804    1.0634   -2.3283 C   0  0  2  0  0  0  0  0  0  0  0  0
  -10.3806    0.2440   -3.0579 C   0  0  2  0  0  0  0  0  0  0  0  0
  -11.8051    0.7864   -2.7542 C   0  0  2  0  0  0  0  0  0  0  0  0
  -12.9323    0.0003   -3.4771 C   0  0  2  0  0  0  0  0  0  0  0  0
  -14.3444    0.5688   -3.1628 C   0  0  1  0  0  0  0  0  0  0  0  0
  -15.4846   -0.2031   -3.8798 C   0  0  1  0  0  0  0  0  0  0  0  0
  -16.8883    0.3650   -3.5659 C   0  0  0  0  0  0  0  0  0  0  0  0
   -1.7958    3.0026   -0.9703 H   0  0  0  0  0  0  0  0  0  0  0  0
   -1.6729    2.8458    1.3236 H   0  0  0  0  0  0  0  0  0  0  0  0
   -2.8300    1.5233    1.2095 H   0  0  0  0  0  0  0  0  0  0  0  0
   -1.2346    0.0090    1.8819 H   0  0  0  0  0  0  0  0  0  0  0  0
   -0.1188    1.3659    2.1297 H   0  0  0  0  0  0  0  0  0  0  0  0
    1.1028    0.3754    0.3933 H   0  0  0  0  0  0  0  0  0  0  0  0
   -0.3085   -0.5612   -0.1416 H   0  0  0  0  0  0  0  0  0  0  0  0
    0.4162    2.3327   -0.7489 H   0  0  0  0  0  0  0  0  0  0  0  0
   -2.8163    0.1248   -1.1285 H   0  0  0  0  0  0  0  0  0  0  0  0
   -2.5976    1.1950   -2.5147 H   0  0  0  0  0  0  0  0  0  0  0  0
   -0.5080    0.0181   -2.4960 H   0  0  0  0  0  0  0  0  0  0  0  0
    1.1548    0.6260   -2.3451 H   0  0  0  0  0  0  0  0  0  0  0  0
    0.7219   -1.1832   -4.1011 H   0  0  0  0  0  0  0  0  0  0  0  0
    0.6388   -1.3134   -5.8562 H   0  0  0  0  0  0  0  0  0  0  0  0
    2.8634   -1.7874   -6.0723 H   0  0  0  0  0  0  0  0  0  0  0  0
    3.3524   -0.6348   -4.8371 H   0  0  0  0  0  0  0  0  0  0  0  0
    2.1086   -3.3430   -4.2023 H   0  0  0  0  0  0  0  0  0  0  0  0
    2.7152   -2.1734   -3.0428 H   0  0  0  0  0  0  0  0  0  0  0  0
    3.4746   -5.1173   -3.1402 H   0  0  0  0  0  0  0  0  0  0  0  0
    4.0351   -3.9223   -1.9675 H   0  0  0  0  0  0  0  0  0  0  0  0
    5.2019   -4.8767   -2.8817 H   0  0  0  0  0  0  0  0  0  0  0  0
    5.1909   -1.8042   -2.7917 H   0  0  0  0  0  0  0  0  0  0  0  0
    6.3337   -2.8440   -3.6470 H   0  0  0  0  0  0  0  0  0  0  0  0
    5.4792   -1.5841   -4.5202 H   0  0  0  0  0  0  0  0  0  0  0  0
    5.4383   -4.5650   -5.3333 H   0  0  0  0  0  0  0  0  0  0  0  0
    3.6979   -4.6563   -5.6211 H   0  0  0  0  0  0  0  0  0  0  0  0
    4.6247   -3.2572   -6.1677 H   0  0  0  0  0  0  0  0  0  0  0  0
   -4.2657    2.7700   -1.7033 H   0  0  0  0  0  0  0  0  0  0  0  0
   -4.5620    1.7787   -0.2687 H   0  0  0  0  0  0  0  0  0  0  0  0
   -5.0900    0.9678   -3.1703 H   0  0  0  0  0  0  0  0  0  0  0  0
   -5.2500   -0.1280   -1.7866 H   0  0  0  0  0  0  0  0  0  0  0  0
   -6.8425    2.4569   -2.2000 H   0  0  0  0  0  0  0  0  0  0  0  0
   -6.9843    1.3900   -0.7953 H   0  0  0  0  0  0  0  0  0  0  0  0
   -7.7524   -0.4776   -2.2950 H   0  0  0  0  0  0  0  0  0  0  0  0
   -7.6441    0.6127   -3.6881 H   0  0  0  0  0  0  0  0  0  0  0  0
   -9.3580    2.1100   -2.6376 H   0  0  0  0  0  0  0  0  0  0  0  0
   -9.4624    1.0129   -1.2504 H   0  0  0  0  0  0  0  0  0  0  0  0
  -10.3191   -0.8016   -2.7415 H   0  0  0  0  0  0  0  0  0  0  0  0
  -10.2036    0.2860   -4.1366 H   0  0  0  0  0  0  0  0  0  0  0  0
  -11.8546    1.8354   -3.0604 H   0  0  0  0  0  0  0  0  0  0  0  0
  -11.9769    0.7392   -1.6748 H   0  0  0  0  0  0  0  0  0  0  0  0
  -12.8906   -1.0476   -3.1669 H   0  0  0  0  0  0  0  0  0  0  0  0
  -12.7611    0.0442   -4.5564 H   0  0  0  0  0  0  0  0  0  0  0  0
  -14.5124    0.5246   -2.0828 H   0  0  0  0  0  0  0  0  0  0  0  0
  -14.3810    1.6181   -3.4701 H   0  0  0  0  0  0  0  0  0  0  0  0
  -15.3279   -0.1596   -4.9611 H   0  0  0  0  0  0  0  0  0  0  0  0
  -15.4601   -1.2527   -3.5744 H   0  0  0  0  0  0  0  0  0  0  0  0
  -17.6476   -0.2148   -4.0950 H   0  0  0  0  0  0  0  0  0  0  0  0
  -17.0932    0.3089   -2.4947 H   0  0  0  0  0  0  0  0  0  0  0  0
  -16.9605    1.4061   -3.8874 H   0  0  0  0  0  0  0  0  0  0  0  0
  1  2  1  0  0  0  0
  2  3  1  0  0  0  0
  3  4  1  0  0  0  0
  4  5  1  0  0  0  0
  1  5  1  0  0  0  0
  1  6  1  0  0  0  0
  5  7  1  0  0  0  0
  7  8  1  0  0  0  0
  8  9  1  0  0  0  0
  9 10  1  0  0  0  0
  9 11  2  0  0  0  0
  9 12  1  0  0  0  0
 12 13  1  0  0  0  0
 13 14  1  0  0  0  0
 14 15  1  0  0  0  0
 15 16  1  0  0  0  0
 16 17  1  0  0  0  0
 16 18  1  0  0  0  0
 16 19  1  0  0  0  0
  6 20  1  0  0  0  0
 20 21  1  0  0  0  0
 21 22  1  0  0  0  0
 22 23  1  0  0  0  0
 23 24  1  0  0  0  0
 24 25  1  0  0  0  0
 25 26  1  0  0  0  0
 26 27  1  0  0  0  0
 27 28  1  0  0  0  0
 28 29  1  0  0  0  0
 29 30  1  0  0  0  0
  1 31  1  0  0  0  0
  2 32  1  0  0  0  0
  2 33  1  0  0  0  0
  3 34  1  0  0  0  0
  3 35  1  0  0  0  0
  4 36  1  0  0  0  0
  4 37  1  0  0  0  0
  5 38  1  0  0  0  0
  6 39  1  0  0  0  0
  6 40  1  0  0  0  0
  7 41  1  0  0  0  0
  7 42  1  0  0  0  0
 13 43  1  0  0  0  0
 13 44  1  0  0  0  0
 14 45  1  0  0  0  0
 14 46  1  0  0  0  0
 15 47  1  0  0  0  0
 15 48  1  0  0  0  0
 17 49  1  0  0  0  0
 17 50  1  0  0  0  0
 17 51  1  0  0  0  0
 18 52  1  0  0  0  0
 18 53  1  0  0  0  0
 18 54  1  0  0  0  0
 19 55  1  0  0  0  0
 19 56  1  0  0  0  0
 19 57  1  0  0  0  0
 20 58  1  0  0  0  0
 20 59  1  0  0  0  0
 21 60  1  0  0  0  0
 21 61  1  0  0  0  0
 22 62  1  0  0  0  0
 22 63  1  0  0  0  0
 23 64  1  0  0  0  0
 23 65  1  0  0  0  0
 24 66  1  0  0  0  0
 24 67  1  0  0  0  0
 25 68  1  0  0  0  0
 25 69  1  0  0  0  0
 26 70  1  0  0  0  0
 26 71  1  0  0  0  0
 27 72  1  0  0  0  0
 27 73  1  0  0  0  0
 28 74  1  0  0  0  0
 28 75  1  0  0  0  0
 29 76  1  0  0  0  0
 29 77  1  0  0  0  0
 30 78  1  0  0  0  0
 30 79  1  0  0  0  0
 30 80  1  0  0  0  0
M  CHG  2  10  -1  16   1
M  END
>  <type>
common

$$$$
> 802_AKC_j.ejmech.2023.115863

  Mrv0541 10172308433D             125.85000

 72 77  0  0  0  0            999 V2000
   -1.1284   -2.8101    2.8641 C   0  0  1  0  0  0  0  0  0  0  0  0
   -1.5927   -2.7806    4.3423 C   0  0  1  0  0  0  0  0  0  0  0  0
   -2.5603   -3.9327    4.7478 C   0  0  2  0  0  0  0  0  0  0  0  0
   -0.4324   -2.8400    5.1731 O   0  0  0  0  0  0  0  0  0  0  0  0
   -4.7276   -2.9332    3.9080 C   0  0  2  0  0  0  0  0  0  0  0  0
   -5.9319   -3.1874    2.9634 C   0  0  2  0  0  0  0  0  0  0  0  0
   -6.6108   -4.4054    3.3347 N   0  0  0  0  0  0  0  0  0  0  0  0
   -5.7997   -5.6030    3.4080 C   0  0  1  0  0  0  0  0  0  0  0  0
   -4.5302   -5.3761    4.2727 C   0  0  2  0  0  0  0  0  0  0  0  0
   -3.8010   -4.1113    3.9173 N   0  0  2  0  0  0  0  0  0  0  0  0
   -7.9754   -4.4448    3.5594 C   0  0  0  0  0  0  0  0  0  0  0  0
   -8.6285   -3.7220    4.5990 C   0  0  0  0  0  0  0  0  0  0  0  0
  -10.0307   -3.8406    4.7765 C   0  0  0  0  0  0  0  0  0  0  0  0
  -10.7779   -4.6569    3.9066 C   0  0  0  0  0  0  0  0  0  0  0  0
  -10.1480   -5.3659    2.8735 C   0  0  0  0  0  0  0  0  0  0  0  0
   -8.7588   -5.2590    2.7064 C   0  0  0  0  0  0  0  0  0  0  0  0
   -7.7510   -2.7329    5.6649 Cl  0  0  0  0  0  0  0  0  0  0  0  0
  -10.8763   -3.0451    6.0185 Cl  0  0  0  0  0  0  0  0  0  0  0  0
   -2.2402   -2.4638    2.0187 O   0  0  0  0  0  0  0  0  0  0  0  0
   -1.9453   -2.2566    0.7023 C   0  0  0  0  0  0  0  0  0  0  0  0
   -1.9875   -0.9469    0.1863 C   0  0  0  0  0  0  0  0  0  0  0  0
   -1.7669   -0.7168   -1.1841 C   0  0  0  0  0  0  0  0  0  0  0  0
   -1.5032   -1.7963   -2.0615 C   0  0  0  0  0  0  0  0  0  0  0  0
   -1.4382   -3.1057   -1.5259 C   0  0  0  0  0  0  0  0  0  0  0  0
   -1.6710   -3.3359   -0.1589 C   0  0  0  0  0  0  0  0  0  0  0  0
    1.2794   -2.7892   -7.3312 C   0  0  0  0  0  0  0  0  0  0  0  0
    1.0163   -2.8571   -5.9533 C   0  0  0  0  0  0  0  0  0  0  0  0
   -0.0668   -2.1418   -5.4099 C   0  0  0  0  0  0  0  0  0  0  0  0
   -0.9152   -1.3518   -6.2367 C   0  0  0  0  0  0  0  0  0  0  0  0
   -0.6362   -1.3064   -7.6277 C   0  0  0  0  0  0  0  0  0  0  0  0
    0.4531   -2.0186   -8.1694 C   0  0  0  0  0  0  0  0  0  0  0  0
   -2.0009   -0.6695   -5.6178 C   0  0  0  0  0  0  0  0  0  0  0  0
   -2.1933   -0.7902   -4.2220 C   0  0  0  0  0  0  0  0  0  0  0  0
   -1.3252   -1.5933   -3.4523 C   0  0  0  0  0  0  0  0  0  0  0  0
   -0.3043   -2.2289   -4.0793 N   0  0  0  0  0  0  0  0  0  0  0  0
   -2.9221    0.1260   -6.3494 C   0  0  0  0  0  0  0  0  0  0  0  0
   -4.1945   -0.3646   -6.7461 C   0  0  0  0  0  0  0  0  0  0  0  0
   -5.0764    0.4721   -7.4634 C   0  0  0  0  0  0  0  0  0  0  0  0
   -4.6893    1.7768   -7.8179 C   0  0  0  0  0  0  0  0  0  0  0  0
   -3.4267    2.2622   -7.4368 C   0  0  0  0  0  0  0  0  0  0  0  0
   -2.5545    1.4480   -6.6927 C   0  0  0  0  0  0  0  0  0  0  0  0
   -4.7054   -1.9456   -6.3930 Cl  0  0  0  0  0  0  0  0  0  0  0  0
    0.7727   -1.9569   -9.8313 Cl  0  0  0  0  0  0  0  0  0  0  0  0
   -0.3184   -2.0839    2.7417 H   0  0  0  0  0  0  0  0  0  0  0  0
   -0.7431   -3.8044    2.6187 H   0  0  0  0  0  0  0  0  0  0  0  0
   -2.0656   -1.8175    4.5446 H   0  0  0  0  0  0  0  0  0  0  0  0
   -2.8445   -3.7848    5.7944 H   0  0  0  0  0  0  0  0  0  0  0  0
   -1.9763   -4.8571    4.7046 H   0  0  0  0  0  0  0  0  0  0  0  0
   -0.7609   -2.7102    6.0886 H   0  0  0  0  0  0  0  0  0  0  0  0
   -5.0777   -2.7253    4.9189 H   0  0  0  0  0  0  0  0  0  0  0  0
   -4.2227   -2.0342    3.5589 H   0  0  0  0  0  0  0  0  0  0  0  0
   -5.5626   -3.2897    1.9372 H   0  0  0  0  0  0  0  0  0  0  0  0
   -6.5965   -2.3193    2.9792 H   0  0  0  0  0  0  0  0  0  0  0  0
   -6.3563   -6.4464    3.8304 H   0  0  0  0  0  0  0  0  0  0  0  0
   -5.4921   -5.8868    2.3966 H   0  0  0  0  0  0  0  0  0  0  0  0
   -3.8668   -6.2342    4.1281 H   0  0  0  0  0  0  0  0  0  0  0  0
   -4.8227   -5.3573    5.3271 H   0  0  0  0  0  0  0  0  0  0  0  0
  -11.7880   -4.7455    4.0224 H   0  0  0  0  0  0  0  0  0  0  0  0
  -10.6997   -5.9641    2.2506 H   0  0  0  0  0  0  0  0  0  0  0  0
   -8.3152   -5.7898    1.9539 H   0  0  0  0  0  0  0  0  0  0  0  0
   -2.1897   -0.1589    0.8068 H   0  0  0  0  0  0  0  0  0  0  0  0
   -1.8004    0.2455   -1.5327 H   0  0  0  0  0  0  0  0  0  0  0  0
   -1.2397   -3.9078   -2.1300 H   0  0  0  0  0  0  0  0  0  0  0  0
   -1.6548   -4.2919    0.2049 H   0  0  0  0  0  0  0  0  0  0  0  0
    2.0718   -3.3071   -7.7187 H   0  0  0  0  0  0  0  0  0  0  0  0
    1.6106   -3.4363   -5.3537 H   0  0  0  0  0  0  0  0  0  0  0  0
   -1.2265   -0.7591   -8.2605 H   0  0  0  0  0  0  0  0  0  0  0  0
   -2.9784   -0.3148   -3.7675 H   0  0  0  0  0  0  0  0  0  0  0  0
   -6.0055    0.1397   -7.7340 H   0  0  0  0  0  0  0  0  0  0  0  0
   -5.3254    2.3718   -8.3545 H   0  0  0  0  0  0  0  0  0  0  0  0
   -3.1421    3.2084   -7.7003 H   0  0  0  0  0  0  0  0  0  0  0  0
   -1.6513    1.8309   -6.3983 H   0  0  0  0  0  0  0  0  0  0  0  0
  1  2  1  0  0  0  0
  2  3  1  0  0  0  0
  2  4  1  0  0  0  0
  5  6  1  0  0  0  0
  6  7  1  0  0  0  0
  7  8  1  0  0  0  0
  8  9  1  0  0  0  0
  9 10  1  0  0  0  0
  5 10  1  0  0  0  0
 11 12  2  0  0  0  0
 12 13  1  0  0  0  0
 13 14  2  0  0  0  0
 14 15  1  0  0  0  0
 15 16  2  0  0  0  0
 11 16  1  0  0  0  0
 12 17  1  0  0  0  0
 13 18  1  0  0  0  0
  7 11  1  0  0  0  0
  3 10  1  0  0  0  0
 19 20  1  0  0  0  0
 20 21  2  0  0  0  0
 21 22  1  0  0  0  0
 22 23  2  0  0  0  0
 23 24  1  0  0  0  0
 24 25  2  0  0  0  0
 20 25  1  0  0  0  0
 26 27  1  0  0  0  0
 27 28  2  0  0  0  0
 28 29  1  0  0  0  0
 29 30  2  0  0  0  0
 30 31  1  0  0  0  0
 26 31  2  0  0  0  0
 29 32  1  0  0  0  0
 32 33  2  0  0  0  0
 33 34  1  0  0  0  0
 34 35  2  0  0  0  0
 28 35  1  0  0  0  0
 36 37  2  0  0  0  0
 37 38  1  0  0  0  0
 38 39  2  0  0  0  0
 39 40  1  0  0  0  0
 40 41  2  0  0  0  0
 36 41  1  0  0  0  0
 37 42  1  0  0  0  0
 32 36  1  0  0  0  0
 31 43  1  0  0  0  0
 23 34  1  0  0  0  0
  1 19  1  0  0  0  0
  1 44  1  0  0  0  0
  1 45  1  0  0  0  0
  2 46  1  0  0  0  0
  3 47  1  0  0  0  0
  3 48  1  0  0  0  0
  4 49  1  0  0  0  0
  5 50  1  0  0  0  0
  5 51  1  0  0  0  0
  6 52  1  0  0  0  0
  6 53  1  0  0  0  0
  8 54  1  0  0  0  0
  8 55  1  0  0  0  0
  9 56  1  0  0  0  0
  9 57  1  0  0  0  0
 14 58  1  0  0  0  0
 15 59  1  0  0  0  0
 16 60  1  0  0  0  0
 21 61  1  0  0  0  0
 22 62  1  0  0  0  0
 24 63  1  0  0  0  0
 25 64  1  0  0  0  0
 26 65  1  0  0  0  0
 27 66  1  0  0  0  0
 30 67  1  0  0  0  0
 33 68  1  0  0  0  0
 38 69  1  0  0  0  0
 39 70  1  0  0  0  0
 40 71  1  0  0  0  0
 41 72  1  0  0  0  0
M  END
>  <type>
systematic

$$$$
> 803_AKC_j.ejmech.2023.115863

  Mrv0541 10172308443D             125.82000

 72 77  0  0  0  0            999 V2000
   -1.1086   -2.7040    2.9158 C   0  0  1  0  0  0  0  0  0  0  0  0
   -1.3962   -2.8657    4.4283 C   0  0  2  0  0  0  0  0  0  0  0  0
   -2.4022   -1.8000    4.9471 C   0  0  2  0  0  0  0  0  0  0  0  0
   -0.1504   -2.7677    5.1219 O   0  0  0  0  0  0  0  0  0  0  0  0
   -2.9033   -2.9590    7.1384 C   0  0  2  0  0  0  0  0  0  0  0  0
   -3.0269   -2.7445    8.6711 C   0  0  2  0  0  0  0  0  0  0  0  0
   -3.9115   -1.6401    8.9596 N   0  0  0  0  0  0  0  0  0  0  0  0
   -3.6435   -0.3793    8.3016 C   0  0  1  0  0  0  0  0  0  0  0  0
   -3.5247   -0.5892    6.7748 C   0  0  2  0  0  0  0  0  0  0  0  0
   -2.5545   -1.6834    6.4339 N   0  0  2  0  0  0  0  0  0  0  0  0
   -4.9701   -1.7465    9.8358 C   0  0  0  0  0  0  0  0  0  0  0  0
   -6.1011   -2.5807    9.6086 C   0  0  0  0  0  0  0  0  0  0  0  0
   -7.1958   -2.5513   10.5100 C   0  0  0  0  0  0  0  0  0  0  0  0
   -7.1610   -1.6955   11.6270 C   0  0  0  0  0  0  0  0  0  0  0  0
   -6.0337   -0.8984   11.8753 C   0  0  0  0  0  0  0  0  0  0  0  0
   -4.9410   -0.9347   10.9951 C   0  0  0  0  0  0  0  0  0  0  0  0
   -6.1922   -3.5821    8.2385 Cl  0  0  0  0  0  0  0  0  0  0  0  0
   -8.5917   -3.4967   10.2947 Cl  0  0  0  0  0  0  0  0  0  0  0  0
   -2.3305   -2.7318    2.1449 O   0  0  0  0  0  0  0  0  0  0  0  0
   -2.1287   -2.4726    0.8145 C   0  0  0  0  0  0  0  0  0  0  0  0
   -2.2807   -1.1655    0.3083 C   0  0  0  0  0  0  0  0  0  0  0  0
   -2.0581   -0.9023   -1.0571 C   0  0  0  0  0  0  0  0  0  0  0  0
   -1.6910   -1.9434   -1.9456 C   0  0  0  0  0  0  0  0  0  0  0  0
   -1.5414   -3.2519   -1.4231 C   0  0  0  0  0  0  0  0  0  0  0  0
   -1.7722   -3.5158   -0.0610 C   0  0  0  0  0  0  0  0  0  0  0  0
    1.2618   -2.7089   -7.1838 C   0  0  0  0  0  0  0  0  0  0  0  0
    0.9628   -2.8304   -5.8157 C   0  0  0  0  0  0  0  0  0  0  0  0
   -0.1450   -2.1558   -5.2673 C   0  0  0  0  0  0  0  0  0  0  0  0
   -0.9737   -1.3430   -6.0895 C   0  0  0  0  0  0  0  0  0  0  0  0
   -0.6614   -1.2421   -7.4709 C   0  0  0  0  0  0  0  0  0  0  0  0
    0.4486   -1.9170   -8.0149 C   0  0  0  0  0  0  0  0  0  0  0  0
   -2.0823   -0.6922   -5.4811 C   0  0  0  0  0  0  0  0  0  0  0  0
   -2.3246   -0.8705   -4.1000 C   0  0  0  0  0  0  0  0  0  0  0  0
   -1.4788   -1.6993   -3.3294 C   0  0  0  0  0  0  0  0  0  0  0  0
   -0.4283   -2.2984   -3.9478 N   0  0  0  0  0  0  0  0  0  0  0  0
   -2.9757    0.1168   -6.2281 C   0  0  0  0  0  0  0  0  0  0  0  0
   -4.2524   -0.3556   -6.6334 C   0  0  0  0  0  0  0  0  0  0  0  0
   -5.0799    0.4667   -7.4238 C   0  0  0  0  0  0  0  0  0  0  0  0
   -4.6426    1.7441   -7.8166 C   0  0  0  0  0  0  0  0  0  0  0  0
   -3.3812    2.2160   -7.4142 C   0  0  0  0  0  0  0  0  0  0  0  0
   -2.5542    1.4105   -6.6134 C   0  0  0  0  0  0  0  0  0  0  0  0
   -4.8250   -1.9026   -6.2269 Cl  0  0  0  0  0  0  0  0  0  0  0  0
    0.7953   -1.7867   -9.6678 Cl  0  0  0  0  0  0  0  0  0  0  0  0
   -0.5847   -1.7557    2.7666 H   0  0  0  0  0  0  0  0  0  0  0  0
   -0.4460   -3.5162    2.6045 H   0  0  0  0  0  0  0  0  0  0  0  0
   -1.8090   -3.8639    4.5954 H   0  0  0  0  0  0  0  0  0  0  0  0
   -3.3801   -1.9996    4.4963 H   0  0  0  0  0  0  0  0  0  0  0  0
   -2.0612   -0.8289    4.5760 H   0  0  0  0  0  0  0  0  0  0  0  0
   -0.3432   -2.9943    6.0555 H   0  0  0  0  0  0  0  0  0  0  0  0
   -3.8392   -3.3552    6.7394 H   0  0  0  0  0  0  0  0  0  0  0  0
   -2.1297   -3.7119    6.9786 H   0  0  0  0  0  0  0  0  0  0  0  0
   -2.0372   -2.5112    9.0751 H   0  0  0  0  0  0  0  0  0  0  0  0
   -3.3555   -3.6775    9.1402 H   0  0  0  0  0  0  0  0  0  0  0  0
   -4.4325    0.3623    8.4824 H   0  0  0  0  0  0  0  0  0  0  0  0
   -2.7051    0.0344    8.6827 H   0  0  0  0  0  0  0  0  0  0  0  0
   -3.1990    0.3581    6.3318 H   0  0  0  0  0  0  0  0  0  0  0  0
   -4.5195   -0.8260    6.3790 H   0  0  0  0  0  0  0  0  0  0  0  0
   -7.9563   -1.6458   12.2685 H   0  0  0  0  0  0  0  0  0  0  0  0
   -6.0120   -0.2871   12.6947 H   0  0  0  0  0  0  0  0  0  0  0  0
   -4.1242   -0.3500   11.2024 H   0  0  0  0  0  0  0  0  0  0  0  0
   -2.5481   -0.4008    0.9352 H   0  0  0  0  0  0  0  0  0  0  0  0
   -2.1599    0.0597   -1.3938 H   0  0  0  0  0  0  0  0  0  0  0  0
   -1.2758   -4.0313   -2.0328 H   0  0  0  0  0  0  0  0  0  0  0  0
   -1.6769   -4.4701    0.2957 H   0  0  0  0  0  0  0  0  0  0  0  0
    2.0677   -3.2071   -7.5724 H   0  0  0  0  0  0  0  0  0  0  0  0
    1.5528   -3.4194   -5.2244 H   0  0  0  0  0  0  0  0  0  0  0  0
   -1.2436   -0.6809   -8.0977 H   0  0  0  0  0  0  0  0  0  0  0  0
   -3.1264   -0.4104   -3.6598 H   0  0  0  0  0  0  0  0  0  0  0  0
   -6.0010    0.1387   -7.7257 H   0  0  0  0  0  0  0  0  0  0  0  0
   -5.2415    2.3293   -8.4004 H   0  0  0  0  0  0  0  0  0  0  0  0
   -3.0616    3.1416   -7.7085 H   0  0  0  0  0  0  0  0  0  0  0  0
   -1.6385    1.7671   -6.3239 H   0  0  0  0  0  0  0  0  0  0  0  0
  1  2  1  0  0  0  0
  2  3  1  0  0  0  0
  2  4  1  0  0  0  0
  5  6  1  0  0  0  0
  6  7  1  0  0  0  0
  7  8  1  0  0  0  0
  8  9  1  0  0  0  0
  9 10  1  0  0  0  0
  5 10  1  0  0  0  0
 11 12  2  0  0  0  0
 12 13  1  0  0  0  0
 13 14  2  0  0  0  0
 14 15  1  0  0  0  0
 15 16  2  0  0  0  0
 11 16  1  0  0  0  0
 12 17  1  0  0  0  0
 13 18  1  0  0  0  0
  7 11  1  0  0  0  0
  3 10  1  0  0  0  0
 19 20  1  0  0  0  0
 20 21  2  0  0  0  0
 21 22  1  0  0  0  0
 22 23  2  0  0  0  0
 23 24  1  0  0  0  0
 24 25  2  0  0  0  0
 20 25  1  0  0  0  0
 26 27  1  0  0  0  0
 27 28  2  0  0  0  0
 28 29  1  0  0  0  0
 29 30  2  0  0  0  0
 30 31  1  0  0  0  0
 26 31  2  0  0  0  0
 29 32  1  0  0  0  0
 32 33  2  0  0  0  0
 33 34  1  0  0  0  0
 34 35  2  0  0  0  0
 28 35  1  0  0  0  0
 36 37  2  0  0  0  0
 37 38  1  0  0  0  0
 38 39  2  0  0  0  0
 39 40  1  0  0  0  0
 40 41  2  0  0  0  0
 36 41  1  0  0  0  0
 37 42  1  0  0  0  0
 32 36  1  0  0  0  0
 31 43  1  0  0  0  0
 23 34  1  0  0  0  0
  1 19  1  0  0  0  0
  1 44  1  0  0  0  0
  1 45  1  0  0  0  0
  2 46  1  0  0  0  0
  3 47  1  0  0  0  0
  3 48  1  0  0  0  0
  4 49  1  0  0  0  0
  5 50  1  0  0  0  0
  5 51  1  0  0  0  0
  6 52  1  0  0  0  0
  6 53  1  0  0  0  0
  8 54  1  0  0  0  0
  8 55  1  0  0  0  0
  9 56  1  0  0  0  0
  9 57  1  0  0  0  0
 14 58  1  0  0  0  0
 15 59  1  0  0  0  0
 16 60  1  0  0  0  0
 21 61  1  0  0  0  0
 22 62  1  0  0  0  0
 24 63  1  0  0  0  0
 25 64  1  0  0  0  0
 26 65  1  0  0  0  0
 27 66  1  0  0  0  0
 30 67  1  0  0  0  0
 33 68  1  0  0  0  0
 38 69  1  0  0  0  0
 39 70  1  0  0  0  0
 40 71  1  0  0  0  0
 41 72  1  0  0  0  0
M  END
>  <type>
systematic

$$$$
> 804_AKC_acsomega.3c05441

  Mrv0541 10242313313D              92.44000

 48 50  0  0  0  0            999 V2000
   -3.9853   -4.3135   -4.6189 C   0  0  0  0  0  0  0  0  0  0  0  0
   -2.9187   -3.5688   -5.1634 C   0  0  0  0  0  0  0  0  0  0  0  0
   -2.1193   -2.8155   -4.2835 C   0  0  0  0  0  0  0  0  0  0  0  0
   -2.3803   -2.8651   -2.9484 N   0  0  0  0  0  0  0  0  0  0  0  0
   -3.4362   -3.5551   -2.4653 C   0  0  0  0  0  0  0  0  0  0  0  0
   -4.2359   -4.2834   -3.2820 N   0  0  0  0  0  0  0  0  0  0  0  0
   -1.7574   -2.2920   -1.9012 C   0  0  0  0  0  0  0  0  0  0  0  0
   -2.5551   -2.5622   -0.7870 C   0  0  0  0  0  0  0  0  0  0  0  0
   -3.5624   -3.3778   -1.1432 N   0  0  0  0  0  0  0  0  0  0  0  0
   -0.5974   -1.5796   -1.8613 N   0  0  0  0  0  0  0  0  0  0  0  0
    0.7593   -2.0475   -2.0945 C   0  0  1  0  0  0  0  0  0  0  0  0
    1.2582   -2.5020   -0.6741 C   0  0  0  0  0  0  0  0  0  0  0  0
    0.8556   -3.3427   -2.9867 C   0  0  0  0  0  0  0  0  0  0  0  0
    1.5951   -0.8182   -2.7133 C   0  0  2  0  0  0  0  0  0  0  0  0
    3.0103   -1.2430   -3.2513 C   0  0  0  0  0  0  0  0  0  0  0  0
    1.8360    0.3232   -1.6604 C   0  0  0  0  0  0  0  0  0  0  0  0
    0.8337   -0.1529   -3.9201 C   0  0  0  0  0  0  0  0  0  0  0  0
   -2.3771   -2.0711    0.5171 C   0  0  0  0  0  0  0  0  0  0  0  0
   -2.7044   -0.7300    0.8145 C   0  0  0  0  0  0  0  0  0  0  0  0
   -2.5694   -0.2395    2.1248 C   0  0  0  0  0  0  0  0  0  0  0  0
   -2.0813   -1.0805    3.1413 C   0  0  0  0  0  0  0  0  0  0  0  0
   -1.7324   -2.4189    2.8519 C   0  0  0  0  0  0  0  0  0  0  0  0
   -1.8948   -2.9153    1.5399 C   0  0  0  0  0  0  0  0  0  0  0  0
   -1.2595   -3.1933    3.7873 C   0  0  0  0  0  0  0  0  0  0  0  0
   -0.8368   -3.8773    4.6072 N   0  0  0  0  0  0  0  0  0  0  0  0
   -4.5883   -4.8676   -5.2285 H   0  0  0  0  0  0  0  0  0  0  0  0
   -2.7314   -3.5733   -6.1677 H   0  0  0  0  0  0  0  0  0  0  0  0
   -1.3690   -2.2340   -4.6559 H   0  0  0  0  0  0  0  0  0  0  0  0
   -0.6790   -0.6713   -1.5306 H   0  0  0  0  0  0  0  0  0  0  0  0
    0.6953   -3.3720   -0.3220 H   0  0  0  0  0  0  0  0  0  0  0  0
    1.1288   -1.7209    0.0780 H   0  0  0  0  0  0  0  0  0  0  0  0
    2.3135   -2.7813   -0.6949 H   0  0  0  0  0  0  0  0  0  0  0  0
    0.1472   -4.1069   -2.6608 H   0  0  0  0  0  0  0  0  0  0  0  0
    1.8531   -3.7863   -2.9323 H   0  0  0  0  0  0  0  0  0  0  0  0
    0.6654   -3.1300   -4.0357 H   0  0  0  0  0  0  0  0  0  0  0  0
    2.9285   -1.8837   -4.1315 H   0  0  0  0  0  0  0  0  0  0  0  0
    3.6007   -0.3725   -3.5491 H   0  0  0  0  0  0  0  0  0  0  0  0
    3.5764   -1.7823   -2.4911 H   0  0  0  0  0  0  0  0  0  0  0  0
    0.8946    0.6648   -1.2261 H   0  0  0  0  0  0  0  0  0  0  0  0
    2.3200    1.1909   -2.1150 H   0  0  0  0  0  0  0  0  0  0  0  0
    2.4871   -0.0158   -0.8523 H   0  0  0  0  0  0  0  0  0  0  0  0
   -0.1209    0.2724   -3.6042 H   0  0  0  0  0  0  0  0  0  0  0  0
    1.4175    0.6574   -4.3596 H   0  0  0  0  0  0  0  0  0  0  0  0
    0.6337   -0.8715   -4.7121 H   0  0  0  0  0  0  0  0  0  0  0  0
   -3.0577   -0.1060    0.0842 H   0  0  0  0  0  0  0  0  0  0  0  0
   -2.8248    0.7284    2.3398 H   0  0  0  0  0  0  0  0  0  0  0  0
   -1.9851   -0.7021    4.0898 H   0  0  0  0  0  0  0  0  0  0  0  0
   -1.6515   -3.8897    1.3216 H   0  0  0  0  0  0  0  0  0  0  0  0
  1  2  1  0  0  0  0
  1  6  2  0  0  0  0
  2  3  2  0  0  0  0
  3  4  1  0  0  0  0
  5  6  1  0  0  0  0
  4  7  1  0  0  0  0
  4  5  1  0  0  0  0
  5  9  2  0  0  0  0
  7  8  2  0  0  0  0
  8  9  1  0  0  0  0
  7 10  1  0  0  0  0
 10 11  1  0  0  0  0
 11 12  1  0  0  0  0
 11 13  1  0  0  0  0
 11 14  1  0  0  0  0
 14 15  1  0  0  0  0
 14 16  1  0  0  0  0
 14 17  1  0  0  0  0
  8 18  1  0  0  0  0
 18 19  1  0  0  0  0
 18 23  2  0  0  0  0
 19 20  2  0  0  0  0
 20 21  1  0  0  0  0
 21 22  2  0  0  0  0
 22 23  1  0  0  0  0
 22 24  1  0  0  0  0
 24 25  3  0  0  0  0
  1 26  1  0  0  0  0
  2 27  1  0  0  0  0
  3 28  1  0  0  0  0
 10 29  1  0  0  0  0
 12 30  1  0  0  0  0
 12 31  1  0  0  0  0
 12 32  1  0  0  0  0
 13 33  1  0  0  0  0
 13 34  1  0  0  0  0
 13 35  1  0  0  0  0
 15 36  1  0  0  0  0
 15 37  1  0  0  0  0
 15 38  1  0  0  0  0
 16 39  1  0  0  0  0
 16 40  1  0  0  0  0
 16 41  1  0  0  0  0
 17 42  1  0  0  0  0
 17 43  1  0  0  0  0
 17 44  1  0  0  0  0
 19 45  1  0  0  0  0
 20 46  1  0  0  0  0
 21 47  1  0  0  0  0
 23 48  1  0  0  0  0
M  END
$$$$
> 805_AKC_20499361231208294

  Mrv0541 11162313443D              94.86000

 43 45  0  0  0  0            999 V2000
   -4.7353   -3.8948    2.1826 C   0  0  0  0  0  0  0  0  0  0  0  0
   -5.2419   -4.0823    0.8754 C   0  0  0  0  0  0  0  0  0  0  0  0
   -4.3657   -3.9763   -0.2338 C   0  0  0  0  0  0  0  0  0  0  0  0
   -3.0055   -3.6500   -0.0514 C   0  0  0  0  0  0  0  0  0  0  0  0
   -2.5222   -3.4141    1.2527 C   0  0  0  0  0  0  0  0  0  0  0  0
   -3.3788   -3.5530    2.3337 C   0  0  0  0  0  0  0  0  0  0  0  0
   -1.3029   -3.0382    1.7164 N   0  0  0  0  0  0  0  0  0  0  0  0
   -1.3634   -2.9415    3.0377 N   0  0  0  0  0  0  0  0  0  0  0  0
   -2.6171   -3.2706    3.4500 C   0  0  0  0  0  0  0  0  0  0  0  0
   -6.5252   -4.3361    0.6956 N   0  0  0  0  0  0  0  0  0  0  0  0
   -7.2754   -3.4652    0.4913 O   0  0  0  0  0  0  0  0  0  0  0  0
   -6.9299   -5.4291    0.7482 O   0  0  0  0  0  0  0  0  0  0  0  0
   -3.0569   -3.3174    4.6219 O   0  0  0  0  0  0  0  0  0  0  0  0
   -0.3155   -2.5707    3.9723 C   0  0  1  0  0  0  0  0  0  0  0  0
   -0.6001   -1.2936    4.6907 C   0  0  0  0  0  0  0  0  0  0  0  0
   -0.2389   -0.0470    4.1250 C   0  0  0  0  0  0  0  0  0  0  0  0
   -0.5141    1.1606    4.7944 C   0  0  0  0  0  0  0  0  0  0  0  0
   -1.1541    1.1424    6.0452 C   0  0  0  0  0  0  0  0  0  0  0  0
   -1.5154   -0.0851    6.6255 C   0  0  0  0  0  0  0  0  0  0  0  0
   -1.2274   -1.2912    5.9606 C   0  0  0  0  0  0  0  0  0  0  0  0
   -0.1810   -2.7676    0.8450 C   0  0  2  0  0  0  0  0  0  0  0  0
   -0.2458   -1.3404    0.2474 C   0  0  1  0  0  0  0  0  0  0  0  0
    0.9691   -1.0596   -0.4591 O   0  0  0  0  0  0  0  0  0  0  0  0
    1.3013    0.1489   -0.9891 C   0  0  0  0  0  0  0  0  0  0  0  0
    2.2343    0.7860   -0.4489 O   0  0  0  0  0  0  0  0  0  0  0  0
    0.6663    0.6586   -2.2146 C   0  0  0  0  0  0  0  0  0  0  0  0
   -5.3438   -3.9869    2.9995 H   0  0  0  0  0  0  0  0  0  0  0  0
   -4.7153   -4.1304   -1.1825 H   0  0  0  0  0  0  0  0  0  0  0  0
   -2.3894   -3.5778   -0.8623 H   0  0  0  0  0  0  0  0  0  0  0  0
   -0.1927   -3.3851    4.6926 H   0  0  0  0  0  0  0  0  0  0  0  0
    0.6599   -2.4729    3.4979 H   0  0  0  0  0  0  0  0  0  0  0  0
    0.2425   -0.0065    3.2255 H   0  0  0  0  0  0  0  0  0  0  0  0
   -0.2434    2.0520    4.3723 H   0  0  0  0  0  0  0  0  0  0  0  0
   -1.3568    2.0183    6.5292 H   0  0  0  0  0  0  0  0  0  0  0  0
   -1.9893   -0.1035    7.5306 H   0  0  0  0  0  0  0  0  0  0  0  0
   -1.4863   -2.1704    6.4135 H   0  0  0  0  0  0  0  0  0  0  0  0
   -0.1528   -3.4945    0.0303 H   0  0  0  0  0  0  0  0  0  0  0  0
    0.7675   -2.8928    1.3629 H   0  0  0  0  0  0  0  0  0  0  0  0
   -1.0999   -1.2499   -0.4306 H   0  0  0  0  0  0  0  0  0  0  0  0
   -0.3652   -0.6154    1.0545 H   0  0  0  0  0  0  0  0  0  0  0  0
    1.1434    1.5849   -2.5416 H   0  0  0  0  0  0  0  0  0  0  0  0
    0.7611   -0.0800   -3.0117 H   0  0  0  0  0  0  0  0  0  0  0  0
   -0.3905    0.8562   -2.0297 H   0  0  0  0  0  0  0  0  0  0  0  0
  1  2  2  0  0  0  0
  1  6  1  0  0  0  0
  2  3  1  0  0  0  0
  3  4  2  0  0  0  0
  4  5  1  0  0  0  0
  5  7  1  0  0  0  0
  5  6  2  0  0  0  0
  6  9  1  0  0  0  0
  7  8  1  0  0  0  0
  8  9  1  0  0  0  0
  2 10  1  0  0  0  0
 10 11  2  0  0  0  0
 10 12  2  0  0  0  0
  9 13  2  0  0  0  0
  8 14  1  0  0  0  0
 14 15  1  0  0  0  0
 15 16  1  0  0  0  0
 15 20  2  0  0  0  0
 16 17  2  0  0  0  0
 17 18  1  0  0  0  0
 18 19  2  0  0  0  0
 19 20  1  0  0  0  0
  7 21  1  0  0  0  0
 21 22  1  0  0  0  0
 22 23  1  0  0  0  0
 23 24  1  0  0  0  0
 24 25  2  0  0  0  0
 24 26  1  0  0  0  0
  1 27  1  0  0  0  0
  3 28  1  0  0  0  0
  4 29  1  0  0  0  0
 14 30  1  0  0  0  0
 14 31  1  0  0  0  0
 16 32  1  0  0  0  0
 17 33  1  0  0  0  0
 18 34  1  0  0  0  0
 19 35  1  0  0  0  0
 20 36  1  0  0  0  0
 21 37  1  0  0  0  0
 21 38  1  0  0  0  0
 22 39  1  0  0  0  0
 22 40  1  0  0  0  0
 26 41  1  0  0  0  0
 26 42  1  0  0  0  0
 26 43  1  0  0  0  0
M  END
$$$$
> 806_AKC_preprints202308.1856.v1
(E)?3?(4?(allyloxy)?3?bromo?5?methoxyphenyl)?1?(benzo[d][1,3]dioxol?5?yl)prop?2?en?1?one
  Mrv0541 11162313473D              69.31000

 43 45  0  0  0  0            999 V2000
   -0.3903    0.6365    0.0685 C   0  0  0  0  0  0  0  0  0  0  0  0
    0.0116   -0.6862   -0.1677 C   0  0  0  0  0  0  0  0  0  0  0  0
   -0.7852   -1.7754   -0.0815 C   0  0  0  0  0  0  0  0  0  0  0  0
   -1.6164    0.8373    0.2564 O   0  0  0  0  0  0  0  0  0  0  0  0
    4.0380    2.9016   -0.2252 O   0  0  0  0  0  0  0  0  0  0  0  0
    4.2930    4.3141   -0.0986 C   0  0  2  0  0  0  0  0  0  0  0  0
    3.0919    5.0584    0.1867 O   0  0  0  0  0  0  0  0  0  0  0  0
    2.1574    4.0899    0.1788 C   0  0  0  0  0  0  0  0  0  0  0  0
    2.7042    2.8427   -0.0576 C   0  0  0  0  0  0  0  0  0  0  0  0
    1.8980    1.6933   -0.0996 C   0  0  0  0  0  0  0  0  0  0  0  0
    0.4890    1.7819    0.0971 C   0  0  0  0  0  0  0  0  0  0  0  0
   -0.0414    3.0856    0.3349 C   0  0  0  0  0  0  0  0  0  0  0  0
    0.7771    4.2330    0.3779 C   0  0  0  0  0  0  0  0  0  0  0  0
   -0.4275   -3.1125   -0.3303 C   0  0  0  0  0  0  0  0  0  0  0  0
    0.9029   -3.5387   -0.5778 C   0  0  0  0  0  0  0  0  0  0  0  0
    1.2151   -4.8853   -0.8264 C   0  0  0  0  0  0  0  0  0  0  0  0
    0.1964   -5.8576   -0.8506 C   0  0  0  0  0  0  0  0  0  0  0  0
   -1.1346   -5.4714   -0.5766 C   0  0  0  0  0  0  0  0  0  0  0  0
   -1.4364   -4.1133   -0.3341 C   0  0  0  0  0  0  0  0  0  0  0  0
   -2.1367   -6.4072   -0.5702 O   0  0  0  0  0  0  0  0  0  0  0  0
   -2.2566   -7.0861    0.6929 C   0  0  0  0  0  0  0  0  0  0  0  0
    2.9931   -5.3597   -1.1200 Br  0  0  0  0  0  0  0  0  0  0  0  0
    0.5073   -7.1699   -1.1069 O   0  0  0  0  0  0  0  0  0  0  0  0
    0.5267   -7.4838   -2.5163 C   0  0  1  0  0  0  0  0  0  0  0  0
    1.0495   -8.8207   -2.7100 C   0  0  0  0  0  0  0  0  0  0  0  0
    0.4370   -9.9239   -2.2664 C   0  0  0  0  0  0  0  0  0  0  0  0
    0.9498   -0.8283   -0.4263 H   0  0  0  0  0  0  0  0  0  0  0  0
   -1.7314   -1.6173    0.1837 H   0  0  0  0  0  0  0  0  0  0  0  0
    4.7337    4.6847   -1.0270 H   0  0  0  0  0  0  0  0  0  0  0  0
    5.0156    4.4774    0.7032 H   0  0  0  0  0  0  0  0  0  0  0  0
    2.3693    0.8099   -0.2739 H   0  0  0  0  0  0  0  0  0  0  0  0
   -1.0442    3.2255    0.4842 H   0  0  0  0  0  0  0  0  0  0  0  0
    0.3688    5.1536    0.5526 H   0  0  0  0  0  0  0  0  0  0  0  0
    1.6780   -2.8798   -0.5828 H   0  0  0  0  0  0  0  0  0  0  0  0
   -2.4138   -3.8608   -0.1580 H   0  0  0  0  0  0  0  0  0  0  0  0
   -2.9974   -7.8772    0.5826 H   0  0  0  0  0  0  0  0  0  0  0  0
   -1.3139   -7.5484    0.9956 H   0  0  0  0  0  0  0  0  0  0  0  0
   -2.5947   -6.4043    1.4767 H   0  0  0  0  0  0  0  0  0  0  0  0
   -0.4792   -7.4193   -2.9458 H   0  0  0  0  0  0  0  0  0  0  0  0
    1.1716   -6.7851   -3.0610 H   0  0  0  0  0  0  0  0  0  0  0  0
    1.9100   -8.9272   -3.1972 H   0  0  0  0  0  0  0  0  0  0  0  0
   -0.4195   -9.8720   -1.7666 H   0  0  0  0  0  0  0  0  0  0  0  0
    0.8370  -10.8173   -2.4364 H   0  0  0  0  0  0  0  0  0  0  0  0
  1  2  1  0  0  0  0
  2  3  2  0  0  0  0
  1  4  2  0  0  0  0
  5  6  1  0  0  0  0
  6  7  1  0  0  0  0
  7  8  1  0  0  0  0
  5  9  1  0  0  0  0
  8  9  2  0  0  0  0
  9 10  1  0  0  0  0
 10 11  2  0  0  0  0
 11 12  1  0  0  0  0
 12 13  2  0  0  0  0
  8 13  1  0  0  0  0
  1 11  1  0  0  0  0
 14 15  2  0  0  0  0
 15 16  1  0  0  0  0
 16 17  2  0  0  0  0
 17 18  1  0  0  0  0
 18 19  2  0  0  0  0
 14 19  1  0  0  0  0
 20 21  1  0  0  0  0
 18 20  1  0  0  0  0
 16 22  1  0  0  0  0
 24 25  1  0  0  0  0
 25 26  2  0  0  0  0
 23 24  1  0  0  0  0
 17 23  1  0  0  0  0
  3 14  1  0  0  0  0
  2 27  1  0  0  0  0
  3 28  1  0  0  0  0
  6 29  1  0  0  0  0
  6 30  1  0  0  0  0
 10 31  1  0  0  0  0
 12 32  1  0  0  0  0
 13 33  1  0  0  0  0
 15 34  1  0  0  0  0
 19 35  1  0  0  0  0
 21 36  1  0  0  0  0
 21 37  1  0  0  0  0
 21 38  1  0  0  0  0
 24 39  1  0  0  0  0
 24 40  1  0  0  0  0
 25 41  1  0  0  0  0
 26 42  1  0  0  0  0
 26 43  1  0  0  0  0
M  END
>  <type>
systematic

$$$$
> 807_AKC_agronomy13112765
10621
  -OEChem-11162311483D

 77 81  0     1  0  0  0  0  0999 V2000
    3.4756    0.0511   -0.0834 O   0  0  0  0  0  0  0  0  0  0  0  0
    1.8137   -1.9432    0.8519 O   0  0  0  0  0  0  0  0  0  0  0  0
    1.0094   -4.1175    1.3582 O   0  0  0  0  0  0  0  0  0  0  0  0
    5.1046   -2.8194   -1.6709 O   0  0  0  0  0  0  0  0  0  0  0  0
    3.5980    2.3495   -0.4662 O   0  0  0  0  0  0  0  0  0  0  0  0
    6.8905   -0.6248   -2.2625 O   0  0  0  0  0  0  0  0  0  0  0  0
    5.3711    1.8741   -2.6199 O   0  0  0  0  0  0  0  0  0  0  0  0
   -0.1104   -2.9867    3.7514 O   0  0  0  0  0  0  0  0  0  0  0  0
   -2.2108   -1.7317    2.4255 O   0  0  0  0  0  0  0  0  0  0  0  0
   -2.3967   -3.4208    0.1324 O   0  0  0  0  0  0  0  0  0  0  0  0
   -1.1128    1.7749   -0.5943 O   0  0  0  0  0  0  0  0  0  0  0  0
    0.9400    4.7043    2.6926 O   0  0  0  0  0  0  0  0  0  0  0  0
   -1.6411    4.4151    2.5010 O   0  0  0  0  0  0  0  0  0  0  0  0
   -6.4956   -0.7086   -2.6300 O   0  0  0  0  0  0  0  0  0  0  0  0
   -6.2236   -1.1964    0.0931 O   0  0  0  0  0  0  0  0  0  0  0  0
    3.5872   -1.2695   -0.6167 C   0  0  1  0  0  0  0  0  0  0  0  0
    5.0268   -1.5315   -1.0655 C   0  0  2  0  0  0  0  0  0  0  0  0
    5.4834   -0.4727   -2.0692 C   0  0  1  0  0  0  0  0  0  0  0  0
    5.1894    0.9377   -1.5580 C   0  0  2  0  0  0  0  0  0  0  0  0
    0.1581   -2.1987    2.5905 C   0  0  1  0  0  0  0  0  0  0  0  0
    1.3505   -2.8244    1.8692 C   0  0  2  0  0  0  0  0  0  0  0  0
   -1.0738   -2.1683    1.6844 C   0  0  1  0  0  0  0  0  0  0  0  0
   -1.3561   -3.5520    1.0979 C   0  0  2  0  0  0  0  0  0  0  0  0
    3.7511    1.0581   -1.0544 C   0  0  1  0  0  0  0  0  0  0  0  0
    3.1489   -2.2438    0.4721 C   0  0  0  0  0  0  0  0  0  0  0  0
   -0.0885   -4.1148    0.4401 C   0  0  2  0  0  0  0  0  0  0  0  0
   -0.2793   -5.5538   -0.0311 C   0  0  0  0  0  0  0  0  0  0  0  0
    2.3640    2.6478    0.0435 C   0  0  0  0  0  0  0  0  0  0  0  0
    1.2218    2.0785   -0.5203 C   0  0  0  0  0  0  0  0  0  0  0  0
   -0.0360    2.3737    0.0071 C   0  0  0  0  0  0  0  0  0  0  0  0
    2.2505    3.5198    1.1268 C   0  0  0  0  0  0  0  0  0  0  0  0
   -2.2509    1.6681    0.2753 C   0  0  1  0  0  0  0  0  0  0  0  0
   -0.1487    3.2646    1.0785 C   0  0  0  0  0  0  0  0  0  0  0  0
   -2.6549    3.0370    0.8192 C   0  0  0  0  0  0  0  0  0  0  0  0
    0.9939    3.8347    1.6455 C   0  0  0  0  0  0  0  0  0  0  0  0
   -1.4924    3.6298    1.5723 C   0  0  0  0  0  0  0  0  0  0  0  0
   -3.3862    1.0311   -0.4981 C   0  0  0  0  0  0  0  0  0  0  0  0
   -4.2956    0.1998    0.1558 C   0  0  0  0  0  0  0  0  0  0  0  0
   -3.5226    1.2758   -1.8645 C   0  0  0  0  0  0  0  0  0  0  0  0
   -5.3418   -0.3866   -0.5566 C   0  0  0  0  0  0  0  0  0  0  0  0
   -4.5686    0.6892   -2.5771 C   0  0  0  0  0  0  0  0  0  0  0  0
   -5.4782   -0.1420   -1.9231 C   0  0  0  0  0  0  0  0  0  0  0  0
   -6.5637   -0.4075   -4.0224 C   0  0  0  0  0  0  0  0  0  0  0  0
    2.8872   -1.3657   -1.4579 H   0  0  0  0  0  0  0  0  0  0  0  0
    5.7023   -1.5352   -0.2012 H   0  0  0  0  0  0  0  0  0  0  0  0
    5.0213   -0.6387   -3.0494 H   0  0  0  0  0  0  0  0  0  0  0  0
    5.8968    1.2150   -0.7674 H   0  0  0  0  0  0  0  0  0  0  0  0
    0.3858   -1.1809    2.9279 H   0  0  0  0  0  0  0  0  0  0  0  0
    2.1485   -2.9849    2.6054 H   0  0  0  0  0  0  0  0  0  0  0  0
   -0.9268   -1.4457    0.8720 H   0  0  0  0  0  0  0  0  0  0  0  0
   -1.7213   -4.2227    1.8845 H   0  0  0  0  0  0  0  0  0  0  0  0
    3.0925    0.9562   -1.9258 H   0  0  0  0  0  0  0  0  0  0  0  0
    3.7984   -2.1320    1.3489 H   0  0  0  0  0  0  0  0  0  0  0  0
    3.2072   -3.2765    0.1108 H   0  0  0  0  0  0  0  0  0  0  0  0
    0.1824   -3.5159   -0.4391 H   0  0  0  0  0  0  0  0  0  0  0  0
   -1.0798   -5.6312   -0.7727 H   0  0  0  0  0  0  0  0  0  0  0  0
   -0.5158   -6.2125    0.8118 H   0  0  0  0  0  0  0  0  0  0  0  0
    0.6461   -5.9343   -0.4773 H   0  0  0  0  0  0  0  0  0  0  0  0
    4.4974   -2.8315   -2.4304 H   0  0  0  0  0  0  0  0  0  0  0  0
    7.3318   -0.4657   -1.4108 H   0  0  0  0  0  0  0  0  0  0  0  0
    4.7591    1.6394   -3.3382 H   0  0  0  0  0  0  0  0  0  0  0  0
    0.6700   -2.9346    4.3291 H   0  0  0  0  0  0  0  0  0  0  0  0
   -2.0014   -0.8565    2.7940 H   0  0  0  0  0  0  0  0  0  0  0  0
   -2.0765   -2.8408   -0.5794 H   0  0  0  0  0  0  0  0  0  0  0  0
    1.2506    1.4130   -1.3756 H   0  0  0  0  0  0  0  0  0  0  0  0
    3.1447    3.9598    1.5618 H   0  0  0  0  0  0  0  0  0  0  0  0
   -1.9712    0.9939    1.0977 H   0  0  0  0  0  0  0  0  0  0  0  0
   -3.5071    2.9427    1.5015 H   0  0  0  0  0  0  0  0  0  0  0  0
   -2.9199    3.7335    0.0150 H   0  0  0  0  0  0  0  0  0  0  0  0
   -4.1912    0.0139    1.2218 H   0  0  0  0  0  0  0  0  0  0  0  0
   -2.8346    1.9298   -2.3934 H   0  0  0  0  0  0  0  0  0  0  0  0
    0.0294    4.7960    3.0119 H   0  0  0  0  0  0  0  0  0  0  0  0
   -4.6142    0.9262   -3.6344 H   0  0  0  0  0  0  0  0  0  0  0  0
   -5.9723   -1.2511    1.0310 H   0  0  0  0  0  0  0  0  0  0  0  0
   -6.7390    0.6597   -4.1964 H   0  0  0  0  0  0  0  0  0  0  0  0
   -5.6841   -0.7787   -4.5592 H   0  0  0  0  0  0  0  0  0  0  0  0
   -7.4306   -0.9415   -4.4255 H   0  0  0  0  0  0  0  0  0  0  0  0
  1 16  1  0  0  0  0
  1 24  1  0  0  0  0
  2 21  1  0  0  0  0
  2 25  1  0  0  0  0
  3 21  1  0  0  0  0
  3 26  1  0  0  0  0
  4 17  1  0  0  0  0
  4 59  1  0  0  0  0
  5 24  1  0  0  0  0
  5 28  1  0  0  0  0
  6 18  1  0  0  0  0
  6 60  1  0  0  0  0
  7 19  1  0  0  0  0
  7 61  1  0  0  0  0
  8 20  1  0  0  0  0
  8 62  1  0  0  0  0
  9 22  1  0  0  0  0
  9 63  1  0  0  0  0
 10 23  1  0  0  0  0
 10 64  1  0  0  0  0
 11 30  1  0  0  0  0
 11 32  1  0  0  0  0
 12 35  1  0  0  0  0
 12 72  1  0  0  0  0
 13 36  2  0  0  0  0
 14 42  1  0  0  0  0
 14 43  1  0  0  0  0
 15 40  1  0  0  0  0
 15 74  1  0  0  0  0
 16 17  1  0  0  0  0
 16 25  1  0  0  0  0
 16 44  1  0  0  0  0
 17 18  1  0  0  0  0
 17 45  1  0  0  0  0
 18 19  1  0  0  0  0
 18 46  1  0  0  0  0
 19 24  1  0  0  0  0
 19 47  1  0  0  0  0
 20 21  1  0  0  0  0
 20 22  1  0  0  0  0
 20 48  1  0  0  0  0
 21 49  1  0  0  0  0
 22 23  1  0  0  0  0
 22 50  1  0  0  0  0
 23 26  1  0  0  0  0
 23 51  1  0  0  0  0
 24 52  1  0  0  0  0
 25 53  1  0  0  0  0
 25 54  1  0  0  0  0
 26 27  1  0  0  0  0
 26 55  1  0  0  0  0
 27 56  1  0  0  0  0
 27 57  1  0  0  0  0
 27 58  1  0  0  0  0
 28 29  1  0  0  0  0
 28 31  2  0  0  0  0
 29 30  2  0  0  0  0
 29 65  1  0  0  0  0
 30 33  1  0  0  0  0
 31 35  1  0  0  0  0
 31 66  1  0  0  0  0
 32 34  1  0  0  0  0
 32 37  1  0  0  0  0
 32 67  1  0  0  0  0
 33 35  2  0  0  0  0
 33 36  1  0  0  0  0
 34 36  1  0  0  0  0
 34 68  1  0  0  0  0
 34 69  1  0  0  0  0
 37 38  2  0  0  0  0
 37 39  1  0  0  0  0
 38 40  1  0  0  0  0
 38 70  1  0  0  0  0
 39 41  2  0  0  0  0
 39 71  1  0  0  0  0
 40 42  2  0  0  0  0
 41 42  1  0  0  0  0
 41 73  1  0  0  0  0
 43 75  1  0  0  0  0
 43 76  1  0  0  0  0
 43 77  1  0  0  0  0
M  END
> <PUBCHEM_COMPOUND_CID>
10621

> <PUBCHEM_CONFORMER_RMSD>
1.2

> <PUBCHEM_CONFORMER_DIVERSEORDER>
3
277
121
225
143
205
174
76
141
310
130
196
117
108
155
210
297
222
61
188
319
315
208
18
274
197
44
257
298
183
312
35
41
215
323
58
51
262
209
303
1
301
325
128
68
320
284
299
203
66
90
177
329
231
214
175
317
240
99
94
247
280
296
179
167
62
311
271
273
161
202
154
324
229
107
224
103
260
204
264
156
145
110
237
321
232
199
314
118
180
218
67
97
45
223
102
191
255
112
95
241
57
305
253
322
250
116
168
198
83
242
23
72
328
287
220
300
70
73
137
290
178
125
318
195
129
278
10
152
270
227
252
233
279
219
187
138
254
256
115
151
56
245
316
158
149
162
283
81
281
221
105
60
201
212
181
309
39
169
234
59
131
291
93
249
78
120
192
261
139
82
236
272
166
165
92
96
148
326
217
306
86
74
4
244
294
164
295
87
119
190
171
134
258
263
182
235
55
142
200
157
114
216
228
127
144
71
84
101
113
146
122
248
80
226
259
308
288
193
163
43
194
238
211
25
38
292
124
268
159
33
29
176
207
251
13
111
172
53
327
330
170
65
2
275
89
246
46
293
304
265
285
313
52
104
135
20
269
160
28
150
189
266
15
91
40
109
206
185
173
7
230
136
243
133
54
6
14
184
77
123
302
69
8
100
186
63
126
276
42
47
85
37
19
106
98
79
22
239
75
34
64
267
32
31
16
48
286
289
153
282
30
17
11
147
26
132
9
213
50
5
21
27
88
49
140
307
36
12
24

> <PUBCHEM_MMFF94_PARTIAL_CHARGES>
55
1 -0.56
10 -0.68
11 -0.36
12 -0.53
13 -0.57
14 -0.36
15 -0.53
16 0.28
17 0.28
18 0.28
19 0.28
2 -0.56
20 0.28
21 0.56
22 0.28
23 0.28
24 0.56
25 0.28
26 0.28
28 0.08
29 -0.15
3 -0.56
30 0.08
31 -0.15
32 0.42
33 0.09
34 0.06
35 0.08
36 0.42
37 -0.14
38 -0.15
39 -0.15
4 -0.68
40 0.08
41 -0.15
42 0.08
43 0.28
5 -0.36
59 0.4
6 -0.68
60 0.4
61 0.4
62 0.4
63 0.4
64 0.4
65 0.15
66 0.15
7 -0.68
70 0.15
71 0.15
72 0.45
73 0.15
74 0.45
8 -0.68
9 -0.68

> <PUBCHEM_EFFECTIVE_ROTOR_COUNT>
10

> <PUBCHEM_PHARMACOPHORE_FEATURES>
26
1 1 acceptor
1 10 acceptor
1 10 donor
1 11 acceptor
1 12 donor
1 13 acceptor
1 14 acceptor
1 15 donor
1 2 acceptor
1 3 acceptor
1 4 acceptor
1 4 donor
1 5 acceptor
1 6 acceptor
1 6 donor
1 7 acceptor
1 7 donor
1 8 acceptor
1 8 donor
1 9 acceptor
1 9 donor
6 1 16 17 18 19 24 rings
6 11 30 32 33 34 36 rings
6 28 29 30 31 33 35 rings
6 3 20 21 22 23 26 rings
6 37 38 39 40 41 42 rings

> <PUBCHEM_HEAVY_ATOM_COUNT>
43

> <PUBCHEM_ATOM_DEF_STEREO_COUNT>
11

> <PUBCHEM_ATOM_UDEF_STEREO_COUNT>
0

> <PUBCHEM_BOND_DEF_STEREO_COUNT>
0

> <PUBCHEM_BOND_UDEF_STEREO_COUNT>
0

> <PUBCHEM_ISOTOPIC_ATOM_COUNT>
0

> <PUBCHEM_COMPONENT_COUNT>
1

> <PUBCHEM_CACTVS_TAUTO_COUNT>
25

> <PUBCHEM_CONFORMER_ID>
0000297D00000003

> <PUBCHEM_MMFF94_ENERGY>
143.3033

> <PUBCHEM_FEATURE_SELFOVERLAP>
132.122

> <PUBCHEM_SHAPE_FINGERPRINT>
10032420 55 18337380552732031701
10622 236 18122905331146447926
10771551 21 18334857160840361326
10985338 1 16256934326710818853
11170278 133 18042103432986980135
11285246 1 18411419526879049437
11513181 2 17910970040929246246
12124843 1 18408323254827029886
12156800 1 16048105233996799667
12355185 1 18343016718181718455
14040221 126 16833710720650810055
14931854 50 18334579010189443726
15001296 14 17913462874591809463
15274700 21 17750243659542301875
15351339 4 18336543815861450442
16067689 391 18054533326040207078
17138139 8 18340484470115547516
20764821 26 18336552723565600242
20775438 99 17913465098773302391
21133410 62 17968107369942085937
21344244 181 18267861873467389071
238918 7 17333077032801155112
3298306 158 18042105687860153441
3383291 50 18412267250665993378
3534868 343 17834370351994501463
437795 51 18260834808971003091
4403749 210 17118021367471496904
44344687 77 18341895242982779271
44802255 64 16661226813911907270
45266715 3 18125979793275593429
50080093 196 17543077775175672690
50150288 127 17770240266192588569
508706 21 17753334458676534426
66674814 147 18261402096519841372
6669772 16 18124010572186925281
86090 222 18189606310750433585

> <PUBCHEM_SHAPE_MULTIPOLES>
796.88
12.97
7.04
3.29
3.61
1.97
-0.51
1.96
-17.16
-1.81
6.01
1.81
0.23
-0.37

> <PUBCHEM_SHAPE_SELFOVERLAP>
1720.27

> <PUBCHEM_SHAPE_VOLUME>
432.9

> <PUBCHEM_COORDINATE_TYPE>
2
5
10

$$$$
> 808_AKC_07391102.2023.2279279

  Mrv0541 11272312353D              94.26000

 43 46  0  0  0  0            999 V2000
    4.2850  -10.1263   -3.1295 C   0  0  0  0  0  0  0  0  0  0  0  0
    4.7524   -8.7369   -3.2642 C   0  0  0  0  0  0  0  0  0  0  0  0
    5.7523   -8.4938   -3.9790 O   0  0  0  0  0  0  0  0  0  0  0  0
    4.0521   -7.7910   -2.5774 N   0  0  0  0  0  0  0  0  0  0  0  0
    4.1879   -6.4289   -2.5208 C   0  0  0  0  0  0  0  0  0  0  0  0
    3.3235   -5.7705   -1.6184 C   0  0  0  0  0  0  0  0  0  0  0  0
    3.3154   -4.3681   -1.5000 C   0  0  0  0  0  0  0  0  0  0  0  0
    4.1884   -3.5707   -2.2785 C   0  0  0  0  0  0  0  0  0  0  0  0
    5.0807   -4.2320   -3.1579 C   0  0  0  0  0  0  0  0  0  0  0  0
    5.0812   -5.6356   -3.2796 C   0  0  0  0  0  0  0  0  0  0  0  0
    4.1682   -2.1807   -2.1963 C   0  0  0  0  0  0  0  0  0  0  0  0
    3.2953   -1.4759   -1.5752 N   0  0  0  0  0  0  0  0  0  0  0  0
    3.5288   -0.2171   -1.6719 C   0  0  0  0  0  0  0  0  0  0  0  0
    2.8270    0.8196   -1.1607 C   0  0  0  0  0  0  0  0  0  0  0  0
    1.6492    0.8524   -0.3623 C   0  0  0  0  0  0  0  0  0  0  0  0
    1.0336   -0.3563    0.0696 C   0  0  0  0  0  0  0  0  0  0  0  0
   -0.0747   -0.3772    0.9244 C   0  0  0  0  0  0  0  0  0  0  0  0
   -0.6317    0.8189    1.3759 C   0  0  0  0  0  0  0  0  0  0  0  0
   -0.0977    2.0506    0.9527 C   0  0  0  0  0  0  0  0  0  0  0  0
    1.0358    2.0872    0.0710 C   0  0  0  0  0  0  0  0  0  0  0  0
    1.4757    3.3870   -0.3207 C   0  0  0  0  0  0  0  0  0  0  0  0
    0.8540    4.5628    0.1384 C   0  0  0  0  0  0  0  0  0  0  0  0
   -0.2380    4.4899    1.0107 C   0  0  0  0  0  0  0  0  0  0  0  0
   -0.7129    3.2376    1.4185 C   0  0  0  0  0  0  0  0  0  0  0  0
    4.6768   -0.1347   -2.4209 C   0  0  0  0  0  0  0  0  0  0  0  0
    5.3075    0.8951   -2.7485 O   0  0  0  0  0  0  0  0  0  0  0  0
    5.0548   -1.3774   -2.7607 O   0  0  0  0  0  0  0  0  0  0  0  0
    4.9320  -10.8183   -3.6696 H   0  0  0  0  0  0  0  0  0  0  0  0
    4.2848  -10.4029   -2.0748 H   0  0  0  0  0  0  0  0  0  0  0  0
    3.2691  -10.2191   -3.5222 H   0  0  0  0  0  0  0  0  0  0  0  0
    3.3276   -8.1461   -2.0379 H   0  0  0  0  0  0  0  0  0  0  0  0
    2.6841   -6.3132   -1.0307 H   0  0  0  0  0  0  0  0  0  0  0  0
    2.6607   -3.9386   -0.8378 H   0  0  0  0  0  0  0  0  0  0  0  0
    5.7366   -3.6978   -3.7368 H   0  0  0  0  0  0  0  0  0  0  0  0
    5.7349   -6.0560   -3.9397 H   0  0  0  0  0  0  0  0  0  0  0  0
    3.2319    1.6901   -1.3840 H   0  0  0  0  0  0  0  0  0  0  0  0
    1.3709   -1.2711   -0.2144 H   0  0  0  0  0  0  0  0  0  0  0  0
   -0.4753   -1.2700    1.2229 H   0  0  0  0  0  0  0  0  0  0  0  0
   -1.4341    0.7768    2.0113 H   0  0  0  0  0  0  0  0  0  0  0  0
    2.2566    3.5256   -0.9585 H   0  0  0  0  0  0  0  0  0  0  0  0
    1.1957    5.4783   -0.1643 H   0  0  0  0  0  0  0  0  0  0  0  0
   -0.6875    5.3461    1.3453 H   0  0  0  0  0  0  0  0  0  0  0  0
   -1.5144    3.2049    2.0559 H   0  0  0  0  0  0  0  0  0  0  0  0
  1  2  1  0  0  0  0
  2  3  2  0  0  0  0
  2  4  1  0  0  0  0
  4  5  1  0  0  0  0
  5  6  2  0  0  0  0
  6  7  1  0  0  0  0
  7  8  2  0  0  0  0
  8  9  1  0  0  0  0
  9 10  2  0  0  0  0
  5 10  1  0  0  0  0
  8 11  1  0  0  0  0
 11 12  2  0  0  0  0
 12 13  1  0  0  0  0
 13 14  2  0  0  0  0
 14 15  1  0  0  0  0
 15 16  2  0  0  0  0
 16 17  1  0  0  0  0
 17 18  2  0  0  0  0
 18 19  1  0  0  0  0
 19 20  2  0  0  0  0
 15 20  1  0  0  0  0
 20 21  1  0  0  0  0
 21 22  2  0  0  0  0
 22 23  1  0  0  0  0
 23 24  2  0  0  0  0
 19 24  1  0  0  0  0
 13 25  1  0  0  0  0
 25 26  2  0  0  0  0
 25 27  1  0  0  0  0
 11 27  1  0  0  0  0
  1 28  1  0  0  0  0
  1 29  1  0  0  0  0
  1 30  1  0  0  0  0
  4 31  1  0  0  0  0
  6 32  1  0  0  0  0
  7 33  1  0  0  0  0
  9 34  1  0  0  0  0
 10 35  1  0  0  0  0
 14 36  1  0  0  0  0
 16 37  1  0  0  0  0
 17 38  1  0  0  0  0
 18 39  1  0  0  0  0
 21 40  1  0  0  0  0
 22 41  1  0  0  0  0
 23 42  1  0  0  0  0
 24 43  1  0  0  0  0
M  END
$$$$
> 809_AKC_1809-4392202300281

  Mrv0541 11272312353D              38.38000

 30 31  0  0  0  0            999 V2000
    1.5107   -2.8004   -0.5343 C   0  0  0  0  0  0  0  0  0  0  0  0
    2.0597   -3.8422   -1.2955 C   0  0  0  0  0  0  0  0  0  0  0  0
    3.4171   -4.1009   -1.2705 C   0  0  0  0  0  0  0  0  0  0  0  0
    4.2866   -3.3373   -0.4715 C   0  0  0  0  0  0  0  0  0  0  0  0
    3.7545   -2.2624    0.2852 C   0  0  0  0  0  0  0  0  0  0  0  0
    2.3530   -1.9967    0.2765 C   0  0  0  0  0  0  0  0  0  0  0  0
    3.7397   -5.1351   -2.0715 O   0  0  0  0  0  0  0  0  0  0  0  0
    2.4643   -5.4914   -2.6373 C   0  0  2  0  0  0  0  0  0  0  0  0
    1.3953   -4.6924   -2.0990 O   0  0  0  0  0  0  0  0  0  0  0  0
    5.6237   -3.6336   -0.4563 O   0  0  0  0  0  0  0  0  0  0  0  0
    5.9601   -4.6204    0.5343 C   0  0  0  0  0  0  0  0  0  0  0  0
    4.6156   -1.5217    1.0531 O   0  0  0  0  0  0  0  0  0  0  0  0
    5.2391   -0.4442    0.3303 C   0  0  0  0  0  0  0  0  0  0  0  0
    1.7264   -0.9343    1.1156 C   0  0  2  0  0  0  0  0  0  0  0  0
    1.1734    0.1501    0.3162 C   0  0  0  0  0  0  0  0  0  0  0  0
   -0.1343    0.3061    0.0727 C   0  0  0  0  0  0  0  0  0  0  0  0
    0.5026   -2.6406   -0.5662 H   0  0  0  0  0  0  0  0  0  0  0  0
    2.2628   -6.5463   -2.4348 H   0  0  0  0  0  0  0  0  0  0  0  0
    2.5018   -5.3495   -3.7194 H   0  0  0  0  0  0  0  0  0  0  0  0
    7.0291   -4.8229    0.4689 H   0  0  0  0  0  0  0  0  0  0  0  0
    5.7444   -4.2598    1.5434 H   0  0  0  0  0  0  0  0  0  0  0  0
    5.4267   -5.5589    0.3602 H   0  0  0  0  0  0  0  0  0  0  0  0
    5.9288    0.0655    1.0033 H   0  0  0  0  0  0  0  0  0  0  0  0
    5.8153   -0.8113   -0.5229 H   0  0  0  0  0  0  0  0  0  0  0  0
    4.5002    0.2829   -0.0163 H   0  0  0  0  0  0  0  0  0  0  0  0
    2.4460   -0.4987    1.8135 H   0  0  0  0  0  0  0  0  0  0  0  0
    0.9578   -1.4036    1.7399 H   0  0  0  0  0  0  0  0  0  0  0  0
    1.8040    0.8166   -0.0690 H   0  0  0  0  0  0  0  0  0  0  0  0
   -0.8076   -0.3317    0.4302 H   0  0  0  0  0  0  0  0  0  0  0  0
   -0.4497    1.0716   -0.4750 H   0  0  0  0  0  0  0  0  0  0  0  0
  1  2  2  0  0  0  0
  1  6  1  0  0  0  0
  3  4  2  0  0  0  0
  4  5  1  0  0  0  0
  5  6  2  0  0  0  0
  2  9  1  0  0  0  0
  2  3  1  0  0  0  0
  3  7  1  0  0  0  0
  7  8  1  0  0  0  0
  8  9  1  0  0  0  0
  4 10  1  0  0  0  0
 10 11  1  0  0  0  0
  5 12  1  0  0  0  0
 12 13  1  0  0  0  0
  6 14  1  0  0  0  0
 14 15  1  0  0  0  0
 15 16  2  0  0  0  0
  1 17  1  0  0  0  0
  8 18  1  0  0  0  0
  8 19  1  0  0  0  0
 11 20  1  0  0  0  0
 11 21  1  0  0  0  0
 11 22  1  0  0  0  0
 13 23  1  0  0  0  0
 13 24  1  0  0  0  0
 13 25  1  0  0  0  0
 14 26  1  0  0  0  0
 14 27  1  0  0  0  0
 15 28  1  0  0  0  0
 16 29  1  0  0  0  0
 16 30  1  0  0  0  0
M  END
$$$$
> 810_AKC_s11030-022-10548-9

  Mrv0541 11282309093D             108.61000

 55 58  0  0  0  0            999 V2000
   -2.3062    4.5945    7.1059 C   0  0  0  0  0  0  0  0  0  0  0  0
   -1.2430    3.9524    6.4380 C   0  0  0  0  0  0  0  0  0  0  0  0
   -0.4293    4.7484    5.6955 N   0  0  0  0  0  0  0  0  0  0  0  0
   -0.5418    6.0557    5.5987 N   0  0  0  0  0  0  0  0  0  0  0  0
   -1.5809    6.6760    6.2453 C   0  0  0  0  0  0  0  0  0  0  0  0
   -2.4492    5.9358    6.9780 N   0  0  0  0  0  0  0  0  0  0  0  0
    0.4748    6.7631    4.8579 C   0  0  1  0  0  0  0  0  0  0  0  0
    0.0212    7.1803    3.4928 C   0  0  0  0  0  0  0  0  0  0  0  0
    0.2504    6.3883    2.3276 C   0  0  0  0  0  0  0  0  0  0  0  0
   -0.6606    8.4093    3.3447 C   0  0  0  0  0  0  0  0  0  0  0  0
   -1.1206    8.8314    2.0917 C   0  0  0  0  0  0  0  0  0  0  0  0
   -0.9391    8.0122    0.9714 C   0  0  0  0  0  0  0  0  0  0  0  0
   -0.3129    6.7472    1.0665 C   0  0  0  0  0  0  0  0  0  0  0  0
   -0.2881    5.8921   -0.1725 C   0  0  2  0  0  0  0  0  0  0  0  0
   -1.5327    5.2241   -0.4200 N   0  0  0  0  0  0  0  0  0  0  0  0
   -1.3784    3.9937   -0.2490 N   0  0  0  0  0  0  0  0  0  0  0  0
   -0.1407    3.7033   -0.1468 C   0  0  0  0  0  0  0  0  0  0  0  0
    0.6350    4.7914   -0.1521 O   0  0  0  0  0  0  0  0  0  0  0  0
    0.3458    2.4013   -0.0393 C   0  0  0  0  0  0  0  0  0  0  0  0
    1.7400    2.1505   -0.0855 C   0  0  0  0  0  0  0  0  0  0  0  0
    2.2440    0.8395   -0.0043 C   0  0  0  0  0  0  0  0  0  0  0  0
    1.3654   -0.2498    0.1205 C   0  0  0  0  0  0  0  0  0  0  0  0
   -0.0227   -0.0259    0.1710 C   0  0  0  0  0  0  0  0  0  0  0  0
   -0.5252    1.2880    0.0953 C   0  0  0  0  0  0  0  0  0  0  0  0
   -2.7156    5.7551   -0.8843 C   0  0  0  0  0  0  0  0  0  0  0  0
   -2.7904    6.9590   -1.2211 O   0  0  0  0  0  0  0  0  0  0  0  0
   -3.9485    4.9487   -1.0310 C   0  0  0  0  0  0  0  0  0  0  0  0
    1.0767    5.3018    2.4212 O   0  0  0  0  0  0  0  0  0  0  0  0
    2.4480    5.3789    2.3499 C   0  0  0  0  0  0  0  0  0  0  0  0
    3.0345    6.4666    2.1293 O   0  0  0  0  0  0  0  0  0  0  0  0
    3.2764    4.1773    2.5203 C   0  0  0  0  0  0  0  0  0  0  0  0
   -1.7674    7.9135    6.2286 O   0  0  0  0  0  0  0  0  0  0  0  0
   -3.1220    3.9662    7.8188 O   0  0  0  0  0  0  0  0  0  0  0  0
   -0.9972    2.4974    6.5170 C   0  0  0  0  0  0  0  0  0  0  0  0
   -1.0871   -1.3354    0.3133 Cl  0  0  0  0  0  0  0  0  0  0  0  0
   -3.1834    6.3796    7.4324 H   0  0  0  0  0  0  0  0  0  0  0  0
    0.8073    7.6297    5.4375 H   0  0  0  0  0  0  0  0  0  0  0  0
    1.3672    6.1394    4.7740 H   0  0  0  0  0  0  0  0  0  0  0  0
   -0.8226    9.0215    4.1454 H   0  0  0  0  0  0  0  0  0  0  0  0
   -1.5956    9.7332    1.9960 H   0  0  0  0  0  0  0  0  0  0  0  0
   -1.2690    8.3651    0.0738 H   0  0  0  0  0  0  0  0  0  0  0  0
   -0.0078    6.5062   -1.0354 H   0  0  0  0  0  0  0  0  0  0  0  0
    2.4074    2.9195   -0.1866 H   0  0  0  0  0  0  0  0  0  0  0  0
    3.2519    0.6776   -0.0379 H   0  0  0  0  0  0  0  0  0  0  0  0
    1.7416   -1.1997    0.1740 H   0  0  0  0  0  0  0  0  0  0  0  0
   -1.5392    1.4245    0.1372 H   0  0  0  0  0  0  0  0  0  0  0  0
   -4.8099    5.5800   -1.2664 H   0  0  0  0  0  0  0  0  0  0  0  0
   -4.1609    4.4198   -0.0992 H   0  0  0  0  0  0  0  0  0  0  0  0
   -3.8220    4.2236   -1.8368 H   0  0  0  0  0  0  0  0  0  0  0  0
    3.8723    4.0140    1.6204 H   0  0  0  0  0  0  0  0  0  0  0  0
    3.9508    4.3050    3.3689 H   0  0  0  0  0  0  0  0  0  0  0  0
    2.6550    3.2977    2.6958 H   0  0  0  0  0  0  0  0  0  0  0  0
   -0.1352    2.2091    5.9111 H   0  0  0  0  0  0  0  0  0  0  0  0
   -1.8703    1.9500    6.1571 H   0  0  0  0  0  0  0  0  0  0  0  0
   -0.8017    2.2109    7.5523 H   0  0  0  0  0  0  0  0  0  0  0  0
  1  2  1  0  0  0  0
  1  6  1  0  0  0  0
  2  3  2  0  0  0  0
  3  4  1  0  0  0  0
  4  5  1  0  0  0  0
  5  6  1  0  0  0  0
  4  7  1  0  0  0  0
  7  8  1  0  0  0  0
  9  8  1  0  0  0  0
  8 10  2  0  0  0  0
  9 13  2  0  0  0  0
 10 11  1  0  0  0  0
 11 12  2  0  0  0  0
 12 13  1  0  0  0  0
 14 13  1  0  0  0  0
 14 15  1  0  0  0  0
 14 18  1  0  0  0  0
 15 16  1  0  0  0  0
 16 17  2  0  0  0  0
 17 18  1  0  0  0  0
 17 19  1  0  0  0  0
 19 20  1  0  0  0  0
 19 24  2  0  0  0  0
 20 21  2  0  0  0  0
 21 22  1  0  0  0  0
 22 23  2  0  0  0  0
 23 24  1  0  0  0  0
 15 25  1  0  0  0  0
 25 26  2  0  0  0  0
 25 27  1  0  0  0  0
  9 28  1  0  0  0  0
 28 29  1  0  0  0  0
 29 30  2  0  0  0  0
 29 31  1  0  0  0  0
  5 32  2  0  0  0  0
  1 33  2  0  0  0  0
  2 34  1  0  0  0  0
 23 35  1  0  0  0  0
  6 36  1  0  0  0  0
  7 37  1  0  0  0  0
  7 38  1  0  0  0  0
 10 39  1  0  0  0  0
 11 40  1  0  0  0  0
 12 41  1  0  0  0  0
 14 42  1  0  0  0  0
 20 43  1  0  0  0  0
 21 44  1  0  0  0  0
 22 45  1  0  0  0  0
 24 46  1  0  0  0  0
 27 47  1  0  0  0  0
 27 48  1  0  0  0  0
 27 49  1  0  0  0  0
 31 50  1  0  0  0  0
 31 51  1  0  0  0  0
 31 52  1  0  0  0  0
 34 53  1  0  0  0  0
 34 54  1  0  0  0  0
 34 55  1  0  0  0  0
M  END
$$$$
> 811_AKC_s11030-022-10548-9

  Mrv0541 11282309083D             102.33000

 55 58  0  0  0  0            999 V2000
   -5.0914   10.3856   -2.8659 C   0  0  0  0  0  0  0  0  0  0  0  0
   -4.4362   10.7172   -1.6621 C   0  0  0  0  0  0  0  0  0  0  0  0
   -3.0827   10.7895   -1.7127 N   0  0  0  0  0  0  0  0  0  0  0  0
   -2.3589   10.4848   -2.7647 N   0  0  0  0  0  0  0  0  0  0  0  0
   -2.9944   10.2182   -3.9518 C   0  0  0  0  0  0  0  0  0  0  0  0
   -4.3500   10.1670   -3.9802 N   0  0  0  0  0  0  0  0  0  0  0  0
   -0.9330   10.3783   -2.5885 C   0  0  1  0  0  0  0  0  0  0  0  0
   -0.5454    8.9362   -2.5740 C   0  0  0  0  0  0  0  0  0  0  0  0
   -0.7708    8.1062   -1.4376 C   0  0  0  0  0  0  0  0  0  0  0  0
    0.0081    8.3707   -3.7443 C   0  0  0  0  0  0  0  0  0  0  0  0
    0.2662    6.9962   -3.8184 C   0  0  0  0  0  0  0  0  0  0  0  0
   -0.0442    6.1659   -2.7321 C   0  0  0  0  0  0  0  0  0  0  0  0
   -0.5830    6.6930   -1.5335 C   0  0  0  0  0  0  0  0  0  0  0  0
   -0.9782    5.7238   -0.4576 C   0  0  1  0  0  0  0  0  0  0  0  0
   -2.0633    4.8688   -0.8053 N   0  0  0  0  0  0  0  0  0  0  0  0
   -1.6790    3.6759   -0.7521 N   0  0  0  0  0  0  0  0  0  0  0  0
   -0.4624    3.5986   -0.3677 C   0  0  0  0  0  0  0  0  0  0  0  0
    0.0786    4.8024   -0.1465 O   0  0  0  0  0  0  0  0  0  0  0  0
    0.2325    2.3990   -0.1977 C   0  0  0  0  0  0  0  0  0  0  0  0
    1.5985    2.4033    0.1837 C   0  0  0  0  0  0  0  0  0  0  0  0
    2.2982    1.2000    0.3892 C   0  0  0  0  0  0  0  0  0  0  0  0
    1.6485   -0.0328    0.2160 C   0  0  0  0  0  0  0  0  0  0  0  0
    0.2971   -0.0642   -0.1712 C   0  0  0  0  0  0  0  0  0  0  0  0
   -0.3995    1.1417   -0.3853 C   0  0  0  0  0  0  0  0  0  0  0  0
   -3.3534    5.2566   -1.0751 C   0  0  0  0  0  0  0  0  0  0  0  0
   -3.6474    6.4765   -1.0857 O   0  0  0  0  0  0  0  0  0  0  0  0
   -4.4357    4.2810   -1.3352 C   0  0  0  0  0  0  0  0  0  0  0  0
   -1.1885    8.7438   -0.2940 O   0  0  0  0  0  0  0  0  0  0  0  0
   -0.6576    8.7090    0.9678 C   0  0  0  0  0  0  0  0  0  0  0  0
    0.3683    8.0413    1.2365 O   0  0  0  0  0  0  0  0  0  0  0  0
   -1.2826    9.5045    2.0326 C   0  0  0  0  0  0  0  0  0  0  0  0
   -2.3811    9.9822   -5.0186 O   0  0  0  0  0  0  0  0  0  0  0  0
   -6.3373   10.2924   -2.9436 O   0  0  0  0  0  0  0  0  0  0  0  0
   -5.1362   10.9910   -0.3941 C   0  0  0  0  0  0  0  0  0  0  0  0
   -0.4904   -1.5491   -0.3715 Cl  0  0  0  0  0  0  0  0  0  0  0  0
   -4.7975    9.9552   -4.8160 H   0  0  0  0  0  0  0  0  0  0  0  0
   -0.4313   10.9296   -3.3897 H   0  0  0  0  0  0  0  0  0  0  0  0
   -0.6045   10.8505   -1.6573 H   0  0  0  0  0  0  0  0  0  0  0  0
    0.2046    8.9511   -4.5661 H   0  0  0  0  0  0  0  0  0  0  0  0
    0.6627    6.5977   -4.6731 H   0  0  0  0  0  0  0  0  0  0  0  0
    0.1256    5.1618   -2.8310 H   0  0  0  0  0  0  0  0  0  0  0  0
   -1.2604    6.2227    0.4668 H   0  0  0  0  0  0  0  0  0  0  0  0
    2.1031    3.2834    0.3197 H   0  0  0  0  0  0  0  0  0  0  0  0
    3.2810    1.2206    0.6689 H   0  0  0  0  0  0  0  0  0  0  0  0
    2.1630   -0.9017    0.3744 H   0  0  0  0  0  0  0  0  0  0  0  0
   -1.3796    1.0929   -0.6766 H   0  0  0  0  0  0  0  0  0  0  0  0
   -5.3801    4.7858   -1.5501 H   0  0  0  0  0  0  0  0  0  0  0  0
   -4.5788    3.6472   -0.4570 H   0  0  0  0  0  0  0  0  0  0  0  0
   -4.1778    3.6541   -2.1912 H   0  0  0  0  0  0  0  0  0  0  0  0
   -0.5295   10.1108    2.5361 H   0  0  0  0  0  0  0  0  0  0  0  0
   -2.0439   10.1689    1.6233 H   0  0  0  0  0  0  0  0  0  0  0  0
   -1.7511    8.8368    2.7564 H   0  0  0  0  0  0  0  0  0  0  0  0
   -4.4236   11.1995    0.4070 H   0  0  0  0  0  0  0  0  0  0  0  0
   -5.7277   10.1190   -0.1107 H   0  0  0  0  0  0  0  0  0  0  0  0
   -5.7949   11.8530   -0.5100 H   0  0  0  0  0  0  0  0  0  0  0  0
  1  2  1  0  0  0  0
  1  6  1  0  0  0  0
  2  3  2  0  0  0  0
  3  4  1  0  0  0  0
  4  5  1  0  0  0  0
  5  6  1  0  0  0  0
  4  7  1  0  0  0  0
  7  8  1  0  0  0  0
  9  8  1  0  0  0  0
  8 10  2  0  0  0  0
  9 13  2  0  0  0  0
 10 11  1  0  0  0  0
 11 12  2  0  0  0  0
 12 13  1  0  0  0  0
 14 13  1  0  0  0  0
 14 15  1  0  0  0  0
 14 18  1  0  0  0  0
 15 16  1  0  0  0  0
 16 17  2  0  0  0  0
 17 18  1  0  0  0  0
 17 19  1  0  0  0  0
 19 20  1  0  0  0  0
 19 24  2  0  0  0  0
 20 21  2  0  0  0  0
 21 22  1  0  0  0  0
 22 23  2  0  0  0  0
 23 24  1  0  0  0  0
 15 25  1  0  0  0  0
 25 26  2  0  0  0  0
 25 27  1  0  0  0  0
  9 28  1  0  0  0  0
 28 29  1  0  0  0  0
 29 30  2  0  0  0  0
 29 31  1  0  0  0  0
  5 32  2  0  0  0  0
  1 33  2  0  0  0  0
  2 34  1  0  0  0  0
 23 35  1  0  0  0  0
  6 36  1  0  0  0  0
  7 37  1  0  0  0  0
  7 38  1  0  0  0  0
 10 39  1  0  0  0  0
 11 40  1  0  0  0  0
 12 41  1  0  0  0  0
 14 42  1  0  0  0  0
 20 43  1  0  0  0  0
 21 44  1  0  0  0  0
 22 45  1  0  0  0  0
 24 46  1  0  0  0  0
 27 47  1  0  0  0  0
 27 48  1  0  0  0  0
 27 49  1  0  0  0  0
 31 50  1  0  0  0  0
 31 51  1  0  0  0  0
 31 52  1  0  0  0  0
 34 53  1  0  0  0  0
 34 54  1  0  0  0  0
 34 55  1  0  0  0  0
M  END
$$$$
> 812_AKC_mp100035f

  Mrv0541 11282309333D             256.90000

161163  0  0  0  0            999 V2000
   -1.2341    2.3740   -1.5039 C   0  0  0  0  0  0  0  0  0  0  0  0
    0.0012    2.1888   -1.4054 O   0  0  0  0  0  0  0  0  0  0  0  0
   -1.8338    2.2429   -2.7254 N   0  0  0  0  0  0  0  0  0  0  0  0
   -1.1569    1.8781   -3.9425 C   0  0  1  0  0  0  0  0  0  0  0  0
   -2.1856    1.3478   -4.9899 C   0  0  1  0  0  0  0  0  0  0  0  0
   -0.2413    2.9466   -4.4469 C   0  0  0  0  0  0  0  0  0  0  0  0
    0.2989    2.7803   -5.5639 O   0  0  0  0  0  0  0  0  0  0  0  0
    0.0862    3.9925   -3.6288 N   0  0  0  0  0  0  0  0  0  0  0  0
    1.2346    4.8495   -3.5960 C   0  0  2  0  0  0  0  0  0  0  0  0
    0.7568    6.1964   -3.2160 C   0  0  0  0  0  0  0  0  0  0  0  0
    0.0239    6.8315   -4.0130 O   0  0  0  0  0  0  0  0  0  0  0  0
    1.1360    6.7351   -2.0159 O   0  0  0  0  0  0  0  0  0  0  0  0
    2.2142    4.9154   -4.8129 C   0  0  1  0  0  0  0  0  0  0  0  0
    3.5289    5.4832   -4.3992 C   0  0  0  0  0  0  0  0  0  0  0  0
    3.7326    6.8817   -4.3285 C   0  0  0  0  0  0  0  0  0  0  0  0
    4.5792    4.6219   -4.0020 C   0  0  0  0  0  0  0  0  0  0  0  0
    5.8052    5.1437   -3.5524 C   0  0  0  0  0  0  0  0  0  0  0  0
    5.9944    6.5351   -3.4867 C   0  0  0  0  0  0  0  0  0  0  0  0
    4.9557    7.4035   -3.8662 C   0  0  0  0  0  0  0  0  0  0  0  0
    0.7792    8.0214   -1.4895 C   0  0  2  0  0  0  0  0  0  0  0  0
    0.0140    7.8876   -0.1471 C   0  0  1  0  0  0  0  0  0  0  0  0
    0.5253    7.0318    0.9775 C   0  0  0  0  0  0  0  0  0  0  0  0
   -0.2324    9.2053    0.3656 N   0  0  0  0  0  0  0  0  0  0  0  0
   -1.4539    9.7826    0.5696 C   0  0  0  0  0  0  0  0  0  0  0  0
   -2.5045    9.1191    0.4065 O   0  0  0  0  0  0  0  0  0  0  0  0
   -1.5598   11.2050    1.0075 C   0  0  2  0  0  0  0  0  0  0  0  0
   -2.4153   11.3661    2.3254 C   0  0  1  0  0  0  0  0  0  0  0  0
   -1.9740   12.1070   -0.1286 N   0  0  1  0  0  0  0  0  0  0  0  0
   -3.2881   11.8422   -0.7923 C   0  0  0  0  0  0  0  0  0  0  0  0
   -1.7232   13.5609    0.1098 C   0  0  0  0  0  0  0  0  0  0  0  0
   -1.7670   11.9411    3.6459 C   0  0  1  0  0  0  0  0  0  0  0  0
   -2.3194   11.1957    4.8998 C   0  0  0  0  0  0  0  0  0  0  0  0
   -0.2140   11.9968    3.7173 C   0  0  0  0  0  0  0  0  0  0  0  0
   -0.3098    6.1996    1.4056 O   0  0  0  0  0  0  0  0  0  0  0  0
    1.7169    7.1251    1.6965 N   0  0  0  0  0  0  0  0  0  0  0  0
    1.6369    7.1304    3.1524 C   0  0  0  0  0  0  0  0  0  0  0  0
    3.0270    7.1087    1.0457 C   0  0  1  0  0  0  0  0  0  0  0  0
    4.1048    8.0656    1.6720 C   0  0  1  0  0  0  0  0  0  0  0  0
    3.8403    9.6117    1.6085 C   0  0  2  0  0  0  0  0  0  0  0  0
    4.1345   10.2243    0.2083 C   0  0  0  0  0  0  0  0  0  0  0  0
    4.6923   10.3529    2.6821 C   0  0  0  0  0  0  0  0  0  0  0  0
    3.5111    5.7008    0.8038 C   0  0  0  0  0  0  0  0  0  0  0  0
    3.7353    5.3025   -0.4672 C   0  0  0  0  0  0  0  0  0  0  0  0
    3.8069    4.7890    1.7986 N   0  0  0  0  0  0  0  0  0  0  0  0
    4.9063    5.1008    2.6974 C   0  0  0  0  0  0  0  0  0  0  0  0
    3.1978    3.4313    1.8465 C   0  0  1  0  0  0  0  0  0  0  0  0
    3.6674    2.4649    3.0071 C   0  0  1  0  0  0  0  0  0  0  0  0
    1.7090    3.3889    1.8610 C   0  0  0  0  0  0  0  0  0  0  0  0
    3.0222    1.1146    3.0434 C   0  0  0  0  0  0  0  0  0  0  0  0
    2.1410    0.7540    4.0925 C   0  0  0  0  0  0  0  0  0  0  0  0
    1.4903   -0.4931    4.0884 C   0  0  0  0  0  0  0  0  0  0  0  0
    1.7153   -1.4020    3.0394 C   0  0  0  0  0  0  0  0  0  0  0  0
    2.5988   -1.0666    1.9985 C   0  0  0  0  0  0  0  0  0  0  0  0
    3.2520    0.1795    2.0041 C   0  0  0  0  0  0  0  0  0  0  0  0
    1.0757    4.0832    2.6886 O   0  0  0  0  0  0  0  0  0  0  0  0
    1.0859    2.3974    1.1350 O   0  0  0  0  0  0  0  0  0  0  0  0
   -0.1937    1.7738    1.3874 C   0  0  1  0  0  0  0  0  0  0  0  0
   -1.4233    2.6750    1.1151 C   0  0  1  0  0  0  0  0  0  0  0  0
   -2.0578    2.7373   -0.3265 C   0  0  1  0  0  0  0  0  0  0  0  0
   -2.4976    4.0963   -0.4446 N   0  0  0  0  0  0  0  0  0  0  0  0
   -3.1255    0.1830   -4.5135 C   0  0  2  0  0  0  0  0  0  0  0  0
   -2.3844   -1.0095   -3.8390 C   0  0  0  0  0  0  0  0  0  0  0  0
   -3.9989   -0.3376   -5.6907 C   0  0  0  0  0  0  0  0  0  0  0  0
   -3.7542    4.5304   -0.1750 C   0  0  0  0  0  0  0  0  0  0  0  0
   -4.7535    3.8067   -0.3959 O   0  0  0  0  0  0  0  0  0  0  0  0
   -3.9087    5.8058    0.5805 C   0  0  1  0  0  0  0  0  0  0  0  0
   -4.7442    6.8510   -0.1131 N   0  0  2  0  0  0  0  0  0  0  0  0
   -6.2258    6.6755   -0.0981 C   0  0  0  0  0  0  0  0  0  0  0  0
   -4.2501    7.2230   -1.4745 C   0  0  0  0  0  0  0  0  0  0  0  0
   -4.3253    5.4200    2.0459 C   0  0  1  0  0  0  0  0  0  0  0  0
   -4.2859    6.5410    3.1395 C   0  0  2  0  0  0  0  0  0  0  0  0
   -2.8421    6.9875    3.5121 C   0  0  0  0  0  0  0  0  0  0  0  0
   -5.0240    6.0742    4.4293 C   0  0  0  0  0  0  0  0  0  0  0  0
   -2.7877    2.4126   -2.7758 H   0  0  0  0  0  0  0  0  0  0  0  0
   -0.4954    1.0366   -3.7194 H   0  0  0  0  0  0  0  0  0  0  0  0
   -2.8091    2.1891   -5.3076 H   0  0  0  0  0  0  0  0  0  0  0  0
   -1.6324    1.0029   -5.8691 H   0  0  0  0  0  0  0  0  0  0  0  0
   -0.5034    4.1148   -2.8697 H   0  0  0  0  0  0  0  0  0  0  0  0
    1.8056    4.4494   -2.7496 H   0  0  0  0  0  0  0  0  0  0  0  0
    2.3929    3.9159   -5.2065 H   0  0  0  0  0  0  0  0  0  0  0  0
    1.7846    5.4965   -5.6346 H   0  0  0  0  0  0  0  0  0  0  0  0
    2.9890    7.5293   -4.6002 H   0  0  0  0  0  0  0  0  0  0  0  0
    4.4535    3.6060   -4.0230 H   0  0  0  0  0  0  0  0  0  0  0  0
    6.5547    4.5103   -3.2665 H   0  0  0  0  0  0  0  0  0  0  0  0
    6.8863    6.9146   -3.1614 H   0  0  0  0  0  0  0  0  0  0  0  0
    5.0875    8.4150   -3.8025 H   0  0  0  0  0  0  0  0  0  0  0  0
    0.1392    8.5650   -2.1925 H   0  0  0  0  0  0  0  0  0  0  0  0
    1.6741    8.6266   -1.3913 H   0  0  0  0  0  0  0  0  0  0  0  0
   -0.9309    7.4407   -0.4728 H   0  0  0  0  0  0  0  0  0  0  0  0
    0.5456    9.7502    0.5590 H   0  0  0  0  0  0  0  0  0  0  0  0
   -0.5343   11.4955    1.2135 H   0  0  0  0  0  0  0  0  0  0  0  0
   -3.2648   12.0121    2.0968 H   0  0  0  0  0  0  0  0  0  0  0  0
   -2.8730   10.4023    2.5594 H   0  0  0  0  0  0  0  0  0  0  0  0
   -3.4546   12.5462   -1.6088 H   0  0  0  0  0  0  0  0  0  0  0  0
   -4.1198   11.9275   -0.0923 H   0  0  0  0  0  0  0  0  0  0  0  0
   -3.3082   10.8494   -1.2392 H   0  0  0  0  0  0  0  0  0  0  0  0
   -1.8518   14.1288   -0.8114 H   0  0  0  0  0  0  0  0  0  0  0  0
   -0.6980   13.7274    0.4366 H   0  0  0  0  0  0  0  0  0  0  0  0
   -2.3999   13.9626    0.8642 H   0  0  0  0  0  0  0  0  0  0  0  0
   -2.0946   12.9826    3.7425 H   0  0  0  0  0  0  0  0  0  0  0  0
   -1.8993   11.6037    5.8222 H   0  0  0  0  0  0  0  0  0  0  0  0
   -3.4060   11.3009    4.9540 H   0  0  0  0  0  0  0  0  0  0  0  0
   -2.0697   10.1319    4.8482 H   0  0  0  0  0  0  0  0  0  0  0  0
    0.1158   12.3666    4.6929 H   0  0  0  0  0  0  0  0  0  0  0  0
    0.1763   12.6921    2.9715 H   0  0  0  0  0  0  0  0  0  0  0  0
    0.2128   11.0059    3.5461 H   0  0  0  0  0  0  0  0  0  0  0  0
    2.2221    6.3161    3.5806 H   0  0  0  0  0  0  0  0  0  0  0  0
    0.6191    7.0395    3.5416 H   0  0  0  0  0  0  0  0  0  0  0  0
    2.0198    8.0734    3.5470 H   0  0  0  0  0  0  0  0  0  0  0  0
    2.8970    7.5743    0.0792 H   0  0  0  0  0  0  0  0  0  0  0  0
    4.2209    7.7911    2.7197 H   0  0  0  0  0  0  0  0  0  0  0  0
    5.0679    7.8770    1.1849 H   0  0  0  0  0  0  0  0  0  0  0  0
    2.7875    9.8020    1.8425 H   0  0  0  0  0  0  0  0  0  0  0  0
    4.0118   11.3096    0.2316 H   0  0  0  0  0  0  0  0  0  0  0  0
    3.4534    9.8298   -0.5396 H   0  0  0  0  0  0  0  0  0  0  0  0
    5.1537   10.0001   -0.1100 H   0  0  0  0  0  0  0  0  0  0  0  0
    4.5259   11.4313    2.6339 H   0  0  0  0  0  0  0  0  0  0  0  0
    4.4192   10.0169    3.6846 H   0  0  0  0  0  0  0  0  0  0  0  0
    5.7565   10.1560    2.5313 H   0  0  0  0  0  0  0  0  0  0  0  0
    4.0963    4.4042   -0.6794 H   0  0  0  0  0  0  0  0  0  0  0  0
    3.5625    5.9003   -1.2382 H   0  0  0  0  0  0  0  0  0  0  0  0
    4.5262    5.2875    3.7037 H   0  0  0  0  0  0  0  0  0  0  0  0
    5.5120    5.9487    2.3894 H   0  0  0  0  0  0  0  0  0  0  0  0
    5.6283    4.2879    2.7372 H   0  0  0  0  0  0  0  0  0  0  0  0
    3.5167    2.9220    0.9343 H   0  0  0  0  0  0  0  0  0  0  0  0
    4.7378    2.2716    2.9192 H   0  0  0  0  0  0  0  0  0  0  0  0
    3.5152    2.9768    3.9621 H   0  0  0  0  0  0  0  0  0  0  0  0
    1.9524    1.4034    4.8599 H   0  0  0  0  0  0  0  0  0  0  0  0
    0.8461   -0.7354    4.8439 H   0  0  0  0  0  0  0  0  0  0  0  0
    1.2361   -2.3050    3.0335 H   0  0  0  0  0  0  0  0  0  0  0  0
    2.7617   -1.7285    1.2356 H   0  0  0  0  0  0  0  0  0  0  0  0
    3.8916    0.4052    1.2383 H   0  0  0  0  0  0  0  0  0  0  0  0
   -0.2657    0.8590    0.7949 H   0  0  0  0  0  0  0  0  0  0  0  0
   -0.2092    1.4652    2.4359 H   0  0  0  0  0  0  0  0  0  0  0  0
   -2.2173    2.3436    1.7929 H   0  0  0  0  0  0  0  0  0  0  0  0
   -1.1484    3.6720    1.4660 H   0  0  0  0  0  0  0  0  0  0  0  0
   -2.9050    2.0412   -0.3358 H   0  0  0  0  0  0  0  0  0  0  0  0
   -1.8047    4.7705   -0.5310 H   0  0  0  0  0  0  0  0  0  0  0  0
   -3.8133    0.5952   -3.7688 H   0  0  0  0  0  0  0  0  0  0  0  0
   -3.0813   -1.8227   -3.6229 H   0  0  0  0  0  0  0  0  0  0  0  0
   -1.9447   -0.7006   -2.8886 H   0  0  0  0  0  0  0  0  0  0  0  0
   -1.5933   -1.3916   -4.4882 H   0  0  0  0  0  0  0  0  0  0  0  0
   -4.7167   -1.0797   -5.3338 H   0  0  0  0  0  0  0  0  0  0  0  0
   -4.5600    0.4821   -6.1433 H   0  0  0  0  0  0  0  0  0  0  0  0
   -3.3749   -0.8012   -6.4585 H   0  0  0  0  0  0  0  0  0  0  0  0
   -2.9162    6.2493    0.6843 H   0  0  0  0  0  0  0  0  0  0  0  0
   -6.6036    6.5977    0.9203 H   0  0  0  0  0  0  0  0  0  0  0  0
   -6.7115    7.5450   -0.5460 H   0  0  0  0  0  0  0  0  0  0  0  0
   -6.5254    5.7864   -0.6556 H   0  0  0  0  0  0  0  0  0  0  0  0
   -4.6801    8.1775   -1.7826 H   0  0  0  0  0  0  0  0  0  0  0  0
   -3.1690    7.3437   -1.4877 H   0  0  0  0  0  0  0  0  0  0  0  0
   -4.5130    6.4606   -2.2108 H   0  0  0  0  0  0  0  0  0  0  0  0
   -5.3293    4.9911    2.0090 H   0  0  0  0  0  0  0  0  0  0  0  0
   -3.6761    4.6091    2.3958 H   0  0  0  0  0  0  0  0  0  0  0  0
   -4.8177    7.4177    2.7620 H   0  0  0  0  0  0  0  0  0  0  0  0
   -2.8506    7.6306    4.3952 H   0  0  0  0  0  0  0  0  0  0  0  0
   -2.3914    7.5520    2.6985 H   0  0  0  0  0  0  0  0  0  0  0  0
   -2.2103    6.1233    3.7229 H   0  0  0  0  0  0  0  0  0  0  0  0
   -5.1038    6.8944    5.1434 H   0  0  0  0  0  0  0  0  0  0  0  0
   -6.0397    5.7465    4.2068 H   0  0  0  0  0  0  0  0  0  0  0  0
   -4.4879    5.2484    4.9027 H   0  0  0  0  0  0  0  0  0  0  0  0
  1  2  2  0  0  0  0
  1  3  1  0  0  0  0
  3  4  1  0  0  0  0
  4  5  1  0  0  0  0
  4  6  1  0  0  0  0
  6  7  2  0  0  0  0
  6  8  1  0  0  0  0
  8  9  1  0  0  0  0
  9 10  1  0  0  0  0
 10 11  2  0  0  0  0
 10 12  1  0  0  0  0
  9 13  1  0  0  0  0
 13 14  1  0  0  0  0
 15 14  1  0  0  0  0
 14 16  2  0  0  0  0
 15 19  2  0  0  0  0
 16 17  1  0  0  0  0
 17 18  2  0  0  0  0
 18 19  1  0  0  0  0
 12 20  1  0  0  0  0
 21 20  1  0  0  0  0
 21 22  1  0  0  0  0
 21 23  1  0  0  0  0
 23 24  1  0  0  0  0
 24 25  2  0  0  0  0
 24 26  1  0  0  0  0
 26 27  1  0  0  0  0
 26 28  1  0  0  0  0
 28 29  1  0  0  0  0
 28 30  1  0  0  0  0
 27 31  1  0  0  0  0
 31 32  1  0  0  0  0
 31 33  1  0  0  0  0
 22 34  2  0  0  0  0
 22 35  1  0  0  0  0
 35 36  1  0  0  0  0
 35 37  1  0  0  0  0
 37 38  1  0  0  0  0
 38 39  1  0  0  0  0
 39 40  1  0  0  0  0
 39 41  1  0  0  0  0
 37 42  1  0  0  0  0
 42 43  2  0  0  0  0
 42 44  1  0  0  0  0
 44 45  1  0  0  0  0
 44 46  1  0  0  0  0
 46 47  1  0  0  0  0
 46 48  1  0  0  0  0
 47 49  1  0  0  0  0
 54 49  1  0  0  0  0
 50 49  2  0  0  0  0
 50 51  1  0  0  0  0
 51 52  2  0  0  0  0
 52 53  1  0  0  0  0
 53 54  2  0  0  0  0
 48 55  2  0  0  0  0
 48 56  1  0  0  0  0
 56 57  1  0  0  0  0
 57 58  1  0  0  0  0
 59 58  1  0  0  0  0
 59  1  1  0  0  0  0
 59 60  1  0  0  0  0
  5 61  1  0  0  0  0
 61 62  1  0  0  0  0
 61 63  1  0  0  0  0
 60 64  1  0  0  0  0
 64 65  2  0  0  0  0
 64 66  1  0  0  0  0
 66 67  1  0  0  0  0
 67 68  1  0  0  0  0
 67 69  1  0  0  0  0
 66 70  1  0  0  0  0
 70 71  1  0  0  0  0
 71 72  1  0  0  0  0
 71 73  1  0  0  0  0
  3 74  1  0  0  0  0
  4 75  1  0  0  0  0
  5 76  1  0  0  0  0
  5 77  1  0  0  0  0
  8 78  1  0  0  0  0
  9 79  1  0  0  0  0
 13 80  1  0  0  0  0
 13 81  1  0  0  0  0
 15 82  1  0  0  0  0
 16 83  1  0  0  0  0
 17 84  1  0  0  0  0
 18 85  1  0  0  0  0
 19 86  1  0  0  0  0
 20 87  1  0  0  0  0
 20 88  1  0  0  0  0
 21 89  1  0  0  0  0
 23 90  1  0  0  0  0
 26 91  1  0  0  0  0
 27 92  1  0  0  0  0
 27 93  1  0  0  0  0
 29 94  1  0  0  0  0
 29 95  1  0  0  0  0
 29 96  1  0  0  0  0
 30 97  1  0  0  0  0
 30 98  1  0  0  0  0
 30 99  1  0  0  0  0
 31100  1  0  0  0  0
 32101  1  0  0  0  0
 32102  1  0  0  0  0
 32103  1  0  0  0  0
 33104  1  0  0  0  0
 33105  1  0  0  0  0
 33106  1  0  0  0  0
 36107  1  0  0  0  0
 36108  1  0  0  0  0
 36109  1  0  0  0  0
 37110  1  0  0  0  0
 38111  1  0  0  0  0
 38112  1  0  0  0  0
 39113  1  0  0  0  0
 40114  1  0  0  0  0
 40115  1  0  0  0  0
 40116  1  0  0  0  0
 41117  1  0  0  0  0
 41118  1  0  0  0  0
 41119  1  0  0  0  0
 43120  1  0  0  0  0
 43121  1  0  0  0  0
 45122  1  0  0  0  0
 45123  1  0  0  0  0
 45124  1  0  0  0  0
 46125  1  0  0  0  0
 47126  1  0  0  0  0
 47127  1  0  0  0  0
 50128  1  0  0  0  0
 51129  1  0  0  0  0
 52130  1  0  0  0  0
 53131  1  0  0  0  0
 54132  1  0  0  0  0
 57133  1  0  0  0  0
 57134  1  0  0  0  0
 58135  1  0  0  0  0
 58136  1  0  0  0  0
 59137  1  0  0  0  0
 60138  1  0  0  0  0
 61139  1  0  0  0  0
 62140  1  0  0  0  0
 62141  1  0  0  0  0
 62142  1  0  0  0  0
 63143  1  0  0  0  0
 63144  1  0  0  0  0
 63145  1  0  0  0  0
 66146  1  0  0  0  0
 68147  1  0  0  0  0
 68148  1  0  0  0  0
 68149  1  0  0  0  0
 69150  1  0  0  0  0
 69151  1  0  0  0  0
 69152  1  0  0  0  0
 70153  1  0  0  0  0
 70154  1  0  0  0  0
 71155  1  0  0  0  0
 72156  1  0  0  0  0
 72157  1  0  0  0  0
 72158  1  0  0  0  0
 73159  1  0  0  0  0
 73160  1  0  0  0  0
 73161  1  0  0  0  0
M  END
$$$$
> 813_AKC_ardp.202300440

  Mrv0541 12072315403D             154.76000

 65 68  0  0  0  0            999 V2000
   -0.6141   -9.6110   -1.1980 O   0  0  0  0  0  0  0  0  0  0  0  0
   -0.8823   -8.0320   -1.1005 S   0  0  2  0  0  0  0  0  0  0  0  0
    0.0307   -7.3385    0.2526 C   0  0  0  0  0  0  0  0  0  0  0  0
    1.0744   -6.4134    0.0460 C   0  0  0  0  0  0  0  0  0  0  0  0
    1.6680   -5.7601    1.1429 C   0  0  0  0  0  0  0  0  0  0  0  0
    1.2218   -6.0188    2.4606 C   0  0  0  0  0  0  0  0  0  0  0  0
    1.7481   -5.2995    3.5627 C   0  0  0  0  0  0  0  0  0  0  0  0
    0.8858   -4.5507    4.4014 C   0  0  0  0  0  0  0  0  0  0  0  0
    1.4026   -3.8224    5.4888 C   0  0  0  0  0  0  0  0  0  0  0  0
    2.7831   -3.8407    5.7560 C   0  0  0  0  0  0  0  0  0  0  0  0
    3.6479   -4.5871    4.9348 C   0  0  0  0  0  0  0  0  0  0  0  0
    3.1352   -5.3091    3.8405 C   0  0  0  0  0  0  0  0  0  0  0  0
    0.2122   -6.9877    2.6613 C   0  0  0  0  0  0  0  0  0  0  0  0
   -0.3667   -7.6514    1.5674 C   0  0  0  0  0  0  0  0  0  0  0  0
   -2.5662   -7.8100   -0.8194 N   0  0  0  0  0  0  0  0  0  0  0  0
   -3.1133   -6.7814   -0.1154 C   0  0  0  0  0  0  0  0  0  0  0  0
   -4.2551   -7.0477    0.6679 C   0  0  0  0  0  0  0  0  0  0  0  0
   -4.8724   -6.0429    1.4372 C   0  0  0  0  0  0  0  0  0  0  0  0
   -4.3170   -4.7127    1.3815 C   0  0  0  0  0  0  0  0  0  0  0  0
   -3.1761   -4.4202    0.5993 C   0  0  0  0  0  0  0  0  0  0  0  0
   -2.6994   -3.1127    0.5345 C   0  0  0  0  0  0  0  0  0  0  0  0
   -1.4024   -2.7667    0.4256 C   0  0  0  0  0  0  0  0  0  0  0  0
   -0.9560   -1.4644    0.2284 C   0  0  0  0  0  0  0  0  0  0  0  0
    0.1763   -1.1275   -0.6003 C   0  0  0  0  0  0  0  0  0  0  0  0
    0.6500   -2.0060   -1.6271 C   0  0  0  0  0  0  0  0  0  0  0  0
    0.0692   -3.2150   -1.9216 O   0  0  0  0  0  0  0  0  0  0  0  0
   -0.9384   -3.1388   -2.9446 C   0  0  0  0  0  0  0  0  0  0  0  0
    1.7843   -1.6795   -2.3962 C   0  0  0  0  0  0  0  0  0  0  0  0
    2.4577   -0.4627   -2.2090 C   0  0  0  0  0  0  0  0  0  0  0  0
    3.5755   -0.1662   -2.9450 O   0  0  0  0  0  0  0  0  0  0  0  0
    3.2809    0.4071   -4.2315 C   0  0  0  0  0  0  0  0  0  0  0  0
    1.9902    0.4280   -1.2275 C   0  0  0  0  0  0  0  0  0  0  0  0
    0.8583    0.1182   -0.4411 C   0  0  0  0  0  0  0  0  0  0  0  0
    0.4893    1.0524    0.4991 O   0  0  0  0  0  0  0  0  0  0  0  0
   -0.3158    2.1222   -0.0379 C   0  0  0  0  0  0  0  0  0  0  0  0
   -1.6080   -0.5628    0.8091 O   0  0  0  0  0  0  0  0  0  0  0  0
   -2.5881   -5.4707   -0.1459 C   0  0  0  0  0  0  0  0  0  0  0  0
   -0.4913   -7.3482   -2.4982 O   0  0  0  0  0  0  0  0  0  0  0  0
    1.3893   -6.1887   -0.8998 H   0  0  0  0  0  0  0  0  0  0  0  0
    2.4066   -5.0723    0.9701 H   0  0  0  0  0  0  0  0  0  0  0  0
   -0.1230   -4.5214    4.2210 H   0  0  0  0  0  0  0  0  0  0  0  0
    0.7735   -3.2772    6.0833 H   0  0  0  0  0  0  0  0  0  0  0  0
    3.1576   -3.3111    6.5465 H   0  0  0  0  0  0  0  0  0  0  0  0
    4.6506   -4.6052    5.1324 H   0  0  0  0  0  0  0  0  0  0  0  0
    3.7795   -5.8466    3.2530 H   0  0  0  0  0  0  0  0  0  0  0  0
   -0.1185   -7.2094    3.6046 H   0  0  0  0  0  0  0  0  0  0  0  0
   -1.1020   -8.3415    1.7369 H   0  0  0  0  0  0  0  0  0  0  0  0
   -3.1638   -8.5047   -1.1342 H   0  0  0  0  0  0  0  0  0  0  0  0
   -4.6413   -7.9963    0.6970 H   0  0  0  0  0  0  0  0  0  0  0  0
   -5.7179   -6.3671    2.0162 H   0  0  0  0  0  0  0  0  0  0  0  0
   -4.7765   -3.9795    1.9317 H   0  0  0  0  0  0  0  0  0  0  0  0
   -3.3831   -2.3891    0.5533 H   0  0  0  0  0  0  0  0  0  0  0  0
   -0.7096   -3.4790    0.4565 H   0  0  0  0  0  0  0  0  0  0  0  0
   -1.3114   -4.1476   -3.1275 H   0  0  0  0  0  0  0  0  0  0  0  0
   -1.7799   -2.5152   -2.6297 H   0  0  0  0  0  0  0  0  0  0  0  0
   -0.5256   -2.7532   -3.8796 H   0  0  0  0  0  0  0  0  0  0  0  0
    2.1254   -2.3362   -3.1040 H   0  0  0  0  0  0  0  0  0  0  0  0
    4.2278    0.6226   -4.7262 H   0  0  0  0  0  0  0  0  0  0  0  0
    2.7203   -0.2853   -4.8655 H   0  0  0  0  0  0  0  0  0  0  0  0
    2.7270    1.3437   -4.1299 H   0  0  0  0  0  0  0  0  0  0  0  0
    2.4843    1.3114   -1.0781 H   0  0  0  0  0  0  0  0  0  0  0  0
   -0.5246    2.8271    0.7683 H   0  0  0  0  0  0  0  0  0  0  0  0
    0.2034    2.6610   -0.8355 H   0  0  0  0  0  0  0  0  0  0  0  0
   -1.2694    1.7480   -0.4196 H   0  0  0  0  0  0  0  0  0  0  0  0
   -1.7790   -5.2767   -0.7415 H   0  0  0  0  0  0  0  0  0  0  0  0
  1  2  2  0  0  0  0
  2  3  1  0  0  0  0
  3  4  2  0  0  0  0
  4  5  1  0  0  0  0
  5  6  2  0  0  0  0
  6  7  1  0  0  0  0
  7  8  2  0  0  0  0
  8  9  1  0  0  0  0
  9 10  2  0  0  0  0
 10 11  1  0  0  0  0
 11 12  2  0  0  0  0
  7 12  1  0  0  0  0
  6 13  1  0  0  0  0
 13 14  2  0  0  0  0
  3 14  1  0  0  0  0
  2 15  1  0  0  0  0
 15 16  1  0  0  0  0
 16 17  2  0  0  0  0
 17 18  1  0  0  0  0
 18 19  2  0  0  0  0
 19 20  1  0  0  0  0
 20 21  1  0  0  0  0
 21 22  2  0  0  0  0
 22 23  1  0  0  0  0
 23 24  1  0  0  0  0
 24 25  2  0  0  0  0
 25 26  1  0  0  0  0
 26 27  1  0  0  0  0
 25 28  1  0  0  0  0
 28 29  2  0  0  0  0
 29 30  1  0  0  0  0
 30 31  1  0  0  0  0
 29 32  1  0  0  0  0
 32 33  2  0  0  0  0
 24 33  1  0  0  0  0
 33 34  1  0  0  0  0
 34 35  1  0  0  0  0
 23 36  2  0  0  0  0
 20 37  2  0  0  0  0
 16 37  1  0  0  0  0
  2 38  2  0  0  0  0
  4 39  1  0  0  0  0
  5 40  1  0  0  0  0
  8 41  1  0  0  0  0
  9 42  1  0  0  0  0
 10 43  1  0  0  0  0
 11 44  1  0  0  0  0
 12 45  1  0  0  0  0
 13 46  1  0  0  0  0
 14 47  1  0  0  0  0
 15 48  1  0  0  0  0
 17 49  1  0  0  0  0
 18 50  1  0  0  0  0
 19 51  1  0  0  0  0
 21 52  1  0  0  0  0
 22 53  1  0  0  0  0
 27 54  1  0  0  0  0
 27 55  1  0  0  0  0
 27 56  1  0  0  0  0
 28 57  1  0  0  0  0
 31 58  1  0  0  0  0
 31 59  1  0  0  0  0
 31 60  1  0  0  0  0
 32 61  1  0  0  0  0
 35 62  1  0  0  0  0
 35 63  1  0  0  0  0
 35 64  1  0  0  0  0
 37 65  1  0  0  0  0
M  END
$$$$
> 814_AKC_14786419.2023.2288232

  Mrv0541 12072315463D              69.13000

 46 47  0  0  0  0            999 V2000
    0.4481   -1.8285   -0.0709 C   0  0  1  0  0  0  0  0  0  0  0  0
    0.3299   -1.2007    1.2587 C   0  0  0  0  0  0  0  0  0  0  0  0
    0.2997   -1.9461    2.3869 C   0  0  0  0  0  0  0  0  0  0  0  0
    0.3591   -3.4033    2.4348 C   0  0  2  0  0  0  0  0  0  0  0  0
    0.7003   -4.1044    1.0799 C   0  0  2  0  0  0  0  0  0  0  0  0
    0.0176   -3.3267   -0.0819 C   0  0  1  0  0  0  0  0  0  0  0  0
    0.4541   -5.6638    1.0590 C   0  0  2  0  0  0  0  0  0  0  0  0
    0.7701   -6.1813   -0.2526 O   0  0  0  0  0  0  0  0  0  0  0  0
   -1.0094   -6.1142    1.3537 C   0  0  2  0  0  0  0  0  0  0  0  0
   -1.2916   -7.1735    0.2832 C   0  0  1  0  0  0  0  0  0  0  0  0
   -0.4148   -6.6966   -0.8872 C   0  0  2  0  0  0  0  0  0  0  0  0
    0.2744    0.2587    1.3682 C   0  0  0  0  0  0  0  0  0  0  0  0
   -0.2044   -1.0606   -1.1083 O   0  0  0  0  0  0  0  0  0  0  0  0
   -0.3584   -1.4463   -2.4093 C   0  0  0  0  0  0  0  0  0  0  0  0
   -1.1739   -2.3519   -2.6938 O   0  0  0  0  0  0  0  0  0  0  0  0
    0.4042   -0.7857   -3.4770 C   0  0  0  0  0  0  0  0  0  0  0  0
    1.4515   -6.3891    2.0148 C   0  0  0  0  0  0  0  0  0  0  0  0
   -0.1563   -7.7386   -1.8919 C   0  0  0  0  0  0  0  0  0  0  0  0
   -1.1243   -8.0737   -2.7662 C   0  0  0  0  0  0  0  0  0  0  0  0
    1.1345   -8.4239   -1.9251 C   0  0  0  0  0  0  0  0  0  0  0  0
    1.5157   -1.8004   -0.3093 H   0  0  0  0  0  0  0  0  0  0  0  0
    0.2298   -1.4840    3.2657 H   0  0  0  0  0  0  0  0  0  0  0  0
   -0.6045   -3.7549    2.8104 H   0  0  0  0  0  0  0  0  0  0  0  0
    1.1183   -3.6829    3.1700 H   0  0  0  0  0  0  0  0  0  0  0  0
    1.7755   -3.9689    0.9193 H   0  0  0  0  0  0  0  0  0  0  0  0
   -1.0709   -3.3841   -0.0020 H   0  0  0  0  0  0  0  0  0  0  0  0
    0.3250   -3.7687   -1.0325 H   0  0  0  0  0  0  0  0  0  0  0  0
   -1.7216   -5.2933    1.2423 H   0  0  0  0  0  0  0  0  0  0  0  0
   -1.1341   -6.5330    2.3558 H   0  0  0  0  0  0  0  0  0  0  0  0
   -0.9758   -8.1596    0.6394 H   0  0  0  0  0  0  0  0  0  0  0  0
   -2.3508   -7.1996    0.0163 H   0  0  0  0  0  0  0  0  0  0  0  0
   -0.9068   -5.8527   -1.3865 H   0  0  0  0  0  0  0  0  0  0  0  0
   -0.7689    0.5827    1.3564 H   0  0  0  0  0  0  0  0  0  0  0  0
    0.8039    0.7381    0.5420 H   0  0  0  0  0  0  0  0  0  0  0  0
    0.7364    0.6240    2.2898 H   0  0  0  0  0  0  0  0  0  0  0  0
    1.4715   -0.9300   -3.2993 H   0  0  0  0  0  0  0  0  0  0  0  0
    0.1861    0.2814   -3.4898 H   0  0  0  0  0  0  0  0  0  0  0  0
    0.1574   -1.2082   -4.4545 H   0  0  0  0  0  0  0  0  0  0  0  0
    1.2645   -6.1096    3.0526 H   0  0  0  0  0  0  0  0  0  0  0  0
    1.3497   -7.4733    1.9317 H   0  0  0  0  0  0  0  0  0  0  0  0
    2.4820   -6.1282    1.7658 H   0  0  0  0  0  0  0  0  0  0  0  0
   -2.0124   -7.6283   -2.7498 H   0  0  0  0  0  0  0  0  0  0  0  0
   -0.9781   -8.7745   -3.4541 H   0  0  0  0  0  0  0  0  0  0  0  0
    1.1940   -9.1985   -2.6951 H   0  0  0  0  0  0  0  0  0  0  0  0
    1.3220   -8.9015   -0.9612 H   0  0  0  0  0  0  0  0  0  0  0  0
    1.9291   -7.7029   -2.1249 H   0  0  0  0  0  0  0  0  0  0  0  0
  1  2  1  0  0  0  0
  1  6  1  0  0  0  0
  2  3  2  0  0  0  0
  3  4  1  0  0  0  0
  4  5  1  0  0  0  0
  5  6  1  0  0  0  0
  5  7  1  0  0  0  0
  8  7  1  0  0  0  0
  7  9  1  0  0  0  0
  8 11  1  0  0  0  0
  9 10  1  0  0  0  0
 10 11  1  0  0  0  0
  2 12  1  0  0  0  0
  1 13  1  0  0  0  0
 13 14  1  0  0  0  0
 14 15  2  0  0  0  0
 14 16  1  0  0  0  0
  7 17  1  0  0  0  0
 11 18  1  0  0  0  0
 18 19  2  0  0  0  0
 18 20  1  0  0  0  0
  1 21  1  0  0  0  0
  3 22  1  0  0  0  0
  4 23  1  0  0  0  0
  4 24  1  0  0  0  0
  5 25  1  0  0  0  0
  6 26  1  0  0  0  0
  6 27  1  0  0  0  0
  9 28  1  0  0  0  0
  9 29  1  0  0  0  0
 10 30  1  0  0  0  0
 10 31  1  0  0  0  0
 11 32  1  0  0  0  0
 12 33  1  0  0  0  0
 12 34  1  0  0  0  0
 12 35  1  0  0  0  0
 16 36  1  0  0  0  0
 16 37  1  0  0  0  0
 16 38  1  0  0  0  0
 17 39  1  0  0  0  0
 17 40  1  0  0  0  0
 17 41  1  0  0  0  0
 19 42  1  0  0  0  0
 19 43  1  0  0  0  0
 20 44  1  0  0  0  0
 20 45  1  0  0  0  0
 20 46  1  0  0  0  0
M  END
$$$$
> 815_AKC_14786419.2023.2288232

  Mrv0541 12072315453D              72.21000

 46 47  0  0  0  0            999 V2000
    0.4407   -1.9236   -0.1239 C   0  0  1  0  0  0  0  0  0  0  0  0
    0.2649   -1.2530    1.1731 C   0  0  0  0  0  0  0  0  0  0  0  0
    0.2902   -1.9415    2.3353 C   0  0  0  0  0  0  0  0  0  0  0  0
    0.4984   -3.3763    2.4609 C   0  0  2  0  0  0  0  0  0  0  0  0
    0.8441   -4.1462    1.1430 C   0  0  2  0  0  0  0  0  0  0  0  0
    0.1464   -3.4516   -0.0675 C   0  0  1  0  0  0  0  0  0  0  0  0
    0.5972   -5.7134    1.2051 C   0  0  1  0  0  0  0  0  0  0  0  0
    1.1322   -6.3210    0.0132 O   0  0  0  0  0  0  0  0  0  0  0  0
    1.3739   -6.4473    2.3367 C   0  0  2  0  0  0  0  0  0  0  0  0
    2.7645   -6.6845    1.7456 C   0  0  1  0  0  0  0  0  0  0  0  0
    2.4923   -6.7604    0.2201 C   0  0  1  0  0  0  0  0  0  0  0  0
    0.0214    0.1909    1.2066 C   0  0  0  0  0  0  0  0  0  0  0  0
   -0.4081   -1.2913   -1.1047 O   0  0  0  0  0  0  0  0  0  0  0  0
   -0.5421   -1.6208   -2.4191 C   0  0  0  0  0  0  0  0  0  0  0  0
   -1.4573   -2.4072   -2.7541 O   0  0  0  0  0  0  0  0  0  0  0  0
    0.3112   -0.9829   -3.4295 C   0  0  0  0  0  0  0  0  0  0  0  0
   -0.9163   -6.1004    1.2525 C   0  0  0  0  0  0  0  0  0  0  0  0
    2.7572   -8.0823   -0.3771 C   0  0  0  0  0  0  0  0  0  0  0  0
    4.0197   -8.5493   -0.4096 C   0  0  0  0  0  0  0  0  0  0  0  0
    1.6637   -8.8802   -0.9294 C   0  0  0  0  0  0  0  0  0  0  0  0
    1.4810   -1.7800   -0.4316 H   0  0  0  0  0  0  0  0  0  0  0  0
    0.1427   -1.4524    3.1897 H   0  0  0  0  0  0  0  0  0  0  0  0
   -0.4091   -3.7851    2.9017 H   0  0  0  0  0  0  0  0  0  0  0  0
    1.3074   -3.5267    3.1830 H   0  0  0  0  0  0  0  0  0  0  0  0
    1.9173   -4.0021    0.9825 H   0  0  0  0  0  0  0  0  0  0  0  0
   -0.9356   -3.5712    0.0120 H   0  0  0  0  0  0  0  0  0  0  0  0
    0.4746   -3.9159   -1.0020 H   0  0  0  0  0  0  0  0  0  0  0  0
    0.9268   -7.4212    2.5585 H   0  0  0  0  0  0  0  0  0  0  0  0
    1.4219   -5.8797    3.2653 H   0  0  0  0  0  0  0  0  0  0  0  0
    3.4197   -5.8378    1.9719 H   0  0  0  0  0  0  0  0  0  0  0  0
    3.2154   -7.5908    2.1625 H   0  0  0  0  0  0  0  0  0  0  0  0
    3.1279   -6.0278   -0.2898 H   0  0  0  0  0  0  0  0  0  0  0  0
   -1.0553    0.3666    1.1946 H   0  0  0  0  0  0  0  0  0  0  0  0
    0.4604    0.6923    0.3419 H   0  0  0  0  0  0  0  0  0  0  0  0
    0.4416    0.6636    2.0967 H   0  0  0  0  0  0  0  0  0  0  0  0
    1.3437   -1.3008   -3.2738 H   0  0  0  0  0  0  0  0  0  0  0  0
    0.2574    0.1040   -3.3292 H   0  0  0  0  0  0  0  0  0  0  0  0
    0.0034   -1.2617   -4.4407 H   0  0  0  0  0  0  0  0  0  0  0  0
   -1.0382   -7.1836    1.2710 H   0  0  0  0  0  0  0  0  0  0  0  0
   -1.4057   -5.6927    2.1368 H   0  0  0  0  0  0  0  0  0  0  0  0
   -1.4436   -5.7446    0.3692 H   0  0  0  0  0  0  0  0  0  0  0  0
    4.7717   -8.0190   -0.0377 H   0  0  0  0  0  0  0  0  0  0  0  0
    4.2349   -9.4324   -0.8066 H   0  0  0  0  0  0  0  0  0  0  0  0
    1.9797   -9.8685   -1.2710 H   0  0  0  0  0  0  0  0  0  0  0  0
    1.2269   -8.3593   -1.7833 H   0  0  0  0  0  0  0  0  0  0  0  0
    0.8913   -9.0258   -0.1728 H   0  0  0  0  0  0  0  0  0  0  0  0
  1  2  1  0  0  0  0
  1  6  1  0  0  0  0
  2  3  2  0  0  0  0
  3  4  1  0  0  0  0
  4  5  1  0  0  0  0
  5  6  1  0  0  0  0
  5  7  1  0  0  0  0
  8  7  1  0  0  0  0
  7  9  1  0  0  0  0
  8 11  1  0  0  0  0
  9 10  1  0  0  0  0
 10 11  1  0  0  0  0
  2 12  1  0  0  0  0
  1 13  1  0  0  0  0
 13 14  1  0  0  0  0
 14 15  2  0  0  0  0
 14 16  1  0  0  0  0
  7 17  1  0  0  0  0
 11 18  1  0  0  0  0
 18 19  2  0  0  0  0
 18 20  1  0  0  0  0
  1 21  1  0  0  0  0
  3 22  1  0  0  0  0
  4 23  1  0  0  0  0
  4 24  1  0  0  0  0
  5 25  1  0  0  0  0
  6 26  1  0  0  0  0
  6 27  1  0  0  0  0
  9 28  1  0  0  0  0
  9 29  1  0  0  0  0
 10 30  1  0  0  0  0
 10 31  1  0  0  0  0
 11 32  1  0  0  0  0
 12 33  1  0  0  0  0
 12 34  1  0  0  0  0
 12 35  1  0  0  0  0
 16 36  1  0  0  0  0
 16 37  1  0  0  0  0
 16 38  1  0  0  0  0
 17 39  1  0  0  0  0
 17 40  1  0  0  0  0
 17 41  1  0  0  0  0
 19 42  1  0  0  0  0
 19 43  1  0  0  0  0
 20 44  1  0  0  0  0
 20 45  1  0  0  0  0
 20 46  1  0  0  0  0
M  END
$$$$
> 816_AKC_14786419.2023.2288232

  Mrv0541 12072315443D              65.45000

 46 47  0  0  0  0            999 V2000
    0.0274    1.3814    0.7268 C   0  0  2  0  0  0  0  0  0  0  0  0
    1.2543    1.5756    1.5082 C   0  0  0  0  0  0  0  0  0  0  0  0
    2.2033    0.6160    1.5657 C   0  0  0  0  0  0  0  0  0  0  0  0
    2.0968   -0.7062    0.9606 C   0  0  2  0  0  0  0  0  0  0  0  0
    0.8276   -0.9746    0.0757 C   0  0  2  0  0  0  0  0  0  0  0  0
   -0.3752   -0.1132    0.5756 C   0  0  1  0  0  0  0  0  0  0  0  0
    0.4837   -2.5064   -0.1134 C   0  0  2  0  0  0  0  0  0  0  0  0
   -0.7567   -2.6508   -0.8438 O   0  0  0  0  0  0  0  0  0  0  0  0
    0.2925   -3.2992    1.2190 C   0  0  2  0  0  0  0  0  0  0  0  0
   -0.8945   -4.2226    0.9378 C   0  0  1  0  0  0  0  0  0  0  0  0
   -1.7168   -3.3893   -0.0632 C   0  0  2  0  0  0  0  0  0  0  0  0
    1.4956    2.8565    2.1715 C   0  0  0  0  0  0  0  0  0  0  0  0
    0.2898    1.9356   -0.5753 O   0  0  0  0  0  0  0  0  0  0  0  0
   -0.2385    3.0264   -1.2092 C   0  0  0  0  0  0  0  0  0  0  0  0
    0.2782    3.3306   -2.3092 O   0  0  0  0  0  0  0  0  0  0  0  0
   -1.3374    3.8532   -0.6800 C   0  0  0  0  0  0  0  0  0  0  0  0
    1.5531   -3.1972   -1.0184 C   0  0  0  0  0  0  0  0  0  0  0  0
   -2.6318   -4.2161   -0.8619 C   0  0  0  0  0  0  0  0  0  0  0  0
   -3.8120   -4.5996   -0.3374 C   0  0  0  0  0  0  0  0  0  0  0  0
   -2.2380   -4.6464   -2.2022 C   0  0  0  0  0  0  0  0  0  0  0  0
   -0.8133    1.8886    1.2092 H   0  0  0  0  0  0  0  0  0  0  0  0
    3.0437    0.8022    2.0689 H   0  0  0  0  0  0  0  0  0  0  0  0
    2.1442   -1.4192    1.7852 H   0  0  0  0  0  0  0  0  0  0  0  0
    2.9913   -0.8621    0.3488 H   0  0  0  0  0  0  0  0  0  0  0  0
    1.0594   -0.5803   -0.9209 H   0  0  0  0  0  0  0  0  0  0  0  0
   -0.7314   -0.4813    1.5413 H   0  0  0  0  0  0  0  0  0  0  0  0
   -1.2041   -0.1740   -0.1356 H   0  0  0  0  0  0  0  0  0  0  0  0
    0.0311   -2.6438    2.0526 H   0  0  0  0  0  0  0  0  0  0  0  0
    1.1782   -3.8728    1.5075 H   0  0  0  0  0  0  0  0  0  0  0  0
   -0.5403   -5.1582    0.4925 H   0  0  0  0  0  0  0  0  0  0  0  0
   -1.4606   -4.4435    1.8478 H   0  0  0  0  0  0  0  0  0  0  0  0
   -2.2989   -2.6410    0.4883 H   0  0  0  0  0  0  0  0  0  0  0  0
    2.2591    3.4128    1.6221 H   0  0  0  0  0  0  0  0  0  0  0  0
    1.8429    2.6994    3.1977 H   0  0  0  0  0  0  0  0  0  0  0  0
    0.5959    3.4740    2.2219 H   0  0  0  0  0  0  0  0  0  0  0  0
   -1.0637    4.2464    0.2984 H   0  0  0  0  0  0  0  0  0  0  0  0
   -2.2449    3.2545   -0.5932 H   0  0  0  0  0  0  0  0  0  0  0  0
   -1.5429    4.6942   -1.3427 H   0  0  0  0  0  0  0  0  0  0  0  0
    2.5337   -3.1912   -0.5396 H   0  0  0  0  0  0  0  0  0  0  0  0
    1.2813   -4.2365   -1.2199 H   0  0  0  0  0  0  0  0  0  0  0  0
    1.6363   -2.6829   -1.9793 H   0  0  0  0  0  0  0  0  0  0  0  0
   -4.0798   -4.3227    0.5784 H   0  0  0  0  0  0  0  0  0  0  0  0
   -4.4467   -5.1673   -0.8467 H   0  0  0  0  0  0  0  0  0  0  0  0
   -2.9711   -5.3056   -2.6746 H   0  0  0  0  0  0  0  0  0  0  0  0
   -1.2903   -5.1861   -2.1545 H   0  0  0  0  0  0  0  0  0  0  0  0
   -2.1137   -3.7730   -2.8451 H   0  0  0  0  0  0  0  0  0  0  0  0
  1  2  1  0  0  0  0
  1  6  1  0  0  0  0
  2  3  2  0  0  0  0
  3  4  1  0  0  0  0
  4  5  1  0  0  0  0
  5  6  1  0  0  0  0
  5  7  1  0  0  0  0
  8  7  1  0  0  0  0
  7  9  1  0  0  0  0
  8 11  1  0  0  0  0
  9 10  1  0  0  0  0
 10 11  1  0  0  0  0
  2 12  1  0  0  0  0
  1 13  1  0  0  0  0
 13 14  1  0  0  0  0
 14 15  2  0  0  0  0
 14 16  1  0  0  0  0
  7 17  1  0  0  0  0
 11 18  1  0  0  0  0
 18 19  2  0  0  0  0
 18 20  1  0  0  0  0
  1 21  1  0  0  0  0
  3 22  1  0  0  0  0
  4 23  1  0  0  0  0
  4 24  1  0  0  0  0
  5 25  1  0  0  0  0
  6 26  1  0  0  0  0
  6 27  1  0  0  0  0
  9 28  1  0  0  0  0
  9 29  1  0  0  0  0
 10 30  1  0  0  0  0
 10 31  1  0  0  0  0
 11 32  1  0  0  0  0
 12 33  1  0  0  0  0
 12 34  1  0  0  0  0
 12 35  1  0  0  0  0
 16 36  1  0  0  0  0
 16 37  1  0  0  0  0
 16 38  1  0  0  0  0
 17 39  1  0  0  0  0
 17 40  1  0  0  0  0
 17 41  1  0  0  0  0
 19 42  1  0  0  0  0
 19 43  1  0  0  0  0
 20 44  1  0  0  0  0
 20 45  1  0  0  0  0
 20 46  1  0  0  0  0
M  END
$$$$
> 817_AKC_14786419.2023.2288232

  Mrv0541 12072315453D              67.18000

 46 47  0  0  0  0            999 V2000
    0.0024    1.2176    0.6699 C   0  0  2  0  0  0  0  0  0  0  0  0
    1.1721    1.4906    1.5123 C   0  0  0  0  0  0  0  0  0  0  0  0
    2.1478    0.5709    1.6772 C   0  0  0  0  0  0  0  0  0  0  0  0
    2.1348   -0.7714    1.1045 C   0  0  2  0  0  0  0  0  0  0  0  0
    0.9723   -1.0833    0.1008 C   0  0  2  0  0  0  0  0  0  0  0  0
   -0.3044   -0.2961    0.5255 C   0  0  1  0  0  0  0  0  0  0  0  0
    0.6958   -2.6185   -0.1765 C   0  0  1  0  0  0  0  0  0  0  0  0
   -0.3051   -2.7035   -1.2101 O   0  0  0  0  0  0  0  0  0  0  0  0
    1.9132   -3.3695   -0.7874 C   0  0  2  0  0  0  0  0  0  0  0  0
    1.8123   -3.0696   -2.2833 C   0  0  1  0  0  0  0  0  0  0  0  0
    0.2856   -2.9427   -2.5027 C   0  0  1  0  0  0  0  0  0  0  0  0
    1.3050    2.8040    2.1420 C   0  0  0  0  0  0  0  0  0  0  0  0
    0.2684    1.7685   -0.6323 O   0  0  0  0  0  0  0  0  0  0  0  0
   -0.3315    2.7995   -1.2959 C   0  0  0  0  0  0  0  0  0  0  0  0
    0.0792    3.0244   -2.4572 O   0  0  0  0  0  0  0  0  0  0  0  0
   -1.3845    3.6542   -0.7209 C   0  0  0  0  0  0  0  0  0  0  0  0
    0.1260   -3.3972    1.0520 C   0  0  0  0  0  0  0  0  0  0  0  0
   -0.3112   -4.1147   -3.1656 C   0  0  0  0  0  0  0  0  0  0  0  0
   -0.1300   -4.2892   -4.4876 C   0  0  0  0  0  0  0  0  0  0  0  0
   -1.0631   -5.0987   -2.3851 C   0  0  0  0  0  0  0  0  0  0  0  0
   -0.8887    1.6686    1.1141 H   0  0  0  0  0  0  0  0  0  0  0  0
    2.9358    0.8006    2.2420 H   0  0  0  0  0  0  0  0  0  0  0  0
    2.1034   -1.4703    1.9400 H   0  0  0  0  0  0  0  0  0  0  0  0
    3.0892   -0.9129    0.5912 H   0  0  0  0  0  0  0  0  0  0  0  0
    1.2787   -0.6453   -0.8557 H   0  0  0  0  0  0  0  0  0  0  0  0
   -0.6674   -0.6621    1.4901 H   0  0  0  0  0  0  0  0  0  0  0  0
   -1.0996   -0.4281   -0.2141 H   0  0  0  0  0  0  0  0  0  0  0  0
    1.8329   -4.4517   -0.6468 H   0  0  0  0  0  0  0  0  0  0  0  0
    2.8700   -3.0490   -0.3765 H   0  0  0  0  0  0  0  0  0  0  0  0
    2.3131   -2.1226   -2.5049 H   0  0  0  0  0  0  0  0  0  0  0  0
    2.2825   -3.8578   -2.8788 H   0  0  0  0  0  0  0  0  0  0  0  0
    0.0815   -2.0499   -3.1036 H   0  0  0  0  0  0  0  0  0  0  0  0
    2.0420    3.3978    1.5980 H   0  0  0  0  0  0  0  0  0  0  0  0
    1.6297    2.7096    3.1806 H   0  0  0  0  0  0  0  0  0  0  0  0
    0.3606    3.3534    2.1492 H   0  0  0  0  0  0  0  0  0  0  0  0
   -1.0086    4.1585    0.1721 H   0  0  0  0  0  0  0  0  0  0  0  0
   -2.2431    3.0367   -0.4565 H   0  0  0  0  0  0  0  0  0  0  0  0
   -1.7114    4.4130   -1.4352 H   0  0  0  0  0  0  0  0  0  0  0  0
   -0.0441   -4.4455    0.7996 H   0  0  0  0  0  0  0  0  0  0  0  0
    0.8146   -3.3686    1.8957 H   0  0  0  0  0  0  0  0  0  0  0  0
   -0.8337   -2.9879    1.3674 H   0  0  0  0  0  0  0  0  0  0  0  0
    0.3926   -3.6375   -5.0247 H   0  0  0  0  0  0  0  0  0  0  0  0
   -0.5068   -5.0738   -4.9650 H   0  0  0  0  0  0  0  0  0  0  0  0
   -1.4292   -5.9385   -2.9804 H   0  0  0  0  0  0  0  0  0  0  0  0
   -1.9297   -4.6222   -1.9233 H   0  0  0  0  0  0  0  0  0  0  0  0
   -0.4271   -5.5057   -1.5977 H   0  0  0  0  0  0  0  0  0  0  0  0
  1  2  1  0  0  0  0
  1  6  1  0  0  0  0
  2  3  2  0  0  0  0
  3  4  1  0  0  0  0
  4  5  1  0  0  0  0
  5  6  1  0  0  0  0
  5  7  1  0  0  0  0
  8  7  1  0  0  0  0
  7  9  1  0  0  0  0
  8 11  1  0  0  0  0
  9 10  1  0  0  0  0
 10 11  1  0  0  0  0
  2 12  1  0  0  0  0
  1 13  1  0  0  0  0
 13 14  1  0  0  0  0
 14 15  2  0  0  0  0
 14 16  1  0  0  0  0
  7 17  1  0  0  0  0
 11 18  1  0  0  0  0
 18 19  2  0  0  0  0
 18 20  1  0  0  0  0
  1 21  1  0  0  0  0
  3 22  1  0  0  0  0
  4 23  1  0  0  0  0
  4 24  1  0  0  0  0
  5 25  1  0  0  0  0
  6 26  1  0  0  0  0
  6 27  1  0  0  0  0
  9 28  1  0  0  0  0
  9 29  1  0  0  0  0
 10 30  1  0  0  0  0
 10 31  1  0  0  0  0
 11 32  1  0  0  0  0
 12 33  1  0  0  0  0
 12 34  1  0  0  0  0
 12 35  1  0  0  0  0
 16 36  1  0  0  0  0
 16 37  1  0  0  0  0
 16 38  1  0  0  0  0
 17 39  1  0  0  0  0
 17 40  1  0  0  0  0
 17 41  1  0  0  0  0
 19 42  1  0  0  0  0
 19 43  1  0  0  0  0
 20 44  1  0  0  0  0
 20 45  1  0  0  0  0
 20 46  1  0  0  0  0
M  END
$$$$
> 818_AKC_journal.pone.0292946

  Mrv0541 12072315513D              87.49000

 50 53  0  0  0  0            999 V2000
   -6.1740   -9.9017    5.2421 O   0  0  0  0  0  0  0  0  0  0  0  0
   -5.2389  -10.3886    4.5641 C   0  0  0  0  0  0  0  0  0  0  0  0
   -5.5407  -11.1585    3.4769 N   0  0  0  0  0  0  0  0  0  0  0  0
   -6.8715  -11.5041    3.0743 C   0  0  1  0  0  0  0  0  0  0  0  0
   -6.8858  -12.3335    1.7695 C   0  0  2  0  0  0  0  0  0  0  0  0
   -8.2267  -12.9196    1.5443 N   0  3  1  0  0  0  0  0  0  0  0  0
   -8.3408  -13.7551    0.3340 C   0  0  0  0  0  0  0  0  0  0  0  0
   -3.8288  -10.2022    5.0083 C   0  0  2  0  0  0  0  0  0  0  0  0
   -3.3400   -8.8201    5.1039 N   0  0  0  0  0  0  0  0  0  0  0  0
   -2.1958   -8.4548    4.3822 C   0  0  0  0  0  0  0  0  0  0  0  0
   -1.0502   -9.2908    4.4788 C   0  0  0  0  0  0  0  0  0  0  0  0
    0.1004   -9.0741    3.6997 C   0  0  0  0  0  0  0  0  0  0  0  0
    1.4251  -10.1224    3.8173 Cl  0  0  0  0  0  0  0  0  0  0  0  0
    0.1426   -7.9825    2.8203 C   0  0  0  0  0  0  0  0  0  0  0  0
   -0.9394   -7.0913    2.7589 C   0  0  0  0  0  0  0  0  0  0  0  0
   -2.0989   -7.2965    3.5479 C   0  0  0  0  0  0  0  0  0  0  0  0
   -3.1115   -6.3065    3.4969 C   0  0  0  0  0  0  0  0  0  0  0  0
   -3.4172   -5.5384    2.4306 N   0  0  0  0  0  0  0  0  0  0  0  0
   -3.9179   -5.9157    4.5717 C   0  0  0  0  0  0  0  0  0  0  0  0
   -3.7733   -6.4476    5.9424 C   0  0  1  0  0  0  0  0  0  0  0  0
   -3.9755   -7.9167    5.9568 C   0  0  0  0  0  0  0  0  0  0  0  0
   -4.7773   -8.3249    6.8315 O   0  0  0  0  0  0  0  0  0  0  0  0
   -4.7704   -4.9215    4.0833 C   0  0  0  0  0  0  0  0  0  0  0  0
   -4.4089   -4.6997    2.7541 C   0  0  0  0  0  0  0  0  0  0  0  0
   -5.0420   -3.7210    1.9721 C   0  0  0  0  0  0  0  0  0  0  0  0
   -6.0762   -2.9625    2.5576 C   0  0  0  0  0  0  0  0  0  0  0  0
   -6.4651   -3.1942    3.8972 C   0  0  0  0  0  0  0  0  0  0  0  0
   -7.9951   -2.0932    4.7115 I   0  0  0  0  0  0  0  0  0  0  0  0
   -5.8132   -4.1792    4.6736 C   0  0  0  0  0  0  0  0  0  0  0  0
   -4.8040  -11.5357    2.9709 H   0  0  0  0  0  0  0  0  0  0  0  0
   -7.3363  -12.0902    3.8731 H   0  0  0  0  0  0  0  0  0  0  0  0
   -7.4615  -10.5961    2.9252 H   0  0  0  0  0  0  0  0  0  0  0  0
   -6.1537  -13.1415    1.8492 H   0  0  0  0  0  0  0  0  0  0  0  0
   -6.6191  -11.6898    0.9259 H   0  0  0  0  0  0  0  0  0  0  0  0
   -8.4637  -13.5028    2.3496 H   0  0  0  0  0  0  0  0  0  0  0  0
   -8.9151  -12.1662    1.4800 H   0  0  0  0  0  0  0  0  0  0  0  0
   -9.3229  -14.2267    0.3199 H   0  0  0  0  0  0  0  0  0  0  0  0
   -7.5833  -14.5405    0.3276 H   0  0  0  0  0  0  0  0  0  0  0  0
   -8.2341  -13.1443   -0.5626 H   0  0  0  0  0  0  0  0  0  0  0  0
   -3.2107  -10.7891    4.3204 H   0  0  0  0  0  0  0  0  0  0  0  0
   -3.7214  -10.6740    5.9890 H   0  0  0  0  0  0  0  0  0  0  0  0
   -1.0550  -10.0823    5.1272 H   0  0  0  0  0  0  0  0  0  0  0  0
    0.9660   -7.8207    2.2364 H   0  0  0  0  0  0  0  0  0  0  0  0
   -0.8554   -6.2764    2.1431 H   0  0  0  0  0  0  0  0  0  0  0  0
   -2.9820   -5.5804    1.5638 H   0  0  0  0  0  0  0  0  0  0  0  0
   -2.7659   -6.2220    6.3022 H   0  0  0  0  0  0  0  0  0  0  0  0
   -4.4802   -5.9479    6.6126 H   0  0  0  0  0  0  0  0  0  0  0  0
   -4.7588   -3.5657    1.0018 H   0  0  0  0  0  0  0  0  0  0  0  0
   -6.5495   -2.2453    2.0039 H   0  0  0  0  0  0  0  0  0  0  0  0
   -6.1007   -4.3473    5.6382 H   0  0  0  0  0  0  0  0  0  0  0  0
  1  2  2  0  0  0  0
  2  3  1  0  0  0  0
  3  4  1  0  0  0  0
  4  5  1  0  0  0  0
  5  6  1  0  0  0  0
  6  7  1  0  0  0  0
  2  8  1  0  0  0  0
  8  9  1  0  0  0  0
  9 10  1  0  0  0  0
 10 11  2  0  0  0  0
 11 12  1  0  0  0  0
 12 13  1  0  0  0  0
 12 14  2  0  0  0  0
 14 15  1  0  0  0  0
 15 16  2  0  0  0  0
 10 16  1  0  0  0  0
 16 17  1  0  0  0  0
 17 18  1  0  0  0  0
 17 19  2  0  0  0  0
 19 20  1  0  0  0  0
 20 21  1  0  0  0  0
  9 21  1  0  0  0  0
 21 22  2  0  0  0  0
 19 23  1  0  0  0  0
 23 24  2  0  0  0  0
 18 24  1  0  0  0  0
 24 25  1  0  0  0  0
 25 26  2  0  0  0  0
 26 27  1  0  0  0  0
 27 28  1  0  0  0  0
 27 29  2  0  0  0  0
 23 29  1  0  0  0  0
  3 30  1  0  0  0  0
  4 31  1  0  0  0  0
  4 32  1  0  0  0  0
  5 33  1  0  0  0  0
  5 34  1  0  0  0  0
  6 35  1  0  0  0  0
  6 36  1  0  0  0  0
  7 37  1  0  0  0  0
  7 38  1  0  0  0  0
  7 39  1  0  0  0  0
  8 40  1  0  0  0  0
  8 41  1  0  0  0  0
 11 42  1  0  0  0  0
 14 43  1  0  0  0  0
 15 44  1  0  0  0  0
 18 45  1  0  0  0  0
 20 46  1  0  0  0  0
 20 47  1  0  0  0  0
 25 48  1  0  0  0  0
 26 49  1  0  0  0  0
 29 50  1  0  0  0  0
M  CHG  1   6   1
M  END
$$$$
> 819_AKC_s11696-023-03214-3

  Mrv1816 12112308203D              61.38000

 43 44  0  0  0  0            999 V2000
    0.3187    1.4804    0.9850 C   0  0  0  0  0  0  0  0  0  0  0  0
    0.8268    0.2275    0.5789 C   0  0  0  0  0  0  0  0  0  0  0  0
    1.9678   -0.3098    1.2140 C   0  0  0  0  0  0  0  0  0  0  0  0
    2.5766    0.4010    2.2695 C   0  0  0  0  0  0  0  0  0  0  0  0
    2.0715    1.6570    2.6553 C   0  0  0  0  0  0  0  0  0  0  0  0
    0.9244    2.2112    2.0360 C   0  0  0  0  0  0  0  0  0  0  0  0
    0.2184   -0.4591   -0.4384 O   0  0  0  0  0  0  0  0  0  0  0  0
    2.4517   -1.5380    0.8437 O   0  0  0  0  0  0  0  0  0  0  0  0
    3.6613   -0.1186    2.9226 O   0  0  0  0  0  0  0  0  0  0  0  0
    3.2996   -0.8083    4.1332 C   0  0  0  0  0  0  0  0  0  0  0  0
    3.4957   -1.4679   -0.1438 C   0  0  0  0  0  0  0  0  0  0  0  0
   -0.8560   -1.2989    0.0206 C   0  0  0  0  0  0  0  0  0  0  0  0
    0.3703    3.4106    2.4755 C   0  0  0  0  0  0  0  0  0  0  0  0
    1.0256    4.2278    3.2180 N   0  0  0  0  0  0  0  0  0  0  0  0
    0.5654    5.2986    3.7120 N   0  0  0  0  0  0  0  0  0  0  0  0
    1.3016    6.1141    4.4535 C   0  0  0  0  0  0  0  0  0  0  0  0
    0.4982    6.9174    5.7192 S   0  0  0  0  0  0  0  0  0  0  0  0
    2.6142    6.3289    4.3383 N   0  0  0  0  0  0  0  0  0  0  0  0
    3.3822    6.3767    3.2040 C   0  0  0  0  0  0  0  0  0  0  0  0
    3.0789    6.5144    5.1691 H   0  0  0  0  0  0  0  0  0  0  0  0
    3.7194    6.5541    0.7766 C   0  0  0  0  0  0  0  0  0  0  0  0
    2.8641    6.4816    1.8902 C   0  0  0  0  0  0  0  0  0  0  0  0
    4.7861    6.3697    3.3678 C   0  0  0  0  0  0  0  0  0  0  0  0
    5.6474    6.4471    2.2566 C   0  0  0  0  0  0  0  0  0  0  0  0
    5.1140    6.5324    0.9570 C   0  0  0  0  0  0  0  0  0  0  0  0
    6.1382    6.6160   -0.3879 Cl  0  0  0  0  0  0  0  0  0  0  0  0
   -0.5097    1.8495    0.5083 H   0  0  0  0  0  0  0  0  0  0  0  0
    2.5416    2.1490    3.4201 H   0  0  0  0  0  0  0  0  0  0  0  0
    4.2150   -1.1837    4.5885 H   0  0  0  0  0  0  0  0  0  0  0  0
    2.8137   -0.1403    4.8503 H   0  0  0  0  0  0  0  0  0  0  0  0
    2.6453   -1.6600    3.9293 H   0  0  0  0  0  0  0  0  0  0  0  0
    3.8277   -2.4844   -0.3618 H   0  0  0  0  0  0  0  0  0  0  0  0
    3.1339   -1.0207   -1.0733 H   0  0  0  0  0  0  0  0  0  0  0  0
    4.3561   -0.9020    0.2235 H   0  0  0  0  0  0  0  0  0  0  0  0
   -1.2682   -1.8205   -0.8428 H   0  0  0  0  0  0  0  0  0  0  0  0
   -0.5046   -2.0485    0.7347 H   0  0  0  0  0  0  0  0  0  0  0  0
   -1.6561   -0.7086    0.4750 H   0  0  0  0  0  0  0  0  0  0  0  0
   -0.5673    3.6336    2.2234 H   0  0  0  0  0  0  0  0  0  0  0  0
   -0.3797    5.4892    3.6109 H   0  0  0  0  0  0  0  0  0  0  0  0
    3.3201    6.6256   -0.1636 H   0  0  0  0  0  0  0  0  0  0  0  0
    1.8599    6.5227    1.7271 H   0  0  0  0  0  0  0  0  0  0  0  0
    5.1952    6.3127    4.3045 H   0  0  0  0  0  0  0  0  0  0  0  0
    6.6607    6.4410    2.4001 H   0  0  0  0  0  0  0  0  0  0  0  0
  1  2  1  0  0  0  0
  2  3  2  0  0  0  0
  3  4  1  0  0  0  0
  4  5  2  0  0  0  0
  5  6  1  0  0  0  0
  1  6  2  0  0  0  0
  2  7  1  0  0  0  0
  3  8  1  0  0  0  0
  4  9  1  0  0  0  0
  9 10  1  0  0  0  0
  8 11  1  0  0  0  0
  7 12  1  0  0  0  0
  6 13  1  0  0  0  0
 13 14  2  0  0  0  0
 14 15  1  0  0  0  0
 15 16  1  0  0  0  0
 16 17  2  0  0  0  0
 16 18  1  0  0  0  0
 18 19  1  0  0  0  0
 18 20  1  0  0  0  0
 21 22  1  0  0  0  0
 23 24  2  0  0  0  0
 24 25  1  0  0  0  0
 21 25  2  0  0  0  0
 22 19  2  0  0  0  0
 19 23  1  0  0  0  0
 25 26  1  0  0  0  0
  1 27  1  0  0  0  0
  5 28  1  0  0  0  0
 10 29  1  0  0  0  0
 10 30  1  0  0  0  0
 10 31  1  0  0  0  0
 11 32  1  0  0  0  0
 11 33  1  0  0  0  0
 11 34  1  0  0  0  0
 12 35  1  0  0  0  0
 12 36  1  0  0  0  0
 12 37  1  0  0  0  0
 13 38  1  0  0  0  0
 15 39  1  0  0  0  0
 21 40  1  0  0  0  0
 22 41  1  0  0  0  0
 23 42  1  0  0  0  0
 24 43  1  0  0  0  0
M  END
$$$$
> 820_AKC_s11686-023-00746-2
5452
  -OEChem-12122309563D

 51 54  0     1  0  0  0  0  0999 V2000
   -3.7686   -1.2561   -0.1060 S   0  0  0  0  0  0  0  0  0  0  0  0
    1.8999   -4.0273    0.6462 S   0  0  0  0  0  0  0  0  0  0  0  0
    3.2614    2.5755    0.3773 N   0  0  2  0  0  0  0  0  0  0  0  0
   -1.0269    0.1574   -0.4924 N   0  0  0  0  0  0  0  0  0  0  0  0
    2.3530    1.9435   -0.5987 C   0  0  1  0  0  0  0  0  0  0  0  0
    3.1376    0.9323   -1.4567 C   0  0  0  0  0  0  0  0  0  0  0  0
    1.0950    1.2965    0.0012 C   0  0  0  0  0  0  0  0  0  0  0  0
    3.8808   -0.0983   -0.6120 C   0  0  0  0  0  0  0  0  0  0  0  0
    3.9444    1.6114    1.2473 C   0  0  0  0  0  0  0  0  0  0  0  0
    4.7460    0.5967    0.4317 C   0  0  0  0  0  0  0  0  0  0  0  0
    0.1764    0.7512   -1.0894 C   0  0  0  0  0  0  0  0  0  0  0  0
    2.6197    3.6270    1.1610 C   0  0  0  0  0  0  0  0  0  0  0  0
   -0.9669   -1.2111   -0.1265 C   0  0  0  0  0  0  0  0  0  0  0  0
   -2.1337    1.0140   -0.2650 C   0  0  0  0  0  0  0  0  0  0  0  0
   -2.1422   -1.9542    0.1005 C   0  0  0  0  0  0  0  0  0  0  0  0
   -3.4247    0.4913   -0.0520 C   0  0  0  0  0  0  0  0  0  0  0  0
    0.2615   -1.8815    0.0625 C   0  0  0  0  0  0  0  0  0  0  0  0
   -1.9928    2.4178   -0.2050 C   0  0  0  0  0  0  0  0  0  0  0  0
   -2.0769   -3.3091    0.4715 C   0  0  0  0  0  0  0  0  0  0  0  0
   -4.5175    1.3451    0.1809 C   0  0  0  0  0  0  0  0  0  0  0  0
    0.3208   -3.2269    0.4363 C   0  0  0  0  0  0  0  0  0  0  0  0
   -3.0815    3.2615    0.0319 C   0  0  0  0  0  0  0  0  0  0  0  0
   -0.8496   -3.9422    0.6380 C   0  0  0  0  0  0  0  0  0  0  0  0
   -4.3457    2.7247    0.2219 C   0  0  0  0  0  0  0  0  0  0  0  0
    2.6306   -3.8394   -1.0045 C   0  0  0  0  0  0  0  0  0  0  0  0
    2.0199    2.7343   -1.2852 H   0  0  0  0  0  0  0  0  0  0  0  0
    3.8878    1.4938   -2.0330 H   0  0  0  0  0  0  0  0  0  0  0  0
    2.5304    0.4349   -2.2152 H   0  0  0  0  0  0  0  0  0  0  0  0
    0.5619    2.0343    0.6055 H   0  0  0  0  0  0  0  0  0  0  0  0
    1.3707    0.5212    0.7204 H   0  0  0  0  0  0  0  0  0  0  0  0
    4.5094   -0.7234   -1.2561 H   0  0  0  0  0  0  0  0  0  0  0  0
    3.1848   -0.7649   -0.1032 H   0  0  0  0  0  0  0  0  0  0  0  0
    3.2340    1.0883    1.8991 H   0  0  0  0  0  0  0  0  0  0  0  0
    4.6458    2.1400    1.9048 H   0  0  0  0  0  0  0  0  0  0  0  0
    5.1897   -0.1491    1.1011 H   0  0  0  0  0  0  0  0  0  0  0  0
    5.5780    1.1080   -0.0694 H   0  0  0  0  0  0  0  0  0  0  0  0
    0.6600   -0.0016   -1.7182 H   0  0  0  0  0  0  0  0  0  0  0  0
   -0.0867    1.5429   -1.8038 H   0  0  0  0  0  0  0  0  0  0  0  0
    2.0987    4.3382    0.5106 H   0  0  0  0  0  0  0  0  0  0  0  0
    3.3757    4.2029    1.7070 H   0  0  0  0  0  0  0  0  0  0  0  0
    1.9067    3.2362    1.8946 H   0  0  0  0  0  0  0  0  0  0  0  0
    1.1993   -1.3727   -0.0967 H   0  0  0  0  0  0  0  0  0  0  0  0
   -1.0431    2.9165   -0.3653 H   0  0  0  0  0  0  0  0  0  0  0  0
   -2.9845   -3.8867    0.6352 H   0  0  0  0  0  0  0  0  0  0  0  0
   -5.5171    0.9428    0.3335 H   0  0  0  0  0  0  0  0  0  0  0  0
   -2.9370    4.3376    0.0613 H   0  0  0  0  0  0  0  0  0  0  0  0
   -0.8296   -4.9900    0.9256 H   0  0  0  0  0  0  0  0  0  0  0  0
   -5.1954    3.3758    0.4029 H   0  0  0  0  0  0  0  0  0  0  0  0
    2.7533   -2.7884   -1.2708 H   0  0  0  0  0  0  0  0  0  0  0  0
    1.9983   -4.3268   -1.7517 H   0  0  0  0  0  0  0  0  0  0  0  0
    3.6140   -4.3168   -1.0160 H   0  0  0  0  0  0  0  0  0  0  0  0
  1 15  1  0  0  0  0
  1 16  1  0  0  0  0
  2 21  1  0  0  0  0
  2 25  1  0  0  0  0
  3  5  1  0  0  0  0
  3  9  1  0  0  0  0
  3 12  1  0  0  0  0
  4 11  1  0  0  0  0
  4 13  1  0  0  0  0
  4 14  1  0  0  0  0
  5  6  1  0  0  0  0
  5  7  1  0  0  0  0
  5 26  1  0  0  0  0
  6  8  1  0  0  0  0
  6 27  1  0  0  0  0
  6 28  1  0  0  0  0
  7 11  1  0  0  0  0
  7 29  1  0  0  0  0
  7 30  1  0  0  0  0
  8 10  1  0  0  0  0
  8 31  1  0  0  0  0
  8 32  1  0  0  0  0
  9 10  1  0  0  0  0
  9 33  1  0  0  0  0
  9 34  1  0  0  0  0
 10 35  1  0  0  0  0
 10 36  1  0  0  0  0
 11 37  1  0  0  0  0
 11 38  1  0  0  0  0
 12 39  1  0  0  0  0
 12 40  1  0  0  0  0
 12 41  1  0  0  0  0
 13 15  2  0  0  0  0
 13 17  1  0  0  0  0
 14 16  1  0  0  0  0
 14 18  2  0  0  0  0
 15 19  1  0  0  0  0
 16 20  2  0  0  0  0
 17 21  2  0  0  0  0
 17 42  1  0  0  0  0
 18 22  1  0  0  0  0
 18 43  1  0  0  0  0
 19 23  2  0  0  0  0
 19 44  1  0  0  0  0
 20 24  1  0  0  0  0
 20 45  1  0  0  0  0
 21 23  1  0  0  0  0
 22 24  2  0  0  0  0
 22 46  1  0  0  0  0
 23 47  1  0  0  0  0
 24 48  1  0  0  0  0
 25 49  1  0  0  0  0
 25 50  1  0  0  0  0
 25 51  1  0  0  0  0
M  END
> <PUBCHEM_COMPOUND_CID>
5452

> <PUBCHEM_CONFORMER_RMSD>
0.8

> <PUBCHEM_CONFORMER_DIVERSEORDER>
1
64
23
59
49
37
62
45
26
53
63
40
57
44
61
3
48
33
20
6
5
27
46
12
2
47
54
7
29
36
4
52
15
21
22
50
11
55
43
56
24
14
13
18
32
35
31
10
16
19
9
51
34
58
25
8
60
17
30
39
41
42
28
38

> <PUBCHEM_MMFF94_PARTIAL_CHARGES>
28
1 -0.2
11 0.37
12 0.27
13 0.1
14 0.1
15 0.1
16 0.1
17 -0.15
18 -0.15
19 -0.15
2 -0.33
20 -0.15
21 0.1
22 -0.15
23 -0.15
24 -0.15
25 0.23
3 -0.81
4 -0.57
42 0.15
43 0.15
44 0.15
45 0.15
46 0.15
47 0.15
48 0.15
5 0.27
9 0.27

> <PUBCHEM_EFFECTIVE_ROTOR_COUNT>
5.6

> <PUBCHEM_PHARMACOPHORE_FEATURES>
7
1 25 hydrophobe
1 3 cation
1 4 cation
6 1 4 13 14 15 16 rings
6 13 15 17 19 21 23 rings
6 14 16 18 20 22 24 rings
6 3 5 6 8 9 10 rings

> <PUBCHEM_HEAVY_ATOM_COUNT>
25

> <PUBCHEM_ATOM_DEF_STEREO_COUNT>
0

> <PUBCHEM_ATOM_UDEF_STEREO_COUNT>
1

> <PUBCHEM_BOND_DEF_STEREO_COUNT>
0

> <PUBCHEM_BOND_UDEF_STEREO_COUNT>
0

> <PUBCHEM_ISOTOPIC_ATOM_COUNT>
0

> <PUBCHEM_COMPONENT_COUNT>
1

> <PUBCHEM_CACTVS_TAUTO_COUNT>
1

> <PUBCHEM_CONFORMER_ID>
0000154C00000001

> <PUBCHEM_MMFF94_ENERGY>
77.8809

> <PUBCHEM_FEATURE_SELFOVERLAP>
35.553

> <PUBCHEM_SHAPE_FINGERPRINT>
10319926 262 18196920271058060848
1100329 8 18050006584590390075
11049842 53 18189637049958011060
11370993 70 18411414033663103752
11513181 2 18272929380246282983
12173636 292 18266174113832174325
12422481 6 17899951886741731818
12553582 1 17112141192164861406
12788726 201 17683815684484488618
12925494 130 18122626051083505881
13140716 1 18048321334012947027
138480 1 17616813232404589555
14081887 123 17763458813495595920
14178342 30 18119519093094725952
14466204 15 18412257316601524624
14790565 3 17904494999567129958
14844126 61 17687731058217944256
14866123 147 18408882945111567834
14955137 171 17547877160942651603
15042514 8 18119251911742614363
15230672 131 18334580102113677126
15927050 60 18411703149276280174
16110190 28 18117534316167360138
19591789 44 18120378661599015183
20028762 73 17550399866035686863
20510252 161 18197220462889946905
20642791 178 17828503374468330388
20642791 35 17979077076713742110
23558518 356 18262801907327364582
23559900 14 18341901826735426516
25147074 1 17985537855095778805
3084891 72 18121777498335945455
3091708 16 9266996775979704787
3298306 158 18411983516193035348
338550 245 18261682475968421510
350125 39 18264497187349802045
352729 6 18118129297121710951
469060 322 18192454037582433345
5265222 85 18264222447293567452
5309563 4 16753250735339186384
532947 4 18194396693327385359
58807428 26 18408611353118056977
59755656 215 18409449155060899693
6443956 14 17977950077474301388
653340 110 18195520622340169978
79837 15 18335425698704549075
9709674 26 18270684306566867980
9981440 41 18335419050453916585

> <PUBCHEM_SHAPE_MULTIPOLES>
512.23
8.39
6.1
1.02
0.18
4.28
-0.06
-6.07
0.53
-1.54
1.42
-0.89
-0.17
0.86

> <PUBCHEM_SHAPE_SELFOVERLAP>
1064.011

> <PUBCHEM_SHAPE_VOLUME>
293.1

> <PUBCHEM_COORDINATE_TYPE>
2
5
10

$$$$
> 821_AKC_s11686-023-00746-2
163184355
  -OEChem-12122310033D

 65 70  0     1  0  0  0  0  0999 V2000
   -1.2571    1.8419    1.2909 O   0  0  0  0  0  0  0  0  0  0  0  0
   -1.3317    0.0766   -0.2930 O   0  0  0  0  0  0  0  0  0  0  0  0
   -3.5695   -0.5844   -0.2850 O   0  0  0  0  0  0  0  0  0  0  0  0
    2.0765    4.8150   -0.3159 O   0  5  0  0  0  0  0  0  0  0  0  0
    2.0312    4.1819    1.8821 O   0  0  0  0  0  0  0  0  0  0  0  0
   -0.5896   -2.5094    0.5949 O   0  0  0  0  0  0  0  0  0  0  0  0
   -2.4872   -4.5463   -0.2200 O   0  0  0  0  0  0  0  0  0  0  0  0
   -5.2199   -3.7566    0.5031 O   0  0  0  0  0  0  0  0  0  0  0  0
   -6.1404    0.3398    0.0726 O   0  0  0  0  0  0  0  0  0  0  0  0
    1.0703    1.2441    1.1083 N   0  3  0  0  0  0  0  0  0  0  0  0
    3.2451   -0.3657   -1.3799 N   0  0  0  0  0  0  0  0  0  0  0  0
    0.1340    3.0166   -0.9591 C   0  0  2  0  0  0  0  0  0  0  0  0
    0.2726    3.5236    0.4690 C   0  0  1  0  0  0  0  0  0  0  0  0
   -1.2717    2.3855   -1.1545 C   0  0  1  0  0  0  0  0  0  0  0  0
    0.0831    2.3312    1.3833 C   0  0  1  0  0  0  0  0  0  0  0  0
    1.2666    2.0198   -1.2552 C   0  0  0  0  0  0  0  0  0  0  0  0
   -1.6895    1.4303   -0.0098 C   0  0  2  0  0  0  0  0  0  0  0  0
    1.6169    1.0889   -0.1253 C   0  0  0  0  0  0  0  0  0  0  0  0
    2.5271    0.0351   -0.2745 C   0  0  0  0  0  0  0  0  0  0  0  0
    1.5907    4.2452    0.7004 C   0  0  0  0  0  0  0  0  0  0  0  0
   -2.3002    3.4765   -1.3036 C   0  0  0  0  0  0  0  0  0  0  0  0
    1.3662    0.4163    2.1339 C   0  0  0  0  0  0  0  0  0  0  0  0
   -2.2777   -0.8356    0.2633 C   0  0  1  0  0  0  0  0  0  0  0  0
    2.8628   -0.8319    0.7593 C   0  0  0  0  0  0  0  0  0  0  0  0
   -1.8221   -2.2529   -0.0784 C   0  0  2  0  0  0  0  0  0  0  0  0
    2.2597   -0.6370    2.0061 C   0  0  0  0  0  0  0  0  0  0  0  0
   -2.8556   -3.2917    0.3551 C   0  0  1  0  0  0  0  0  0  0  0  0
   -4.2586   -2.9059   -0.1157 C   0  0  2  0  0  0  0  0  0  0  0  0
   -4.5705   -1.4516    0.2509 C   0  0  2  0  0  0  0  0  0  0  0  0
    3.8084   -1.7756    0.2482 C   0  0  0  0  0  0  0  0  0  0  0  0
    4.0269   -1.4581   -1.0913 C   0  0  0  0  0  0  0  0  0  0  0  0
   -3.0383    3.6642   -2.4027 C   0  0  0  0  0  0  0  0  0  0  0  0
   -5.9154   -1.0038   -0.3129 C   0  0  0  0  0  0  0  0  0  0  0  0
    4.4996   -2.8731    0.8029 C   0  0  0  0  0  0  0  0  0  0  0  0
    4.9026   -2.1815   -1.9088 C   0  0  0  0  0  0  0  0  0  0  0  0
    5.3788   -3.6069   -0.0015 C   0  0  0  0  0  0  0  0  0  0  0  0
    5.5759   -3.2643   -1.3371 C   0  0  0  0  0  0  0  0  0  0  0  0
    0.2322    3.8398   -1.6807 H   0  0  0  0  0  0  0  0  0  0  0  0
   -0.5079    4.2658    0.6787 H   0  0  0  0  0  0  0  0  0  0  0  0
   -1.2605    1.8073   -2.0892 H   0  0  0  0  0  0  0  0  0  0  0  0
    0.2264    2.6320    2.4280 H   0  0  0  0  0  0  0  0  0  0  0  0
    2.1795    2.5668   -1.5208 H   0  0  0  0  0  0  0  0  0  0  0  0
    1.0088    1.4251   -2.1405 H   0  0  0  0  0  0  0  0  0  0  0  0
   -2.7820    1.4915    0.0497 H   0  0  0  0  0  0  0  0  0  0  0  0
   -2.4708    4.1408   -0.4603 H   0  0  0  0  0  0  0  0  0  0  0  0
    0.8640    0.6087    3.0760 H   0  0  0  0  0  0  0  0  0  0  0  0
   -2.2964   -0.6874    1.3517 H   0  0  0  0  0  0  0  0  0  0  0  0
   -1.6174   -2.3389   -1.1523 H   0  0  0  0  0  0  0  0  0  0  0  0
    2.4751   -1.2827    2.8510 H   0  0  0  0  0  0  0  0  0  0  0  0
   -2.8345   -3.4362    1.4416 H   0  0  0  0  0  0  0  0  0  0  0  0
    3.2023    0.0837   -2.2840 H   0  0  0  0  0  0  0  0  0  0  0  0
   -4.3376   -3.0546   -1.1994 H   0  0  0  0  0  0  0  0  0  0  0  0
   -4.5984   -1.3180    1.3410 H   0  0  0  0  0  0  0  0  0  0  0  0
   -3.7709    4.4629   -2.4424 H   0  0  0  0  0  0  0  0  0  0  0  0
   -2.9282    3.0317   -3.2765 H   0  0  0  0  0  0  0  0  0  0  0  0
   -6.7360   -1.6194    0.0675 H   0  0  0  0  0  0  0  0  0  0  0  0
   -5.9114   -1.0410   -1.4074 H   0  0  0  0  0  0  0  0  0  0  0  0
    4.3562   -3.1526    1.8428 H   0  0  0  0  0  0  0  0  0  0  0  0
   -0.7429   -2.4168    1.5507 H   0  0  0  0  0  0  0  0  0  0  0  0
    5.0561   -1.9150   -2.9492 H   0  0  0  0  0  0  0  0  0  0  0  0
   -2.5158   -4.4554   -1.1878 H   0  0  0  0  0  0  0  0  0  0  0  0
   -5.1617   -3.6263    1.4650 H   0  0  0  0  0  0  0  0  0  0  0  0
    5.9130   -4.4531    0.4223 H   0  0  0  0  0  0  0  0  0  0  0  0
    6.2633   -3.8471   -1.9449 H   0  0  0  0  0  0  0  0  0  0  0  0
   -6.9979    0.6060   -0.3009 H   0  0  0  0  0  0  0  0  0  0  0  0
  1 15  1  0  0  0  0
  1 17  1  0  0  0  0
  2 17  1  0  0  0  0
  2 23  1  0  0  0  0
  3 23  1  0  0  0  0
  3 29  1  0  0  0  0
  4 20  1  0  0  0  0
  5 20  2  0  0  0  0
  6 25  1  0  0  0  0
  6 59  1  0  0  0  0
  7 27  1  0  0  0  0
  7 61  1  0  0  0  0
  8 28  1  0  0  0  0
  8 62  1  0  0  0  0
  9 33  1  0  0  0  0
  9 65  1  0  0  0  0
 10 15  1  0  0  0  0
 10 18  2  0  0  0  0
 10 22  1  0  0  0  0
 11 19  1  0  0  0  0
 11 31  1  0  0  0  0
 11 51  1  0  0  0  0
 12 13  1  0  0  0  0
 12 14  1  0  0  0  0
 12 16  1  0  0  0  0
 12 38  1  0  0  0  0
 13 15  1  0  0  0  0
 13 20  1  0  0  0  0
 13 39  1  0  0  0  0
 14 17  1  0  0  0  0
 14 21  1  0  0  0  0
 14 40  1  0  0  0  0
 15 41  1  0  0  0  0
 16 18  1  0  0  0  0
 16 42  1  0  0  0  0
 16 43  1  0  0  0  0
 17 44  1  0  0  0  0
 18 19  1  0  0  0  0
 19 24  2  0  0  0  0
 21 32  2  0  0  0  0
 21 45  1  0  0  0  0
 22 26  2  0  0  0  0
 22 46  1  0  0  0  0
 23 25  1  0  0  0  0
 23 47  1  0  0  0  0
 24 26  1  0  0  0  0
 24 30  1  0  0  0  0
 25 27  1  0  0  0  0
 25 48  1  0  0  0  0
 26 49  1  0  0  0  0
 27 28  1  0  0  0  0
 27 50  1  0  0  0  0
 28 29  1  0  0  0  0
 28 52  1  0  0  0  0
 29 33  1  0  0  0  0
 29 53  1  0  0  0  0
 30 31  1  0  0  0  0
 30 34  2  0  0  0  0
 31 35  2  0  0  0  0
 32 54  1  0  0  0  0
 32 55  1  0  0  0  0
 33 56  1  0  0  0  0
 33 57  1  0  0  0  0
 34 36  1  0  0  0  0
 34 58  1  0  0  0  0
 35 37  1  0  0  0  0
 35 60  1  0  0  0  0
 36 37  2  0  0  0  0
 36 63  1  0  0  0  0
 37 64  1  0  0  0  0
M  CHG  2   4  -1  10   1
M  END
> <PUBCHEM_COMPOUND_CID>
163184355

> <PUBCHEM_CONFORMER_RMSD>
1

> <PUBCHEM_CONFORMER_DIVERSEORDER>
1
7
9
12
11
3
6
5
2
4
10
8

> <PUBCHEM_MMFF94_PARTIAL_CHARGES>
48
1 -0.56
10 -0.21
11 0.03
13 -0.11
14 0.14
15 0.77
16 0.14
17 0.56
18 0.22
19 -0.15
2 -0.56
20 0.91
21 -0.29
22 0.21
23 0.56
25 0.28
26 -0.15
27 0.28
28 0.28
29 0.28
3 -0.56
31 -0.15
32 -0.3
33 0.28
34 -0.15
35 -0.15
36 -0.15
37 -0.15
4 -0.9
45 0.15
46 0.15
49 0.15
5 -0.9
51 0.27
54 0.15
55 0.15
58 0.15
59 0.4
6 -0.68
60 0.15
61 0.4
62 0.4
63 0.15
64 0.15
65 0.4
7 -0.68
8 -0.68
9 -0.68

> <PUBCHEM_EFFECTIVE_ROTOR_COUNT>
7.2

> <PUBCHEM_PHARMACOPHORE_FEATURES>
23
1 1 acceptor
1 11 cation
1 11 donor
1 2 acceptor
1 3 acceptor
1 32 hydrophobe
1 4 acceptor
1 5 acceptor
1 6 acceptor
1 6 donor
1 7 acceptor
1 7 donor
1 8 acceptor
1 8 donor
1 9 acceptor
1 9 donor
3 4 5 20 anion
5 11 19 24 30 31 rings
6 1 12 13 14 15 17 rings
6 10 12 13 15 16 18 rings
6 10 18 19 22 24 26 rings
6 3 23 25 27 28 29 rings
6 30 31 34 35 36 37 rings

> <PUBCHEM_HEAVY_ATOM_COUNT>
37

> <PUBCHEM_ATOM_DEF_STEREO_COUNT>
10

> <PUBCHEM_ATOM_UDEF_STEREO_COUNT>
0

> <PUBCHEM_BOND_DEF_STEREO_COUNT>
0

> <PUBCHEM_BOND_UDEF_STEREO_COUNT>
0

> <PUBCHEM_ISOTOPIC_ATOM_COUNT>
0

> <PUBCHEM_COMPONENT_COUNT>
1

> <PUBCHEM_CACTVS_TAUTO_COUNT>
-1

> <PUBCHEM_CONFORMER_ID>
09B9FEE300000001

> <PUBCHEM_MMFF94_ENERGY>
108.1224

> <PUBCHEM_FEATURE_SELFOVERLAP>
118.599

> <PUBCHEM_SHAPE_FINGERPRINT>
10032420 55 17677326105017532025
10169797 241 17753338852433652634
10483366 6 18191015708880016645
10622 236 17461711793254558690
11093857 51 17257364675255702037
11285246 1 18114192946583912258
12107183 9 18271825505632366707
12788726 201 18263376793586355738
131258 43 17987260927107284092
13140716 1 18191291866449948163
13911987 19 17758392972600615781
14068700 675 18130790023233589003
14117953 113 18265892467980035447
14863182 85 17615972544090938340
14866123 147 18198071279042658331
15324884 4 17985800719240301864
15664445 248 17827077621494363149
16090146 7 17763191241217778588
17909252 39 18193847156672913144
19958102 18 17691409608009176462
20567600 347 17544190940514447464
20764821 26 17687454673257429035
20775438 99 17906720754853126239
20775530 9 18413393154730660046
21133410 32 16373857441475782410
21792965 302 18337118947001531918
23559900 14 18341894142785446579
32027 91 18412259554274106911
38695281 34 17404018622642274720
437815 12 18273214166763311311
4461854 278 16751855450947626370
44880168 125 17774440473636439918
463206 1 18336272270739118402
563151 74 16485539196161655450
613672 6 18269254833992622214
70251023 43 18335993067920660051
70634741 139 18338241449742575414

> <PUBCHEM_SHAPE_MULTIPOLES>
698.66
10.95
6.95
1.7
0.82
2.66
-0.02
-14.98
-3.37
-2.76
-0.15
1.05
1.16
2.54

> <PUBCHEM_SHAPE_SELFOVERLAP>
1546.599

> <PUBCHEM_SHAPE_VOLUME>
369.5

> <PUBCHEM_COORDINATE_TYPE>
2
5
10

$$$$
> 822_AKC_0074-02760170217

  Mrv0541 01252413313D             104.49000

 48 49  0  0  1  0            999 V2000
   35.7876    6.3554   44.0550 C   0  0  0  0  0  0  0  0  0  0  0  0
   35.4128    6.4474   45.5675 C   0  0  1  0  0  0  0  0  0  0  0  0
   36.7593    6.4973   46.3645 C   0  0  0  0  0  0  0  0  0  0  0  0
   34.4618    7.6552   45.9600 C   0  0  1  0  0  0  0  0  0  0  0  0
   33.3839    8.0351   44.8797 C   0  0  1  0  0  0  0  0  0  0  0  0
   32.6027    9.3451   45.2052 C   0  0  1  0  0  0  0  0  0  0  0  0
   32.0846    9.5372   46.6820 C   0  0  1  0  0  0  0  0  0  0  0  0
   31.7769   11.0614   46.8881 C   0  0  1  0  0  0  0  0  0  0  0  0
   30.8647   11.5813   45.9253 O   0  0  0  0  0  0  0  0  0  0  0  0
   30.7721    8.9247   46.7794 O   0  0  0  0  0  0  0  0  0  0  0  0
   30.1644    8.0121   47.6039 C   0  0  0  0  0  0  0  0  0  0  0  0
   28.7273    7.7567   47.4234 C   0  0  0  0  0  0  0  0  0  0  0  0
   30.7510    7.3970   48.5230 O   0  0  0  0  0  0  0  0  0  0  0  0
   33.2042    9.0441   47.6894 C   0  0  2  0  0  0  0  0  0  0  0  0
   33.6804    7.5720   47.3493 C   0  0  2  0  0  0  0  0  0  0  0  0
   34.2017    6.6363   48.3796 C   0  0  0  0  0  0  0  0  0  0  0  0
   34.5131    6.7285   49.7015 C   0  0  0  0  0  0  0  0  0  0  0  0
   34.4376    7.9446   50.5214 C   0  0  2  0  0  0  0  0  0  0  0  0
   34.1044    9.1531   49.8663 O   0  0  0  0  0  0  0  0  0  0  0  0
   32.9876    9.2730   49.1275 C   0  0  0  0  0  0  0  0  0  0  0  0
   31.9152    9.6202   49.6715 O   0  0  0  0  0  0  0  0  0  0  0  0
   34.9150    5.5608   50.3942 C   0  0  0  0  0  0  0  0  0  0  0  0
   34.7814    4.3083   49.8813 O   0  0  0  0  0  0  0  0  0  0  0  0
   35.4093    5.5918   51.5461 O   0  0  0  0  0  0  0  0  0  0  0  0
   34.9138    6.1045   43.4522 H   0  0  0  0  0  0  0  0  0  0  0  0
   36.5315    5.5738   43.8827 H   0  0  0  0  0  0  0  0  0  0  0  0
   36.2019    7.3029   43.7042 H   0  0  0  0  0  0  0  0  0  0  0  0
   34.9049    5.5102   45.8048 H   0  0  0  0  0  0  0  0  0  0  0  0
   37.3274    5.5766   46.2183 H   0  0  0  0  0  0  0  0  0  0  0  0
   36.6113    6.6191   47.4345 H   0  0  0  0  0  0  0  0  0  0  0  0
   37.3694    7.3371   46.0249 H   0  0  0  0  0  0  0  0  0  0  0  0
   35.1421    8.5135   45.9891 H   0  0  0  0  0  0  0  0  0  0  0  0
   33.8567    8.1996   43.9070 H   0  0  0  0  0  0  0  0  0  0  0  0
   32.6772    7.2090   44.7594 H   0  0  0  0  0  0  0  0  0  0  0  0
   33.2725   10.1745   44.9550 H   0  0  0  0  0  0  0  0  0  0  0  0
   31.7584    9.4084   44.5106 H   0  0  0  0  0  0  0  0  0  0  0  0
   31.3273   11.2387   47.8646 H   0  0  0  0  0  0  0  0  0  0  0  0
   32.6942   11.6502   46.8230 H   0  0  0  0  0  0  0  0  0  0  0  0
   30.8167   12.5391   46.1306 H   0  0  0  0  0  0  0  0  0  0  0  0
   28.1987    8.0143   48.3434 H   0  0  0  0  0  0  0  0  0  0  0  0
   28.3295    8.3701   46.6129 H   0  0  0  0  0  0  0  0  0  0  0  0
   28.5447    6.7055   47.1903 H   0  0  0  0  0  0  0  0  0  0  0  0
   34.0534    9.7110   47.5018 H   0  0  0  0  0  0  0  0  0  0  0  0
   32.7586    7.0311   47.1170 H   0  0  0  0  0  0  0  0  0  0  0  0
   34.3026    5.7234   47.9992 H   0  0  0  0  0  0  0  0  0  0  0  0
   35.4117    8.1278   50.9812 H   0  0  0  0  0  0  0  0  0  0  0  0
   33.7059    7.7899   51.3199 H   0  0  0  0  0  0  0  0  0  0  0  0
   35.0694    3.5164   50.3864 H   0  0  0  0  0  0  0  0  0  0  0  0
  1  2  1  0  0  0  0
  2  3  1  0  0  0  0
  4  2  1  0  0  0  0
  4  5  1  0  0  0  0
  5  6  1  0  0  0  0
  6  7  1  0  0  0  0
  7  8  1  0  0  0  0
  8  9  1  0  0  0  0
  7 10  1  0  0  0  0
 10 11  1  0  0  0  0
 11 12  1  0  0  0  0
 11 13  2  0  0  0  0
  7 14  1  0  0  0  0
 14 15  1  0  0  0  0
  4 15  1  0  0  0  0
 15 16  1  0  0  0  0
 16 17  2  0  0  0  0
 17 18  1  0  0  0  0
 18 19  1  0  0  0  0
 19 20  1  0  0  0  0
 14 20  1  0  0  0  0
 20 21  2  0  0  0  0
 17 22  1  0  0  0  0
 22 23  1  0  0  0  0
 22 24  2  0  0  0  0
  1 25  1  0  0  0  0
  1 26  1  0  0  0  0
  1 27  1  0  0  0  0
  2 28  1  0  0  0  0
  3 29  1  0  0  0  0
  3 30  1  0  0  0  0
  3 31  1  0  0  0  0
  4 32  1  0  0  0  0
  5 33  1  0  0  0  0
  5 34  1  0  0  0  0
  6 35  1  0  0  0  0
  6 36  1  0  0  0  0
  8 37  1  0  0  0  0
  8 38  1  0  0  0  0
  9 39  1  0  0  0  0
 12 40  1  0  0  0  0
 12 41  1  0  0  0  0
 12 42  1  0  0  0  0
 14 43  1  0  0  0  0
 15 44  1  0  0  0  0
 16 45  1  0  0  0  0
 18 46  1  0  0  0  0
 18 47  1  0  0  0  0
 23 48  1  0  0  0  0
M  END
$$$$
> 823_AKC_scitranslmed.adh9902

  Mrv0541 01252413303D              64.59000

 36 39  0  0  0  0            999 V2000
    1.2359    0.0058    0.0308 N   0  0  0  0  0  0  0  0  0  0  0  0
    0.0879   -0.0071   -0.0010 C   0  0  0  0  0  0  0  0  0  0  0  0
   -1.2136   -0.0152   -0.0369 C   0  0  0  0  0  0  0  0  0  0  0  0
   -1.9342    1.1077   -0.5053 C   0  0  0  0  0  0  0  0  0  0  0  0
   -3.3438    1.0964   -0.5233 C   0  0  0  0  0  0  0  0  0  0  0  0
   -4.0619   -0.0302   -0.0612 C   0  0  0  0  0  0  0  0  0  0  0  0
   -5.4704   -0.0284   -0.0321 C   0  0  0  0  0  0  0  0  0  0  0  0
   -6.3170   -0.8960   -0.7431 C   0  0  0  0  0  0  0  0  0  0  0  0
   -5.9406   -1.9774   -1.6731 C   0  0  0  0  0  0  0  0  0  0  0  0
   -7.5936   -0.5705   -0.4708 N   0  0  0  0  0  0  0  0  0  0  0  0
   -7.6148    0.4720    0.3675 C   0  0  0  0  0  0  0  0  0  0  0  0
   -8.6855    1.1284    0.8750 N   0  0  0  0  0  0  0  0  0  0  0  0
   -8.4847    2.1657    1.7306 C   0  0  0  0  0  0  0  0  0  0  0  0
   -9.5215    2.8554    2.2255 N   0  0  0  0  0  0  0  0  0  0  0  0
   -7.2217    2.5227    2.0842 N   0  0  0  0  0  0  0  0  0  0  0  0
   -6.1109    1.8893    1.6139 C   0  0  0  0  0  0  0  0  0  0  0  0
   -4.8061    2.3491    2.1268 C   0  0  0  0  0  0  0  0  0  0  0  0
   -6.3063    0.8336    0.6883 C   0  0  0  0  0  0  0  0  0  0  0  0
   -3.3289   -1.1516    0.3770 C   0  0  0  0  0  0  0  0  0  0  0  0
   -1.9401   -1.1464    0.3878 C   0  0  0  0  0  0  0  0  0  0  0  0
   -1.4463   -2.3161    0.8439 O   0  0  0  0  0  0  0  0  0  0  0  0
   -2.6390   -3.0751    1.1055 C   0  0  2  0  0  0  0  0  0  0  0  0
   -3.8287   -2.3121    0.8443 O   0  0  0  0  0  0  0  0  0  0  0  0
   -1.4479    1.9451   -0.8370 H   0  0  0  0  0  0  0  0  0  0  0  0
   -3.8404    1.9196   -0.8728 H   0  0  0  0  0  0  0  0  0  0  0  0
   -5.8242   -2.9164   -1.1305 H   0  0  0  0  0  0  0  0  0  0  0  0
   -5.0071   -1.7448   -2.1878 H   0  0  0  0  0  0  0  0  0  0  0  0
   -6.7226   -2.0981   -2.4231 H   0  0  0  0  0  0  0  0  0  0  0  0
   -8.3741   -1.0200   -0.8286 H   0  0  0  0  0  0  0  0  0  0  0  0
  -10.4263    2.6179    1.9756 H   0  0  0  0  0  0  0  0  0  0  0  0
   -9.3642    3.6026    2.8233 H   0  0  0  0  0  0  0  0  0  0  0  0
   -4.9282    2.8640    3.0829 H   0  0  0  0  0  0  0  0  0  0  0  0
   -4.1378    1.5042    2.2909 H   0  0  0  0  0  0  0  0  0  0  0  0
   -4.3533    3.0476    1.4222 H   0  0  0  0  0  0  0  0  0  0  0  0
   -2.6376   -3.3840    2.1525 H   0  0  0  0  0  0  0  0  0  0  0  0
   -2.6393   -3.9703    0.4785 H   0  0  0  0  0  0  0  0  0  0  0  0
  1  2  3  0  0  0  0
  2  3  1  0  0  0  0
  3  4  2  0  0  0  0
  4  5  1  0  0  0  0
  5  6  2  0  0  0  0
  6  7  1  0  0  0  0
  7  8  2  0  0  0  0
  8  9  1  0  0  0  0
  8 10  1  0  0  0  0
 10 11  1  0  0  0  0
 11 12  2  0  0  0  0
 12 13  1  0  0  0  0
 13 14  1  0  0  0  0
 13 15  2  0  0  0  0
 15 16  1  0  0  0  0
 16 17  1  0  0  0  0
 16 18  2  0  0  0  0
 11 18  1  0  0  0  0
  7 18  1  0  0  0  0
  6 19  1  0  0  0  0
 19 20  2  0  0  0  0
  3 20  1  0  0  0  0
 20 21  1  0  0  0  0
 21 22  1  0  0  0  0
 22 23  1  0  0  0  0
 19 23  1  0  0  0  0
  4 24  1  0  0  0  0
  5 25  1  0  0  0  0
  9 26  1  0  0  0  0
  9 27  1  0  0  0  0
  9 28  1  0  0  0  0
 10 29  1  0  0  0  0
 14 30  1  0  0  0  0
 14 31  1  0  0  0  0
 17 32  1  0  0  0  0
 17 33  1  0  0  0  0
 17 34  1  0  0  0  0
 22 35  1  0  0  0  0
 22 36  1  0  0  0  0
M  END
$$$$
> 824_AKC_molecules29010074

  Mrv0541 01252413363D             137.77000

 58 63  0  0  0  0            999 V2000
   -4.6898   -2.6517    3.7448 C   0  0  0  0  0  0  0  0  0  0  0  0
   -5.7610   -3.3871    4.1243 N   0  0  0  0  0  0  0  0  0  0  0  0
   -6.6376   -2.9650    5.0655 C   0  0  0  0  0  0  0  0  0  0  0  0
   -6.4395   -1.7285    5.7152 C   0  0  0  0  0  0  0  0  0  0  0  0
   -5.3354   -0.9393    5.3188 C   0  0  0  0  0  0  0  0  0  0  0  0
   -4.4414   -1.3744    4.3052 C   0  0  0  0  0  0  0  0  0  0  0  0
   -2.7426   -2.5288    2.3735 C   0  0  0  0  0  0  0  0  0  0  0  0
   -3.8525   -3.1669    2.8206 N   0  0  0  0  0  0  0  0  0  0  0  0
   -3.3239   -0.6338    3.8230 C   0  0  0  0  0  0  0  0  0  0  0  0
   -2.4476   -1.2293    2.8660 C   0  0  0  0  0  0  0  0  0  0  0  0
   -0.8806   -2.3861    0.7794 C   0  0  0  0  0  0  0  0  0  0  0  0
   -1.8789   -3.1652    1.4330 C   0  0  0  0  0  0  0  0  0  0  0  0
   -1.1944   -0.5832    2.3710 C   0  0  2  0  0  0  0  0  0  0  0  0
   -0.8320   -1.0299    1.0466 N   0  0  0  0  0  0  0  0  0  0  0  0
   -1.9756   -4.5513    1.1553 C   0  0  0  0  0  0  0  0  0  0  0  0
   -1.0807   -5.1678    0.2654 C   0  0  0  0  0  0  0  0  0  0  0  0
   -0.0695   -4.4109   -0.3459 C   0  0  0  0  0  0  0  0  0  0  0  0
    0.0319   -3.0328   -0.0890 C   0  0  0  0  0  0  0  0  0  0  0  0
   -7.3751   -1.2882    6.7736 C   0  0  0  0  0  0  0  0  0  0  0  0
   -0.3359    0.1588   -0.1118 S   0  0  1  0  0  0  0  0  0  0  0  0
   -3.1160    0.7004    4.2715 C   0  0  0  0  0  0  0  0  0  0  0  0
   -2.0618    1.0294    5.1547 C   0  0  0  0  0  0  0  0  0  0  0  0
   -3.9840    1.7247    3.8257 C   0  0  0  0  0  0  0  0  0  0  0  0
   -3.8049    3.0514    4.2559 C   0  0  0  0  0  0  0  0  0  0  0  0
   -2.7496    3.3691    5.1288 C   0  0  0  0  0  0  0  0  0  0  0  0
   -1.8801    2.3593    5.5797 C   0  0  0  0  0  0  0  0  0  0  0  0
    1.1509    0.6165    0.2835 O   0  0  0  0  0  0  0  0  0  0  0  0
   -0.3028   -0.4462   -1.5982 O   0  0  0  0  0  0  0  0  0  0  0  0
   -1.4217    1.5662   -0.1245 C   0  0  0  0  0  0  0  0  0  0  0  0
   -1.7742    3.9734   -0.3781 C   0  0  0  0  0  0  0  0  0  0  0  0
   -0.9114    2.8626   -0.3405 C   0  0  0  0  0  0  0  0  0  0  0  0
   -2.8099    1.3987    0.0569 C   0  0  0  0  0  0  0  0  0  0  0  0
   -3.6714    2.5104    0.0339 C   0  0  0  0  0  0  0  0  0  0  0  0
   -3.1672    3.8087   -0.2055 C   0  0  0  0  0  0  0  0  0  0  0  0
   -4.1036    4.9550   -0.2891 C   0  0  0  0  0  0  0  0  0  0  0  0
   -7.4336   -3.5628    5.3008 H   0  0  0  0  0  0  0  0  0  0  0  0
   -5.1881   -0.0389    5.7809 H   0  0  0  0  0  0  0  0  0  0  0  0
   -0.3891   -0.8512    3.0595 H   0  0  0  0  0  0  0  0  0  0  0  0
   -1.2833    0.5013    2.4009 H   0  0  0  0  0  0  0  0  0  0  0  0
   -2.6872   -5.1309    1.6074 H   0  0  0  0  0  0  0  0  0  0  0  0
   -1.1585   -6.1704    0.0727 H   0  0  0  0  0  0  0  0  0  0  0  0
    0.5957   -4.8635   -0.9766 H   0  0  0  0  0  0  0  0  0  0  0  0
    0.7882   -2.5117   -0.5350 H   0  0  0  0  0  0  0  0  0  0  0  0
   -7.5991   -2.1178    7.4473 H   0  0  0  0  0  0  0  0  0  0  0  0
   -6.9575   -0.4760    7.3716 H   0  0  0  0  0  0  0  0  0  0  0  0
   -8.3029   -0.9428    6.3156 H   0  0  0  0  0  0  0  0  0  0  0  0
   -1.4220    0.3066    5.4922 H   0  0  0  0  0  0  0  0  0  0  0  0
   -4.7546    1.5116    3.1863 H   0  0  0  0  0  0  0  0  0  0  0  0
   -4.4442    3.7826    3.9350 H   0  0  0  0  0  0  0  0  0  0  0  0
   -2.6166    4.3343    5.4366 H   0  0  0  0  0  0  0  0  0  0  0  0
   -1.1170    2.5923    6.2187 H   0  0  0  0  0  0  0  0  0  0  0  0
   -1.3772    4.9028   -0.5329 H   0  0  0  0  0  0  0  0  0  0  0  0
    0.0895    3.0079   -0.4827 H   0  0  0  0  0  0  0  0  0  0  0  0
   -3.2031    0.4671    0.2046 H   0  0  0  0  0  0  0  0  0  0  0  0
   -4.6746    2.3653    0.1785 H   0  0  0  0  0  0  0  0  0  0  0  0
   -4.6172    5.0865    0.6646 H   0  0  0  0  0  0  0  0  0  0  0  0
   -3.5938    5.8886   -0.5358 H   0  0  0  0  0  0  0  0  0  0  0  0
   -4.8483    4.7660   -1.0653 H   0  0  0  0  0  0  0  0  0  0  0  0
  1  2  2  0  0  0  0
  2  3  1  0  0  0  0
  3  4  2  0  0  0  0
  4  5  1  0  0  0  0
  5  6  2  0  0  0  0
  8  1  1  0  0  0  0
  1  6  1  0  0  0  0
  6  9  1  0  0  0  0
  7  8  2  0  0  0  0
  9 10  2  0  0  0  0
 12  7  1  0  0  0  0
  7 10  1  0  0  0  0
 10 13  1  0  0  0  0
 13 14  1  0  0  0  0
 11 14  1  0  0  0  0
 12 15  2  0  0  0  0
 11 12  1  0  0  0  0
 11 18  2  0  0  0  0
 15 16  1  0  0  0  0
 16 17  2  0  0  0  0
 17 18  1  0  0  0  0
  4 19  1  0  0  0  0
 14 20  1  0  0  0  0
  9 21  1  0  0  0  0
 22 21  1  0  0  0  0
 21 23  2  0  0  0  0
 23 24  1  0  0  0  0
 24 25  2  0  0  0  0
 25 26  1  0  0  0  0
 22 26  2  0  0  0  0
 20 27  2  0  0  0  0
 20 28  2  0  0  0  0
 20 29  1  0  0  0  0
 31 29  2  0  0  0  0
 29 32  1  0  0  0  0
 30 31  1  0  0  0  0
 32 33  2  0  0  0  0
 33 34  1  0  0  0  0
 30 34  2  0  0  0  0
 34 35  1  0  0  0  0
  3 36  1  0  0  0  0
  5 37  1  0  0  0  0
 13 38  1  0  0  0  0
 13 39  1  0  0  0  0
 15 40  1  0  0  0  0
 16 41  1  0  0  0  0
 17 42  1  0  0  0  0
 18 43  1  0  0  0  0
 19 44  1  0  0  0  0
 19 45  1  0  0  0  0
 19 46  1  0  0  0  0
 22 47  1  0  0  0  0
 23 48  1  0  0  0  0
 24 49  1  0  0  0  0
 25 50  1  0  0  0  0
 26 51  1  0  0  0  0
 30 52  1  0  0  0  0
 31 53  1  0  0  0  0
 32 54  1  0  0  0  0
 33 55  1  0  0  0  0
 35 56  1  0  0  0  0
 35 57  1  0  0  0  0
 35 58  1  0  0  0  0
M  END
$$$$
> 825_AKC_preprints202312.1664.v1

  Mrv0541 01252413393D              71.81000

 43 46  0  0  0  0            999 V2000
    2.5359   -2.7560    1.6419 C   0  0  0  0  0  0  0  0  0  0  0  0
    3.1184   -3.9047    1.0728 C   0  0  0  0  0  0  0  0  0  0  0  0
    4.4946   -3.9063    0.7346 C   0  0  0  0  0  0  0  0  0  0  0  0
    5.2770   -2.7570    1.0058 C   0  0  0  0  0  0  0  0  0  0  0  0
    4.6367   -1.6476    1.5785 C   0  0  0  0  0  0  0  0  0  0  0  0
    3.3154   -1.6612    1.8531 N   0  0  0  0  0  0  0  0  0  0  0  0
    5.1890   -0.4899    1.9596 N   0  0  0  0  0  0  0  0  0  0  0  0
    4.1925    0.2488    2.4746 C   0  0  0  0  0  0  0  0  0  0  0  0
    2.9949   -0.4667    2.3768 C   0  0  0  0  0  0  0  0  0  0  0  0
    5.0916   -5.1114    0.1209 C   0  0  0  0  0  0  0  0  0  0  0  0
    1.2618    0.0524    2.9936 Se  0  0  0  0  0  0  0  0  0  0  0  0
    0.7294    1.0621    1.4599 C   0  0  0  0  0  0  0  0  0  0  0  0
    4.4116    1.5003    3.0720 C   0  0  0  0  0  0  0  0  0  0  0  0
    3.8562    2.6804    2.5335 C   0  0  0  0  0  0  0  0  0  0  0  0
    5.2249    1.5848    4.2254 C   0  0  0  0  0  0  0  0  0  0  0  0
    5.4587    2.8265    4.8442 C   0  0  0  0  0  0  0  0  0  0  0  0
    4.8876    3.9953    4.3087 C   0  0  0  0  0  0  0  0  0  0  0  0
    4.0844    3.9221    3.1554 C   0  0  0  0  0  0  0  0  0  0  0  0
    0.0984    1.2847   -0.8906 C   0  0  0  0  0  0  0  0  0  0  0  0
   -0.0666    2.6695   -0.7177 C   0  0  0  0  0  0  0  0  0  0  0  0
    0.1547    3.2536    0.5406 C   0  0  0  0  0  0  0  0  0  0  0  0
    0.5364    2.4485    1.6278 C   0  0  0  0  0  0  0  0  0  0  0  0
    0.4879    0.4710    0.1958 C   0  0  0  0  0  0  0  0  0  0  0  0
    0.6397   -0.8746   -0.0033 O   0  0  0  0  0  0  0  0  0  0  0  0
   -0.6021   -1.6003    0.0688 C   0  0  0  0  0  0  0  0  0  0  0  0
    1.5472   -2.7639    1.8991 H   0  0  0  0  0  0  0  0  0  0  0  0
    2.5419   -4.7324    0.9079 H   0  0  0  0  0  0  0  0  0  0  0  0
    6.2819   -2.7288    0.8102 H   0  0  0  0  0  0  0  0  0  0  0  0
    5.1559   -5.9081    0.8625 H   0  0  0  0  0  0  0  0  0  0  0  0
    6.0924   -4.9122   -0.2641 H   0  0  0  0  0  0  0  0  0  0  0  0
    4.4699   -5.4533   -0.7081 H   0  0  0  0  0  0  0  0  0  0  0  0
    3.2943    2.6495    1.6806 H   0  0  0  0  0  0  0  0  0  0  0  0
    5.6468    0.7426    4.6304 H   0  0  0  0  0  0  0  0  0  0  0  0
    6.0406    2.8773    5.6843 H   0  0  0  0  0  0  0  0  0  0  0  0
    5.0577    4.8978    4.7573 H   0  0  0  0  0  0  0  0  0  0  0  0
    3.6683    4.7708    2.7664 H   0  0  0  0  0  0  0  0  0  0  0  0
   -0.0682    0.8666   -1.8094 H   0  0  0  0  0  0  0  0  0  0  0  0
   -0.3545    3.2496   -1.5066 H   0  0  0  0  0  0  0  0  0  0  0  0
    0.0368    4.2623    0.6642 H   0  0  0  0  0  0  0  0  0  0  0  0
    0.6835    2.8786    2.5440 H   0  0  0  0  0  0  0  0  0  0  0  0
   -0.4001   -2.6415   -0.1856 H   0  0  0  0  0  0  0  0  0  0  0  0
   -1.0160   -1.5662    1.0809 H   0  0  0  0  0  0  0  0  0  0  0  0
   -1.3428   -1.2217   -0.6418 H   0  0  0  0  0  0  0  0  0  0  0  0
  1  2  2  0  0  0  0
  2  3  1  0  0  0  0
  3  4  2  0  0  0  0
  4  5  1  0  0  0  0
  1  6  1  0  0  0  0
  5  7  2  0  0  0  0
  5  6  1  0  0  0  0
  6  9  1  0  0  0  0
  7  8  1  0  0  0  0
  8  9  2  0  0  0  0
  3 10  1  0  0  0  0
  9 11  1  0  0  0  0
 11 12  1  0  0  0  0
  8 13  1  0  0  0  0
 14 13  1  0  0  0  0
 13 15  2  0  0  0  0
 15 16  1  0  0  0  0
 16 17  2  0  0  0  0
 17 18  1  0  0  0  0
 14 18  2  0  0  0  0
 22 12  2  0  0  0  0
 12 23  1  0  0  0  0
 19 20  1  0  0  0  0
 20 21  2  0  0  0  0
 21 22  1  0  0  0  0
 19 23  2  0  0  0  0
 23 24  1  0  0  0  0
 24 25  1  0  0  0  0
  1 26  1  0  0  0  0
  2 27  1  0  0  0  0
  4 28  1  0  0  0  0
 10 29  1  0  0  0  0
 10 30  1  0  0  0  0
 10 31  1  0  0  0  0
 14 32  1  0  0  0  0
 15 33  1  0  0  0  0
 16 34  1  0  0  0  0
 17 35  1  0  0  0  0
 18 36  1  0  0  0  0
 19 37  1  0  0  0  0
 20 38  1  0  0  0  0
 21 39  1  0  0  0  0
 22 40  1  0  0  0  0
 25 41  1  0  0  0  0
 25 42  1  0  0  0  0
 25 43  1  0  0  0  0
M  END
$$$$
> 826_AKC_rs.3.rs-3731615/v1

  Mrv0541 01252413433D              34.61000

 24 25  0  0  0  0            999 V2000
    1.3879    2.3574    0.0274 C   0  0  0  0  0  0  0  0  0  0  0  0
   -0.0043    2.4477    0.1954 C   0  0  0  0  0  0  0  0  0  0  0  0
   -0.8075    1.3027    0.0511 C   0  0  0  0  0  0  0  0  0  0  0  0
   -0.2191    0.0584   -0.2497 C   0  0  0  0  0  0  0  0  0  0  0  0
    1.1872   -0.0507   -0.4148 C   0  0  0  0  0  0  0  0  0  0  0  0
    1.9751    1.1200   -0.2874 C   0  0  0  0  0  0  0  0  0  0  0  0
    1.8642   -1.3419   -0.7237 C   0  0  1  0  0  0  0  0  0  0  0  0
    2.7697   -1.7280    0.3192 N   0  0  0  0  0  0  0  0  0  0  0  0
    2.4674   -2.4699    1.4041 C   0  0  0  0  0  0  0  0  0  0  0  0
    3.6259   -2.6170    2.1486 C   0  0  0  0  0  0  0  0  0  0  0  0
    4.5967   -1.9138    1.4556 C   0  0  0  0  0  0  0  0  0  0  0  0
    4.0302   -1.4019    0.3503 N   0  0  0  0  0  0  0  0  0  0  0  0
    3.7816   -3.3107    3.2870 N   0  0  0  0  0  0  0  0  0  0  0  0
   -1.0127   -0.9734   -0.3693 F   0  0  0  0  0  0  0  0  0  0  0  0
    1.9742    3.1889    0.1331 H   0  0  0  0  0  0  0  0  0  0  0  0
   -0.4332    3.3483    0.4200 H   0  0  0  0  0  0  0  0  0  0  0  0
   -1.8216    1.3791    0.1663 H   0  0  0  0  0  0  0  0  0  0  0  0
    2.9886    1.0819   -0.4224 H   0  0  0  0  0  0  0  0  0  0  0  0
    1.1487   -2.1499   -0.8939 H   0  0  0  0  0  0  0  0  0  0  0  0
    2.4128   -1.2261   -1.6615 H   0  0  0  0  0  0  0  0  0  0  0  0
    1.5535   -2.8637    1.6401 H   0  0  0  0  0  0  0  0  0  0  0  0
    5.5744   -1.8060    1.7325 H   0  0  0  0  0  0  0  0  0  0  0  0
    4.6517   -3.3571    3.7119 H   0  0  0  0  0  0  0  0  0  0  0  0
    3.0255   -3.7737    3.6792 H   0  0  0  0  0  0  0  0  0  0  0  0
  1  2  2  0  0  0  0
  2  3  1  0  0  0  0
  3  4  2  0  0  0  0
  4  5  1  0  0  0  0
  5  6  2  0  0  0  0
  1  6  1  0  0  0  0
  5  7  1  0  0  0  0
  7  8  1  0  0  0  0
  8  9  1  0  0  0  0
  9 10  2  0  0  0  0
 10 11  1  0  0  0  0
 11 12  2  0  0  0  0
  8 12  1  0  0  0  0
 10 13  1  0  0  0  0
  4 14  1  0  0  0  0
  1 15  1  0  0  0  0
  2 16  1  0  0  0  0
  3 17  1  0  0  0  0
  6 18  1  0  0  0  0
  7 19  1  0  0  0  0
  7 20  1  0  0  0  0
  9 21  1  0  0  0  0
 11 22  1  0  0  0  0
 13 23  1  0  0  0  0
 13 24  1  0  0  0  0
M  END
$$$$
> 827_AKC_rs.3.rs-3731615/v1

  Mrv0541 01252413443D              74.90000

 47 49  0  0  0  0            999 V2000
   10.4214   -0.6774    2.5706 C   0  0  0  0  0  0  0  0  0  0  0  0
    9.6791   -1.7811    3.3682 C   0  0  1  0  0  0  0  0  0  0  0  0
    9.9096   -1.6370    4.8928 C   0  0  0  0  0  0  0  0  0  0  0  0
    8.2508   -1.7353    3.1624 O   0  0  0  0  0  0  0  0  0  0  0  0
    7.7558   -2.1581    1.8775 C   0  0  2  0  0  0  0  0  0  0  0  0
    6.2093   -2.1169    1.9100 C   0  0  1  0  0  0  0  0  0  0  0  0
    5.5622   -2.4637    0.5428 C   0  0  1  0  0  0  0  0  0  0  0  0
    4.0978   -2.3866    0.5967 N   0  0  0  0  0  0  0  0  0  0  0  0
    3.3644   -3.5185    0.8902 C   0  0  0  0  0  0  0  0  0  0  0  0
    1.9499   -3.4835    0.9575 C   0  0  0  0  0  0  0  0  0  0  0  0
    1.3070   -2.2517    0.7395 C   0  0  0  0  0  0  0  0  0  0  0  0
    2.0222   -1.0752    0.4214 C   0  0  0  0  0  0  0  0  0  0  0  0
    3.4430   -1.1887    0.3622 C   0  0  0  0  0  0  0  0  0  0  0  0
    4.1401   -0.1182    0.0566 N   0  0  0  0  0  0  0  0  0  0  0  0
    1.3108    0.1180    0.1795 C   0  0  0  0  0  0  0  0  0  0  0  0
   -0.2484    0.1457   -0.5136 S   0  0  0  0  0  0  0  0  0  0  0  0
    1.7846    1.3186    0.4605 N   0  0  0  0  0  0  0  0  0  0  0  0
    1.2455   -4.6833    1.2406 C   0  0  0  0  0  0  0  0  0  0  0  0
   -0.0099   -4.6512    1.2897 O   0  0  0  0  0  0  0  0  0  0  0  0
    1.9221   -5.8626    1.4474 N   0  0  0  0  0  0  0  0  0  0  0  0
    1.2594   -7.0437    1.6880 C   0  0  0  0  0  0  0  0  0  0  0  0
    1.9578   -8.2467    1.8895 C   0  0  0  0  0  0  0  0  0  0  0  0
    3.3605   -8.2333    1.8739 C   0  0  0  0  0  0  0  0  0  0  0  0
    4.0440   -7.0299    1.6410 C   0  0  0  0  0  0  0  0  0  0  0  0
    3.3004   -5.8568    1.4066 C   0  0  0  0  0  0  0  0  0  0  0  0
    3.9685   -4.7117    1.1311 N   0  0  0  0  0  0  0  0  0  0  0  0
   10.3398   -0.8660    1.4998 H   0  0  0  0  0  0  0  0  0  0  0  0
   11.4828   -0.6661    2.8242 H   0  0  0  0  0  0  0  0  0  0  0  0
    9.9926    0.3036    2.7858 H   0  0  0  0  0  0  0  0  0  0  0  0
   10.0759   -2.7566    3.0737 H   0  0  0  0  0  0  0  0  0  0  0  0
    9.3677   -2.4207    5.4271 H   0  0  0  0  0  0  0  0  0  0  0  0
   10.9701   -1.7312    5.1359 H   0  0  0  0  0  0  0  0  0  0  0  0
    9.5527   -0.6683    5.2494 H   0  0  0  0  0  0  0  0  0  0  0  0
    8.0904   -3.1739    1.6558 H   0  0  0  0  0  0  0  0  0  0  0  0
    8.1111   -1.4898    1.0912 H   0  0  0  0  0  0  0  0  0  0  0  0
    5.8538   -2.8243    2.6639 H   0  0  0  0  0  0  0  0  0  0  0  0
    5.8942   -1.1155    2.2150 H   0  0  0  0  0  0  0  0  0  0  0  0
    5.9647   -1.7910   -0.2193 H   0  0  0  0  0  0  0  0  0  0  0  0
    5.9128   -3.4552    0.2415 H   0  0  0  0  0  0  0  0  0  0  0  0
    0.2878   -2.2187    0.8279 H   0  0  0  0  0  0  0  0  0  0  0  0
    4.7795    0.2116    0.6534 H   0  0  0  0  0  0  0  0  0  0  0  0
    2.6470    1.4275    0.8918 H   0  0  0  0  0  0  0  0  0  0  0  0
    1.2618    2.1066    0.2366 H   0  0  0  0  0  0  0  0  0  0  0  0
    0.2358   -7.0810    1.7257 H   0  0  0  0  0  0  0  0  0  0  0  0
    1.4490   -9.1194    2.0489 H   0  0  0  0  0  0  0  0  0  0  0  0
    3.8820   -9.0987    2.0301 H   0  0  0  0  0  0  0  0  0  0  0  0
    5.0672   -7.0157    1.6398 H   0  0  0  0  0  0  0  0  0  0  0  0
  1  2  1  0  0  0  0
  2  3  1  0  0  0  0
  2  4  1  0  0  0  0
  4  5  1  0  0  0  0
  5  6  1  0  0  0  0
  6  7  1  0  0  0  0
  7  8  1  0  0  0  0
  8  9  1  0  0  0  0
  9 10  2  0  0  0  0
 10 11  1  0  0  0  0
 11 12  2  0  0  0  0
 12 13  1  0  0  0  0
  8 13  1  0  0  0  0
 13 14  2  0  0  0  0
 12 15  1  0  0  0  0
 15 16  2  0  0  0  0
 15 17  1  0  0  0  0
 10 18  1  0  0  0  0
 18 19  2  0  0  0  0
 18 20  1  0  0  0  0
 20 21  1  0  0  0  0
 21 22  2  0  0  0  0
 22 23  1  0  0  0  0
 23 24  2  0  0  0  0
 24 25  1  0  0  0  0
 20 25  1  0  0  0  0
 25 26  2  0  0  0  0
  9 26  1  0  0  0  0
  1 27  1  0  0  0  0
  1 28  1  0  0  0  0
  1 29  1  0  0  0  0
  2 30  1  0  0  0  0
  3 31  1  0  0  0  0
  3 32  1  0  0  0  0
  3 33  1  0  0  0  0
  5 34  1  0  0  0  0
  5 35  1  0  0  0  0
  6 36  1  0  0  0  0
  6 37  1  0  0  0  0
  7 38  1  0  0  0  0
  7 39  1  0  0  0  0
 11 40  1  0  0  0  0
 14 41  1  0  0  0  0
 17 42  1  0  0  0  0
 17 43  1  0  0  0  0
 21 44  1  0  0  0  0
 22 45  1  0  0  0  0
 23 46  1  0  0  0  0
 24 47  1  0  0  0  0
M  END
$$$$
> 828_AKC_rs.3.rs-3731615/v1

  Mrv0541 01252413453D              66.03000

 43 45  0  0  0  0            999 V2000
    0.9747    3.0587    1.7392 C   0  0  0  0  0  0  0  0  0  0  0  0
    1.1064    1.9620    0.7365 N   0  0  1  0  0  0  0  0  0  0  0  0
    0.1802    0.8237    1.0155 C   0  0  1  0  0  0  0  0  0  0  0  0
    0.3812   -0.3264    0.0028 C   0  0  1  0  0  0  0  0  0  0  0  0
    0.2436    0.1700   -1.3999 N   0  0  1  0  0  0  0  0  0  0  0  0
    1.1856    1.2960   -1.6927 C   0  0  2  0  0  0  0  0  0  0  0  0
    1.0085    2.4478   -0.6723 C   0  0  1  0  0  0  0  0  0  0  0  0
    0.0722   -0.9353   -2.4075 C   0  0  2  0  0  0  0  0  0  0  0  0
    0.7062   -0.7512   -3.7469 C   0  0  0  0  0  0  0  0  0  0  0  0
    2.0252   -1.2382   -3.9269 C   0  0  0  0  0  0  0  0  0  0  0  0
    2.6714   -1.1420   -5.1697 C   0  0  0  0  0  0  0  0  0  0  0  0
    2.0012   -0.5617   -6.2568 C   0  0  0  0  0  0  0  0  0  0  0  0
    0.6999   -0.0564   -6.0937 C   0  0  0  0  0  0  0  0  0  0  0  0
    0.0523   -0.1139   -4.8395 C   0  0  0  0  0  0  0  0  0  0  0  0
   -1.5576    0.6023   -4.6986 S   0  0  0  0  0  0  0  0  0  0  0  0
   -1.3448    2.3460   -4.8297 C   0  0  0  0  0  0  0  0  0  0  0  0
   -1.1379    2.9443   -6.0910 C   0  0  0  0  0  0  0  0  0  0  0  0
   -0.9528    4.3349   -6.1963 C   0  0  0  0  0  0  0  0  0  0  0  0
   -0.9935    5.1419   -5.0461 C   0  0  0  0  0  0  0  0  0  0  0  0
   -1.2249    4.5570   -3.7875 C   0  0  0  0  0  0  0  0  0  0  0  0
   -1.4049    3.1641   -3.6810 C   0  0  0  0  0  0  0  0  0  0  0  0
   -0.0241    3.5018    1.7180 H   0  0  0  0  0  0  0  0  0  0  0  0
    1.7057    3.8455    1.5464 H   0  0  0  0  0  0  0  0  0  0  0  0
    1.1628    2.6736    2.7431 H   0  0  0  0  0  0  0  0  0  0  0  0
    0.3705    0.4280    2.0171 H   0  0  0  0  0  0  0  0  0  0  0  0
   -0.8622    1.1552    0.9702 H   0  0  0  0  0  0  0  0  0  0  0  0
    1.3735   -0.7690    0.1474 H   0  0  0  0  0  0  0  0  0  0  0  0
   -0.3709   -1.0957    0.2075 H   0  0  0  0  0  0  0  0  0  0  0  0
    0.9939    1.7088   -2.6833 H   0  0  0  0  0  0  0  0  0  0  0  0
    2.2179    0.9406   -1.6751 H   0  0  0  0  0  0  0  0  0  0  0  0
    0.0367    2.9184   -0.8403 H   0  0  0  0  0  0  0  0  0  0  0  0
    1.7852    3.1936   -0.8605 H   0  0  0  0  0  0  0  0  0  0  0  0
   -1.0028   -1.0804   -2.5327 H   0  0  0  0  0  0  0  0  0  0  0  0
    0.4250   -1.8911   -2.0017 H   0  0  0  0  0  0  0  0  0  0  0  0
    2.5290   -1.6700   -3.1478 H   0  0  0  0  0  0  0  0  0  0  0  0
    3.6235   -1.4975   -5.2834 H   0  0  0  0  0  0  0  0  0  0  0  0
    2.4596   -0.5102   -7.1685 H   0  0  0  0  0  0  0  0  0  0  0  0
    0.2287    0.3474   -6.9053 H   0  0  0  0  0  0  0  0  0  0  0  0
   -1.1239    2.3765   -6.9403 H   0  0  0  0  0  0  0  0  0  0  0  0
   -0.7931    4.7615   -7.1098 H   0  0  0  0  0  0  0  0  0  0  0  0
   -0.8624    6.1531   -5.1275 H   0  0  0  0  0  0  0  0  0  0  0  0
   -1.2654    5.1461   -2.9522 H   0  0  0  0  0  0  0  0  0  0  0  0
   -1.5832    2.7509   -2.7646 H   0  0  0  0  0  0  0  0  0  0  0  0
  1  2  1  0  0  0  0
  2  3  1  0  0  0  0
  3  4  1  0  0  0  0
  4  5  1  0  0  0  0
  5  6  1  0  0  0  0
  6  7  1  0  0  0  0
  2  7  1  0  0  0  0
  5  8  1  0  0  0  0
  8  9  1  0  0  0  0
  9 10  2  0  0  0  0
 10 11  1  0  0  0  0
 11 12  2  0  0  0  0
 12 13  1  0  0  0  0
 13 14  2  0  0  0  0
  9 14  1  0  0  0  0
 14 15  1  0  0  0  0
 15 16  1  0  0  0  0
 16 17  2  0  0  0  0
 17 18  1  0  0  0  0
 18 19  2  0  0  0  0
 19 20  1  0  0  0  0
 20 21  2  0  0  0  0
 16 21  1  0  0  0  0
  1 22  1  0  0  0  0
  1 23  1  0  0  0  0
  1 24  1  0  0  0  0
  3 25  1  0  0  0  0
  3 26  1  0  0  0  0
  4 27  1  0  0  0  0
  4 28  1  0  0  0  0
  6 29  1  0  0  0  0
  6 30  1  0  0  0  0
  7 31  1  0  0  0  0
  7 32  1  0  0  0  0
  8 33  1  0  0  0  0
  8 34  1  0  0  0  0
 10 35  1  0  0  0  0
 11 36  1  0  0  0  0
 12 37  1  0  0  0  0
 13 38  1  0  0  0  0
 17 39  1  0  0  0  0
 18 40  1  0  0  0  0
 19 41  1  0  0  0  0
 20 42  1  0  0  0  0
 21 43  1  0  0  0  0
M  END
$$$$
> 829_AKC_rs.3.rs-3731615/v1

  Mrv0541 01252413463D              81.86000

 42 44  0  0  0  0            999 V2000
    4.8731    1.4611   -1.8611 C   0  0  2  0  0  0  0  0  0  0  0  0
    3.6990    1.4020   -0.8472 C   0  0  2  0  0  0  0  0  0  0  0  0
    3.4368    0.0602   -0.3437 N   0  0  0  0  0  0  0  0  0  0  0  0
    4.6063   -0.7271    0.0050 C   0  0  1  0  0  0  0  0  0  0  0  0
    5.7159   -0.6352   -1.0751 C   0  0  2  0  0  0  0  0  0  0  0  0
    6.0403    0.7672   -1.3256 N   0  0  0  0  0  0  0  0  0  0  0  0
    7.2989    1.3670   -1.0742 C   0  0  0  0  0  0  0  0  0  0  0  0
    7.5557    2.7551   -1.2978 C   0  0  0  0  0  0  0  0  0  0  0  0
    8.8222    3.3381   -1.1119 C   0  0  0  0  0  0  0  0  0  0  0  0
    9.8966    2.5593   -0.6633 C   0  0  0  0  0  0  0  0  0  0  0  0
    9.6882    1.2025   -0.3876 C   0  0  0  0  0  0  0  0  0  0  0  0
    8.4187    0.6298   -0.5800 C   0  0  0  0  0  0  0  0  0  0  0  0
    2.1337   -0.3950   -0.1538 C   0  0  0  0  0  0  0  0  0  0  0  0
    1.1685    0.3223   -0.5148 O   0  0  0  0  0  0  0  0  0  0  0  0
    1.7852   -1.6806    0.5196 C   0  0  2  0  0  0  0  0  0  0  0  0
    0.3707   -1.8676    0.7403 N   0  0  0  0  0  0  0  0  0  0  0  0
   -0.2552   -1.5504    1.8907 C   0  0  0  0  0  0  0  0  0  0  0  0
   -1.6143   -1.7958    1.7454 C   0  0  0  0  0  0  0  0  0  0  0  0
   -1.7740   -2.2877    0.5058 N   0  0  0  0  0  0  0  0  0  0  0  0
   -0.5768   -2.3296   -0.1185 C   0  0  0  0  0  0  0  0  0  0  0  0
   -0.4376   -2.7515   -1.3778 N   0  3  0  0  0  0  0  0  0  0  0  0
   -1.3416   -3.1934   -1.9699 O   0  0  0  0  0  0  0  0  0  0  0  0
    0.6551   -2.6895   -2.0151 O   0  5  0  0  0  0  0  0  0  0  0  0
   -2.5738   -1.5739    2.6356 N   0  3  0  0  0  0  0  0  0  0  0  0
   -3.6885   -1.8265    2.3970 O   0  0  0  0  0  0  0  0  0  0  0  0
   -2.3279   -1.0653    3.7735 O   0  5  0  0  0  0  0  0  0  0  0  0
    5.0207    2.5030   -2.1197 H   0  0  0  0  0  0  0  0  0  0  0  0
    4.5634    0.9848   -2.7962 H   0  0  0  0  0  0  0  0  0  0  0  0
    2.8305    1.8525   -1.3368 H   0  0  0  0  0  0  0  0  0  0  0  0
    3.9527    2.0352    0.0071 H   0  0  0  0  0  0  0  0  0  0  0  0
    5.0068   -0.3521    0.9516 H   0  0  0  0  0  0  0  0  0  0  0  0
    4.3844   -1.7863    0.1440 H   0  0  0  0  0  0  0  0  0  0  0  0
    5.3587   -1.1058   -1.9969 H   0  0  0  0  0  0  0  0  0  0  0  0
    6.5352   -1.2643   -0.7477 H   0  0  0  0  0  0  0  0  0  0  0  0
    6.8362    3.4011   -1.6042 H   0  0  0  0  0  0  0  0  0  0  0  0
    8.9625    4.3331   -1.3017 H   0  0  0  0  0  0  0  0  0  0  0  0
   10.8211    2.9771   -0.5339 H   0  0  0  0  0  0  0  0  0  0  0  0
   10.4620    0.6292   -0.0447 H   0  0  0  0  0  0  0  0  0  0  0  0
    8.3626   -0.3538   -0.3409 H   0  0  0  0  0  0  0  0  0  0  0  0
    2.3033   -1.7001    1.4833 H   0  0  0  0  0  0  0  0  0  0  0  0
    2.1780   -2.5182   -0.0564 H   0  0  0  0  0  0  0  0  0  0  0  0
    0.1904   -1.1731    2.7304 H   0  0  0  0  0  0  0  0  0  0  0  0
  1  2  1  0  0  0  0
  2  3  1  0  0  0  0
  3  4  1  0  0  0  0
  4  5  1  0  0  0  0
  5  6  1  0  0  0  0
  1  6  1  0  0  0  0
  6  7  1  0  0  0  0
  7  8  2  0  0  0  0
  8  9  1  0  0  0  0
  9 10  2  0  0  0  0
 10 11  1  0  0  0  0
 11 12  2  0  0  0  0
  7 12  1  0  0  0  0
  3 13  1  0  0  0  0
 13 14  2  0  0  0  0
 13 15  1  0  0  0  0
 15 16  1  0  0  0  0
 16 17  1  0  0  0  0
 17 18  2  0  0  0  0
 18 19  1  0  0  0  0
 19 20  2  0  0  0  0
 16 20  1  0  0  0  0
 20 21  1  0  0  0  0
 21 22  2  0  0  0  0
 21 23  1  0  0  0  0
 18 24  1  0  0  0  0
 24 25  2  0  0  0  0
 24 26  1  0  0  0  0
  1 27  1  0  0  0  0
  1 28  1  0  0  0  0
  2 29  1  0  0  0  0
  2 30  1  0  0  0  0
  4 31  1  0  0  0  0
  4 32  1  0  0  0  0
  5 33  1  0  0  0  0
  5 34  1  0  0  0  0
  8 35  1  0  0  0  0
  9 36  1  0  0  0  0
 10 37  1  0  0  0  0
 11 38  1  0  0  0  0
 12 39  1  0  0  0  0
 15 40  1  0  0  0  0
 15 41  1  0  0  0  0
 17 42  1  0  0  0  0
M  CHG  4  21   1  23  -1  24   1  26  -1
M  END
$$$$
> 830_AKC_acs.jmedchem.3c01439

  Mrv0541 01252413503D             156.70000

 83 87  0  0  0  0            999 V2000
   -8.4555   -0.7792   -5.4391 C   0  0  2  0  0  0  0  0  0  0  0  0
   -7.0352   -1.1975   -5.9195 C   0  0  2  0  0  0  0  0  0  0  0  0
   -5.9565   -0.5826   -5.1666 N   0  0  0  0  0  0  0  0  0  0  0  0
   -6.1063    0.8315   -4.8296 C   0  0  1  0  0  0  0  0  0  0  0  0
   -7.5428    1.2159   -4.3736 C   0  0  2  0  0  0  0  0  0  0  0  0
   -8.6375    0.7199   -5.3009 N   0  3  1  0  0  0  0  0  0  0  0  0
   -8.5712    1.4804   -6.6261 C   0  0  2  0  0  0  0  0  0  0  0  0
   -9.5876    1.1331   -7.7558 C   0  0  2  0  0  0  0  0  0  0  0  0
   -9.4857    2.1198   -8.9506 C   0  0  1  0  0  0  0  0  0  0  0  0
  -10.3497    1.6998  -10.0848 C   0  0  0  0  0  0  0  0  0  0  0  0
   -9.8441    0.8505  -11.0980 C   0  0  0  0  0  0  0  0  0  0  0  0
  -10.6556    0.4653  -12.1814 C   0  0  0  0  0  0  0  0  0  0  0  0
  -11.9843    0.9188  -12.2613 C   0  0  0  0  0  0  0  0  0  0  0  0
  -12.5070    1.7425  -11.2483 C   0  0  0  0  0  0  0  0  0  0  0  0
  -11.6959    2.1284  -10.1647 C   0  0  0  0  0  0  0  0  0  0  0  0
   -9.9689    0.9942   -4.6318 C   0  0  0  0  0  0  0  0  0  0  0  0
   -4.8179   -1.2972   -4.7693 C   0  0  0  0  0  0  0  0  0  0  0  0
   -4.0300   -0.7231   -3.9811 O   0  0  0  0  0  0  0  0  0  0  0  0
   -4.4127   -2.5680   -5.2006 N   0  0  0  0  0  0  0  0  0  0  0  0
   -4.5813   -2.9364   -6.5290 C   0  0  0  0  0  0  0  0  0  0  0  0
   -4.1330   -2.0835   -7.5693 C   0  0  0  0  0  0  0  0  0  0  0  0
   -4.2351   -2.4662   -8.9204 C   0  0  0  0  0  0  0  0  0  0  0  0
   -4.8043   -3.7068   -9.2624 C   0  0  0  0  0  0  0  0  0  0  0  0
   -5.2862   -4.5518   -8.2488 C   0  0  0  0  0  0  0  0  0  0  0  0
   -5.1721   -4.1721   -6.8980 C   0  0  0  0  0  0  0  0  0  0  0  0
   -4.8809   -4.0724  -10.5141 F   0  0  0  0  0  0  0  0  0  0  0  0
   -3.6309   -3.4814   -4.3589 C   0  0  1  0  0  0  0  0  0  0  0  0
   -2.8446   -2.3839   -2.2505 O   0  0  0  0  0  0  0  0  0  0  0  0
   -3.6656   -3.2454   -2.8993 C   0  0  0  0  0  0  0  0  0  0  0  0
   -4.5672   -3.7800   -1.9827 C   0  0  0  0  0  0  0  0  0  0  0  0
   -4.2883   -3.1906   -0.7588 C   0  0  0  0  0  0  0  0  0  0  0  0
   -3.2229   -2.3101   -0.9530 C   0  0  0  0  0  0  0  0  0  0  0  0
   -2.6390   -1.4443   -0.0082 C   0  0  0  0  0  0  0  0  0  0  0  0
   -3.0546   -1.4511    1.1749 O   0  0  0  0  0  0  0  0  0  0  0  0
   -1.6533   -0.5859   -0.3936 N   0  0  0  0  0  0  0  0  0  0  0  0
   -1.0324    0.3705    0.4698 C   0  0  1  0  0  0  0  0  0  0  0  0
    0.0397    1.1960   -0.2851 C   0  0  2  0  0  0  0  0  0  0  0  0
    0.6417    2.2552    0.5750 C   0  0  0  0  0  0  0  0  0  0  0  0
    1.6519    1.9343    1.5139 C   0  0  0  0  0  0  0  0  0  0  0  0
    2.2249    2.9334    2.3261 C   0  0  0  0  0  0  0  0  0  0  0  0
    1.7866    4.2665    2.2210 C   0  0  0  0  0  0  0  0  0  0  0  0
    0.7819    4.5991    1.2937 C   0  0  0  0  0  0  0  0  0  0  0  0
    0.2121    3.6009    0.4790 C   0  0  0  0  0  0  0  0  0  0  0  0
    2.3084    5.1910    2.9821 F   0  0  0  0  0  0  0  0  0  0  0  0
   -8.5542   -1.2392   -4.3974 H   0  0  0  0  0  0  0  0  0  0  0  0
   -9.1836   -1.1706   -6.2204 H   0  0  0  0  0  0  0  0  0  0  0  0
   -6.9114   -0.9535   -6.9762 H   0  0  0  0  0  0  0  0  0  0  0  0
   -7.0184   -2.2847   -5.8321 H   0  0  0  0  0  0  0  0  0  0  0  0
   -5.4388    1.1580   -4.0271 H   0  0  0  0  0  0  0  0  0  0  0  0
   -5.8219    1.4228   -5.7014 H   0  0  0  0  0  0  0  0  0  0  0  0
   -7.5920    2.3051   -4.2607 H   0  0  0  0  0  0  0  0  0  0  0  0
   -7.6729    0.8016   -3.3651 H   0  0  0  0  0  0  0  0  0  0  0  0
   -7.5910    1.3507   -7.0880 H   0  0  0  0  0  0  0  0  0  0  0  0
   -8.6624    2.5542   -6.4213 H   0  0  0  0  0  0  0  0  0  0  0  0
  -10.6108    1.1562   -7.3771 H   0  0  0  0  0  0  0  0  0  0  0  0
   -9.3797    0.1246   -8.1206 H   0  0  0  0  0  0  0  0  0  0  0  0
   -9.7692    3.1228   -8.6171 H   0  0  0  0  0  0  0  0  0  0  0  0
   -8.4454    2.1841   -9.2833 H   0  0  0  0  0  0  0  0  0  0  0  0
   -8.8814    0.5060  -11.0540 H   0  0  0  0  0  0  0  0  0  0  0  0
  -10.2793   -0.1441  -12.9113 H   0  0  0  0  0  0  0  0  0  0  0  0
  -12.5700    0.6497  -13.0554 H   0  0  0  0  0  0  0  0  0  0  0  0
  -13.4770    2.0617  -11.2999 H   0  0  0  0  0  0  0  0  0  0  0  0
  -12.0947    2.7247   -9.4350 H   0  0  0  0  0  0  0  0  0  0  0  0
  -10.1557    2.0696   -4.5452 H   0  0  0  0  0  0  0  0  0  0  0  0
  -10.0170    0.5777   -3.6207 H   0  0  0  0  0  0  0  0  0  0  0  0
  -10.8003    0.5538   -5.1851 H   0  0  0  0  0  0  0  0  0  0  0  0
   -3.7154   -1.1740   -7.3504 H   0  0  0  0  0  0  0  0  0  0  0  0
   -3.8883   -1.8408   -9.6519 H   0  0  0  0  0  0  0  0  0  0  0  0
   -5.7201   -5.4456   -8.4921 H   0  0  0  0  0  0  0  0  0  0  0  0
   -5.5311   -4.8048   -6.1826 H   0  0  0  0  0  0  0  0  0  0  0  0
   -3.9603   -4.5151   -4.4881 H   0  0  0  0  0  0  0  0  0  0  0  0
   -2.5882   -3.4415   -4.6821 H   0  0  0  0  0  0  0  0  0  0  0  0
   -5.3049   -4.4611   -2.1742 H   0  0  0  0  0  0  0  0  0  0  0  0
   -4.7908   -3.3614    0.1146 H   0  0  0  0  0  0  0  0  0  0  0  0
   -1.3597   -0.6169   -1.3185 H   0  0  0  0  0  0  0  0  0  0  0  0
   -1.7985    1.0448    0.8653 H   0  0  0  0  0  0  0  0  0  0  0  0
   -0.5670   -0.1528    1.3086 H   0  0  0  0  0  0  0  0  0  0  0  0
   -0.4239    1.6432   -1.1693 H   0  0  0  0  0  0  0  0  0  0  0  0
    0.8266    0.5286   -0.6496 H   0  0  0  0  0  0  0  0  0  0  0  0
    1.9777    0.9688    1.6113 H   0  0  0  0  0  0  0  0  0  0  0  0
    2.9606    2.6891    2.9935 H   0  0  0  0  0  0  0  0  0  0  0  0
    0.4627    5.5672    1.2110 H   0  0  0  0  0  0  0  0  0  0  0  0
   -0.5249    3.8628   -0.1814 H   0  0  0  0  0  0  0  0  0  0  0  0
  1  2  1  0  0  0  0
  1  6  1  0  0  0  0
  2  3  1  0  0  0  0
  3  4  1  0  0  0  0
  3 17  1  0  0  0  0
  4  5  1  0  0  0  0
  5  6  1  0  0  0  0
  6  7  1  0  0  0  0
  6 16  1  0  0  0  0
  7  8  1  0  0  0  0
  8  9  1  0  0  0  0
  9 10  1  0  0  0  0
 10 11  2  0  0  0  0
 10 15  1  0  0  0  0
 11 12  1  0  0  0  0
 12 13  2  0  0  0  0
 13 14  1  0  0  0  0
 14 15  2  0  0  0  0
 17 18  2  0  0  0  0
 17 19  1  0  0  0  0
 19 20  1  0  0  0  0
 19 27  1  0  0  0  0
 20 21  2  0  0  0  0
 20 25  1  0  0  0  0
 21 22  1  0  0  0  0
 22 23  2  0  0  0  0
 23 24  1  0  0  0  0
 23 26  1  0  0  0  0
 24 25  2  0  0  0  0
 27 29  1  0  0  0  0
 28 29  1  0  0  0  0
 28 32  1  0  0  0  0
 29 30  2  0  0  0  0
 30 31  1  0  0  0  0
 31 32  2  0  0  0  0
 32 33  1  0  0  0  0
 33 34  2  0  0  0  0
 33 35  1  0  0  0  0
 35 36  1  0  0  0  0
 36 37  1  0  0  0  0
 37 38  1  0  0  0  0
 38 39  2  0  0  0  0
 38 43  1  0  0  0  0
 39 40  1  0  0  0  0
 40 41  2  0  0  0  0
 41 42  1  0  0  0  0
 41 44  1  0  0  0  0
 42 43  2  0  0  0  0
  1 45  1  0  0  0  0
  1 46  1  0  0  0  0
  2 47  1  0  0  0  0
  2 48  1  0  0  0  0
  4 49  1  0  0  0  0
  4 50  1  0  0  0  0
  5 51  1  0  0  0  0
  5 52  1  0  0  0  0
  7 53  1  0  0  0  0
  7 54  1  0  0  0  0
  8 55  1  0  0  0  0
  8 56  1  0  0  0  0
  9 57  1  0  0  0  0
  9 58  1  0  0  0  0
 11 59  1  0  0  0  0
 12 60  1  0  0  0  0
 13 61  1  0  0  0  0
 14 62  1  0  0  0  0
 15 63  1  0  0  0  0
 16 64  1  0  0  0  0
 16 65  1  0  0  0  0
 16 66  1  0  0  0  0
 21 67  1  0  0  0  0
 22 68  1  0  0  0  0
 24 69  1  0  0  0  0
 25 70  1  0  0  0  0
 27 71  1  0  0  0  0
 27 72  1  0  0  0  0
 30 73  1  0  0  0  0
 31 74  1  0  0  0  0
 35 75  1  0  0  0  0
 36 76  1  0  0  0  0
 36 77  1  0  0  0  0
 37 78  1  0  0  0  0
 37 79  1  0  0  0  0
 39 80  1  0  0  0  0
 40 81  1  0  0  0  0
 42 82  1  0  0  0  0
 43 83  1  0  0  0  0
M  CHG  1   6   1
M  END
$$$$
> 831_AKC_ijms25010659
N-(2-methoxyphenyl)-1-methyl-1H-benzimidazol-2-amine
  Mrv0541 01252413523D              57.80000

 34 36  0  0  0  0            999 V2000
   -0.9394    1.1158   -0.4712 C   0  0  0  0  0  0  0  0  0  0  0  0
   -0.1254    0.0565   -0.2817 N   0  0  0  0  0  0  0  0  0  0  0  0
   -0.8858   -0.9403    0.2372 C   0  0  0  0  0  0  0  0  0  0  0  0
   -2.1664   -0.5370    0.3635 N   0  0  0  0  0  0  0  0  0  0  0  0
   -2.2167    0.7231   -0.0799 C   0  0  0  0  0  0  0  0  0  0  0  0
   -3.3173    1.5909   -0.1767 C   0  0  0  0  0  0  0  0  0  0  0  0
   -3.1030    2.8958   -0.6646 C   0  0  0  0  0  0  0  0  0  0  0  0
   -1.8077    3.3120   -1.0452 C   0  0  0  0  0  0  0  0  0  0  0  0
   -0.7151    2.4212   -0.9560 C   0  0  0  0  0  0  0  0  0  0  0  0
   -0.3696   -2.1502    0.5870 N   0  0  0  0  0  0  0  0  0  0  0  0
    1.2777   -0.0372   -0.5617 C   0  0  0  0  0  0  0  0  0  0  0  0
   -0.9458   -3.2140    1.2259 C   0  0  0  0  0  0  0  0  0  0  0  0
   -0.0511   -4.1547    1.7977 C   0  0  0  0  0  0  0  0  0  0  0  0
   -0.5459   -5.2687    2.5075 C   0  0  0  0  0  0  0  0  0  0  0  0
   -1.9286   -5.4754    2.6338 C   0  0  0  0  0  0  0  0  0  0  0  0
   -2.8247   -4.5632    2.0526 C   0  0  0  0  0  0  0  0  0  0  0  0
   -2.3397   -3.4435    1.3508 C   0  0  0  0  0  0  0  0  0  0  0  0
    1.3083   -3.9789    1.7053 O   0  0  0  0  0  0  0  0  0  0  0  0
    1.9061   -4.7345    0.6353 C   0  0  0  0  0  0  0  0  0  0  0  0
   -4.2492    1.2826    0.1034 H   0  0  0  0  0  0  0  0  0  0  0  0
   -3.8892    3.5439   -0.7407 H   0  0  0  0  0  0  0  0  0  0  0  0
   -1.6621    4.2649   -1.3885 H   0  0  0  0  0  0  0  0  0  0  0  0
    0.2148    2.7301   -1.2402 H   0  0  0  0  0  0  0  0  0  0  0  0
    0.5741   -2.2520    0.3926 H   0  0  0  0  0  0  0  0  0  0  0  0
    1.6859    0.8862   -0.9695 H   0  0  0  0  0  0  0  0  0  0  0  0
    1.4513   -0.8325   -1.2880 H   0  0  0  0  0  0  0  0  0  0  0  0
    1.8235   -0.2774    0.3531 H   0  0  0  0  0  0  0  0  0  0  0  0
    0.1053   -5.9317    2.9353 H   0  0  0  0  0  0  0  0  0  0  0  0
   -2.2807   -6.2877    3.1449 H   0  0  0  0  0  0  0  0  0  0  0  0
   -3.8315   -4.7172    2.1431 H   0  0  0  0  0  0  0  0  0  0  0  0
   -3.0211   -2.8148    0.9290 H   0  0  0  0  0  0  0  0  0  0  0  0
    2.9572   -4.4524    0.5658 H   0  0  0  0  0  0  0  0  0  0  0  0
    1.8529   -5.8067    0.8395 H   0  0  0  0  0  0  0  0  0  0  0  0
    1.4331   -4.5198   -0.3269 H   0  0  0  0  0  0  0  0  0  0  0  0
  1  2  1  0  0  0  0
  2  3  1  0  0  0  0
  3  4  2  0  0  0  0
  4  5  1  0  0  0  0
  1  5  1  0  0  0  0
  5  6  2  0  0  0  0
  6  7  1  0  0  0  0
  7  8  2  0  0  0  0
  8  9  1  0  0  0  0
  1  9  2  0  0  0  0
  3 10  1  0  0  0  0
  2 11  1  0  0  0  0
 12 13  2  0  0  0  0
 13 14  1  0  0  0  0
 14 15  2  0  0  0  0
 15 16  1  0  0  0  0
 16 17  2  0  0  0  0
 12 17  1  0  0  0  0
 18 19  1  0  0  0  0
 13 18  1  0  0  0  0
 10 12  1  0  0  0  0
  6 20  1  0  0  0  0
  7 21  1  0  0  0  0
  8 22  1  0  0  0  0
  9 23  1  0  0  0  0
 10 24  1  0  0  0  0
 11 25  1  0  0  0  0
 11 26  1  0  0  0  0
 11 27  1  0  0  0  0
 14 28  1  0  0  0  0
 15 29  1  0  0  0  0
 16 30  1  0  0  0  0
 17 31  1  0  0  0  0
 19 32  1  0  0  0  0
 19 33  1  0  0  0  0
 19 34  1  0  0  0  0
M  END
>  <type>
systematic

$$$$
> 832_AKC_1809-4392202203181C813
10621
  -OEChem-01252411543D

 77 81  0     1  0  0  0  0  0999 V2000
    3.4756    0.0511   -0.0834 O   0  0  0  0  0  0  0  0  0  0  0  0
    1.8137   -1.9432    0.8519 O   0  0  0  0  0  0  0  0  0  0  0  0
    1.0094   -4.1175    1.3582 O   0  0  0  0  0  0  0  0  0  0  0  0
    5.1046   -2.8194   -1.6709 O   0  0  0  0  0  0  0  0  0  0  0  0
    3.5980    2.3495   -0.4662 O   0  0  0  0  0  0  0  0  0  0  0  0
    6.8905   -0.6248   -2.2625 O   0  0  0  0  0  0  0  0  0  0  0  0
    5.3711    1.8741   -2.6199 O   0  0  0  0  0  0  0  0  0  0  0  0
   -0.1104   -2.9867    3.7514 O   0  0  0  0  0  0  0  0  0  0  0  0
   -2.2108   -1.7317    2.4255 O   0  0  0  0  0  0  0  0  0  0  0  0
   -2.3967   -3.4208    0.1324 O   0  0  0  0  0  0  0  0  0  0  0  0
   -1.1128    1.7749   -0.5943 O   0  0  0  0  0  0  0  0  0  0  0  0
    0.9400    4.7043    2.6926 O   0  0  0  0  0  0  0  0  0  0  0  0
   -1.6411    4.4151    2.5010 O   0  0  0  0  0  0  0  0  0  0  0  0
   -6.4956   -0.7086   -2.6300 O   0  0  0  0  0  0  0  0  0  0  0  0
   -6.2236   -1.1964    0.0931 O   0  0  0  0  0  0  0  0  0  0  0  0
    3.5872   -1.2695   -0.6167 C   0  0  1  0  0  0  0  0  0  0  0  0
    5.0268   -1.5315   -1.0655 C   0  0  2  0  0  0  0  0  0  0  0  0
    5.4834   -0.4727   -2.0692 C   0  0  1  0  0  0  0  0  0  0  0  0
    5.1894    0.9377   -1.5580 C   0  0  2  0  0  0  0  0  0  0  0  0
    0.1581   -2.1987    2.5905 C   0  0  1  0  0  0  0  0  0  0  0  0
    1.3505   -2.8244    1.8692 C   0  0  2  0  0  0  0  0  0  0  0  0
   -1.0738   -2.1683    1.6844 C   0  0  1  0  0  0  0  0  0  0  0  0
   -1.3561   -3.5520    1.0979 C   0  0  2  0  0  0  0  0  0  0  0  0
    3.7511    1.0581   -1.0544 C   0  0  1  0  0  0  0  0  0  0  0  0
    3.1489   -2.2438    0.4721 C   0  0  0  0  0  0  0  0  0  0  0  0
   -0.0885   -4.1148    0.4401 C   0  0  2  0  0  0  0  0  0  0  0  0
   -0.2793   -5.5538   -0.0311 C   0  0  0  0  0  0  0  0  0  0  0  0
    2.3640    2.6478    0.0435 C   0  0  0  0  0  0  0  0  0  0  0  0
    1.2218    2.0785   -0.5203 C   0  0  0  0  0  0  0  0  0  0  0  0
   -0.0360    2.3737    0.0071 C   0  0  0  0  0  0  0  0  0  0  0  0
    2.2505    3.5198    1.1268 C   0  0  0  0  0  0  0  0  0  0  0  0
   -2.2509    1.6681    0.2753 C   0  0  1  0  0  0  0  0  0  0  0  0
   -0.1487    3.2646    1.0785 C   0  0  0  0  0  0  0  0  0  0  0  0
   -2.6549    3.0370    0.8192 C   0  0  0  0  0  0  0  0  0  0  0  0
    0.9939    3.8347    1.6455 C   0  0  0  0  0  0  0  0  0  0  0  0
   -1.4924    3.6298    1.5723 C   0  0  0  0  0  0  0  0  0  0  0  0
   -3.3862    1.0311   -0.4981 C   0  0  0  0  0  0  0  0  0  0  0  0
   -4.2956    0.1998    0.1558 C   0  0  0  0  0  0  0  0  0  0  0  0
   -3.5226    1.2758   -1.8645 C   0  0  0  0  0  0  0  0  0  0  0  0
   -5.3418   -0.3866   -0.5566 C   0  0  0  0  0  0  0  0  0  0  0  0
   -4.5686    0.6892   -2.5771 C   0  0  0  0  0  0  0  0  0  0  0  0
   -5.4782   -0.1420   -1.9231 C   0  0  0  0  0  0  0  0  0  0  0  0
   -6.5637   -0.4075   -4.0224 C   0  0  0  0  0  0  0  0  0  0  0  0
    2.8872   -1.3657   -1.4579 H   0  0  0  0  0  0  0  0  0  0  0  0
    5.7023   -1.5352   -0.2012 H   0  0  0  0  0  0  0  0  0  0  0  0
    5.0213   -0.6387   -3.0494 H   0  0  0  0  0  0  0  0  0  0  0  0
    5.8968    1.2150   -0.7674 H   0  0  0  0  0  0  0  0  0  0  0  0
    0.3858   -1.1809    2.9279 H   0  0  0  0  0  0  0  0  0  0  0  0
    2.1485   -2.9849    2.6054 H   0  0  0  0  0  0  0  0  0  0  0  0
   -0.9268   -1.4457    0.8720 H   0  0  0  0  0  0  0  0  0  0  0  0
   -1.7213   -4.2227    1.8845 H   0  0  0  0  0  0  0  0  0  0  0  0
    3.0925    0.9562   -1.9258 H   0  0  0  0  0  0  0  0  0  0  0  0
    3.7984   -2.1320    1.3489 H   0  0  0  0  0  0  0  0  0  0  0  0
    3.2072   -3.2765    0.1108 H   0  0  0  0  0  0  0  0  0  0  0  0
    0.1824   -3.5159   -0.4391 H   0  0  0  0  0  0  0  0  0  0  0  0
   -1.0798   -5.6312   -0.7727 H   0  0  0  0  0  0  0  0  0  0  0  0
   -0.5158   -6.2125    0.8118 H   0  0  0  0  0  0  0  0  0  0  0  0
    0.6461   -5.9343   -0.4773 H   0  0  0  0  0  0  0  0  0  0  0  0
    4.4974   -2.8315   -2.4304 H   0  0  0  0  0  0  0  0  0  0  0  0
    7.3318   -0.4657   -1.4108 H   0  0  0  0  0  0  0  0  0  0  0  0
    4.7591    1.6394   -3.3382 H   0  0  0  0  0  0  0  0  0  0  0  0
    0.6700   -2.9346    4.3291 H   0  0  0  0  0  0  0  0  0  0  0  0
   -2.0014   -0.8565    2.7940 H   0  0  0  0  0  0  0  0  0  0  0  0
   -2.0765   -2.8408   -0.5794 H   0  0  0  0  0  0  0  0  0  0  0  0
    1.2506    1.4130   -1.3756 H   0  0  0  0  0  0  0  0  0  0  0  0
    3.1447    3.9598    1.5618 H   0  0  0  0  0  0  0  0  0  0  0  0
   -1.9712    0.9939    1.0977 H   0  0  0  0  0  0  0  0  0  0  0  0
   -3.5071    2.9427    1.5015 H   0  0  0  0  0  0  0  0  0  0  0  0
   -2.9199    3.7335    0.0150 H   0  0  0  0  0  0  0  0  0  0  0  0
   -4.1912    0.0139    1.2218 H   0  0  0  0  0  0  0  0  0  0  0  0
   -2.8346    1.9298   -2.3934 H   0  0  0  0  0  0  0  0  0  0  0  0
    0.0294    4.7960    3.0119 H   0  0  0  0  0  0  0  0  0  0  0  0
   -4.6142    0.9262   -3.6344 H   0  0  0  0  0  0  0  0  0  0  0  0
   -5.9723   -1.2511    1.0310 H   0  0  0  0  0  0  0  0  0  0  0  0
   -6.7390    0.6597   -4.1964 H   0  0  0  0  0  0  0  0  0  0  0  0
   -5.6841   -0.7787   -4.5592 H   0  0  0  0  0  0  0  0  0  0  0  0
   -7.4306   -0.9415   -4.4255 H   0  0  0  0  0  0  0  0  0  0  0  0
  1 16  1  0  0  0  0
  1 24  1  0  0  0  0
  2 21  1  0  0  0  0
  2 25  1  0  0  0  0
  3 21  1  0  0  0  0
  3 26  1  0  0  0  0
  4 17  1  0  0  0  0
  4 59  1  0  0  0  0
  5 24  1  0  0  0  0
  5 28  1  0  0  0  0
  6 18  1  0  0  0  0
  6 60  1  0  0  0  0
  7 19  1  0  0  0  0
  7 61  1  0  0  0  0
  8 20  1  0  0  0  0
  8 62  1  0  0  0  0
  9 22  1  0  0  0  0
  9 63  1  0  0  0  0
 10 23  1  0  0  0  0
 10 64  1  0  0  0  0
 11 30  1  0  0  0  0
 11 32  1  0  0  0  0
 12 35  1  0  0  0  0
 12 72  1  0  0  0  0
 13 36  2  0  0  0  0
 14 42  1  0  0  0  0
 14 43  1  0  0  0  0
 15 40  1  0  0  0  0
 15 74  1  0  0  0  0
 16 17  1  0  0  0  0
 16 25  1  0  0  0  0
 16 44  1  0  0  0  0
 17 18  1  0  0  0  0
 17 45  1  0  0  0  0
 18 19  1  0  0  0  0
 18 46  1  0  0  0  0
 19 24  1  0  0  0  0
 19 47  1  0  0  0  0
 20 21  1  0  0  0  0
 20 22  1  0  0  0  0
 20 48  1  0  0  0  0
 21 49  1  0  0  0  0
 22 23  1  0  0  0  0
 22 50  1  0  0  0  0
 23 26  1  0  0  0  0
 23 51  1  0  0  0  0
 24 52  1  0  0  0  0
 25 53  1  0  0  0  0
 25 54  1  0  0  0  0
 26 27  1  0  0  0  0
 26 55  1  0  0  0  0
 27 56  1  0  0  0  0
 27 57  1  0  0  0  0
 27 58  1  0  0  0  0
 28 29  1  0  0  0  0
 28 31  2  0  0  0  0
 29 30  2  0  0  0  0
 29 65  1  0  0  0  0
 30 33  1  0  0  0  0
 31 35  1  0  0  0  0
 31 66  1  0  0  0  0
 32 34  1  0  0  0  0
 32 37  1  0  0  0  0
 32 67  1  0  0  0  0
 33 35  2  0  0  0  0
 33 36  1  0  0  0  0
 34 36  1  0  0  0  0
 34 68  1  0  0  0  0
 34 69  1  0  0  0  0
 37 38  2  0  0  0  0
 37 39  1  0  0  0  0
 38 40  1  0  0  0  0
 38 70  1  0  0  0  0
 39 41  2  0  0  0  0
 39 71  1  0  0  0  0
 40 42  2  0  0  0  0
 41 42  1  0  0  0  0
 41 73  1  0  0  0  0
 43 75  1  0  0  0  0
 43 76  1  0  0  0  0
 43 77  1  0  0  0  0
M  END
> <PUBCHEM_COMPOUND_CID>
10621

> <PUBCHEM_CONFORMER_RMSD>
1.2

> <PUBCHEM_CONFORMER_DIVERSEORDER>
3
277
121
225
143
205
174
76
141
310
130
196
117
108
155
210
297
222
61
188
319
315
208
18
274
197
44
257
298
183
312
35
41
215
323
58
51
262
209
303
1
301
325
128
68
320
284
299
203
66
90
177
329
231
214
175
317
240
99
94
247
280
296
179
167
62
311
271
273
161
202
154
324
229
107
224
103
260
204
264
156
145
110
237
321
232
199
314
118
180
218
67
97
45
223
102
191
255
112
95
241
57
305
253
322
250
116
168
198
83
242
23
72
328
287
220
300
70
73
137
290
178
125
318
195
129
278
10
152
270
227
252
233
279
219
187
138
254
256
115
151
56
245
316
158
149
162
283
81
281
221
105
60
201
212
181
309
39
169
234
59
131
291
93
249
78
120
192
261
139
82
236
272
166
165
92
96
148
326
217
306
86
74
4
244
294
164
295
87
119
190
171
134
258
263
182
235
55
142
200
157
114
216
228
127
144
71
84
101
113
146
122
248
80
226
259
308
288
193
163
43
194
238
211
25
38
292
124
268
159
33
29
176
207
251
13
111
172
53
327
330
170
65
2
275
89
246
46
293
304
265
285
313
52
104
135
20
269
160
28
150
189
266
15
91
40
109
206
185
173
7
230
136
243
133
54
6
14
184
77
123
302
69
8
100
186
63
126
276
42
47
85
37
19
106
98
79
22
239
75
34
64
267
32
31
16
48
286
289
153
282
30
17
11
147
26
132
9
213
50
5
21
27
88
49
140
307
36
12
24

> <PUBCHEM_MMFF94_PARTIAL_CHARGES>
55
1 -0.56
10 -0.68
11 -0.36
12 -0.53
13 -0.57
14 -0.36
15 -0.53
16 0.28
17 0.28
18 0.28
19 0.28
2 -0.56
20 0.28
21 0.56
22 0.28
23 0.28
24 0.56
25 0.28
26 0.28
28 0.08
29 -0.15
3 -0.56
30 0.08
31 -0.15
32 0.42
33 0.09
34 0.06
35 0.08
36 0.42
37 -0.14
38 -0.15
39 -0.15
4 -0.68
40 0.08
41 -0.15
42 0.08
43 0.28
5 -0.36
59 0.4
6 -0.68
60 0.4
61 0.4
62 0.4
63 0.4
64 0.4
65 0.15
66 0.15
7 -0.68
70 0.15
71 0.15
72 0.45
73 0.15
74 0.45
8 -0.68
9 -0.68

> <PUBCHEM_EFFECTIVE_ROTOR_COUNT>
10

> <PUBCHEM_PHARMACOPHORE_FEATURES>
26
1 1 acceptor
1 10 acceptor
1 10 donor
1 11 acceptor
1 12 donor
1 13 acceptor
1 14 acceptor
1 15 donor
1 2 acceptor
1 3 acceptor
1 4 acceptor
1 4 donor
1 5 acceptor
1 6 acceptor
1 6 donor
1 7 acceptor
1 7 donor
1 8 acceptor
1 8 donor
1 9 acceptor
1 9 donor
6 1 16 17 18 19 24 rings
6 11 30 32 33 34 36 rings
6 28 29 30 31 33 35 rings
6 3 20 21 22 23 26 rings
6 37 38 39 40 41 42 rings

> <PUBCHEM_HEAVY_ATOM_COUNT>
43

> <PUBCHEM_ATOM_DEF_STEREO_COUNT>
11

> <PUBCHEM_ATOM_UDEF_STEREO_COUNT>
0

> <PUBCHEM_BOND_DEF_STEREO_COUNT>
0

> <PUBCHEM_BOND_UDEF_STEREO_COUNT>
0

> <PUBCHEM_ISOTOPIC_ATOM_COUNT>
0

> <PUBCHEM_COMPONENT_COUNT>
1

> <PUBCHEM_CACTVS_TAUTO_COUNT>
25

> <PUBCHEM_CONFORMER_ID>
0000297D00000003

> <PUBCHEM_MMFF94_ENERGY>
143.3033

> <PUBCHEM_FEATURE_SELFOVERLAP>
132.122

> <PUBCHEM_SHAPE_FINGERPRINT>
10032420 55 18337380552732031701
10622 236 18122905331146447926
10771551 21 18334857160840361326
10985338 1 16256934326710818853
11170278 133 18042103432986980135
11285246 1 18411419526879049437
11513181 2 17910970040929246246
12124843 1 18408323254827029886
12156800 1 16048105233996799667
12355185 1 18343016718181718455
14040221 126 16833710720650810055
14931854 50 18334579010189443726
15001296 14 17913462874591809463
15274700 21 17750243659542301875
15351339 4 18336543815861450442
16067689 391 18054533326040207078
17138139 8 18340484470115547516
20764821 26 18336552723565600242
20775438 99 17913465098773302391
21133410 62 17968107369942085937
21344244 181 18267861873467389071
238918 7 17333077032801155112
3298306 158 18042105687860153441
3383291 50 18412267250665993378
3534868 343 17834370351994501463
437795 51 18260834808971003091
4403749 210 17118021367471496904
44344687 77 18341895242982779271
44802255 64 16661226813911907270
45266715 3 18125979793275593429
50080093 196 17543077775175672690
50150288 127 17770240266192588569
508706 21 17753334458676534426
66674814 147 18261402096519841372
6669772 16 18124010572186925281
86090 222 18189606310750433585

> <PUBCHEM_SHAPE_MULTIPOLES>
796.88
12.97
7.04
3.29
3.61
1.97
-0.51
1.96
-17.16
-1.81
6.01
1.81
0.23
-0.37

> <PUBCHEM_SHAPE_SELFOVERLAP>
1720.27

> <PUBCHEM_SHAPE_VOLUME>
432.9

> <PUBCHEM_COORDINATE_TYPE>
2
5
10

$$$$
> 833_AKC_preprints202401.0661.v1

  Mrv0541 01252414023D              68.81000

 56 58  0  0  0  0            999 V2000
   10.5708    7.5671    0.8860 C   0  0  0  0  0  0  0  0  0  0  0  0
   11.3934    8.6046    0.5921 N   0  0  0  0  0  0  0  0  0  0  0  0
   11.1329    9.3989   -0.4778 C   0  0  0  0  0  0  0  0  0  0  0  0
   10.0321    9.1650   -1.2433 N   0  0  0  0  0  0  0  0  0  0  0  0
    9.1761    8.1384   -0.9827 C   0  0  0  0  0  0  0  0  0  0  0  0
    9.4580    7.2698    0.0967 C   0  0  0  0  0  0  0  0  0  0  0  0
   10.6975    6.6960    2.0441 C   0  0  1  0  0  0  0  0  0  0  0  0
    9.5786    5.6510    1.8239 C   0  0  1  0  0  0  0  0  0  0  0  0
    8.7112    6.1010    0.6020 C   0  0  2  0  0  0  0  0  0  0  0  0
    8.0735    8.0230   -1.7446 N   0  0  0  0  0  0  0  0  0  0  0  0
   11.9472   10.4278   -0.7570 N   0  0  0  0  0  0  0  0  0  0  0  0
    8.4762    4.9491   -0.4296 C   0  0  2  0  0  0  0  0  0  0  0  0
    7.5843    3.8172    0.1510 C   0  0  2  0  0  0  0  0  0  0  0  0
    7.4018    2.7358   -0.7663 N   0  0  0  0  0  0  0  0  0  0  0  0
    6.6704    1.6216   -0.4793 C   0  0  0  0  0  0  0  0  0  0  0  0
    4.6655    0.5002    0.3598 C   0  0  0  0  0  0  0  0  0  0  0  0
    5.3500    1.6801    0.0138 C   0  0  0  0  0  0  0  0  0  0  0  0
    7.2709    0.3601   -0.6562 C   0  0  0  0  0  0  0  0  0  0  0  0
    6.5892   -0.8179   -0.2937 C   0  0  0  0  0  0  0  0  0  0  0  0
    5.2765   -0.7768    0.2421 C   0  0  0  0  0  0  0  0  0  0  0  0
    4.5968   -1.9614    0.6761 C   0  0  0  0  0  0  0  0  0  0  0  0
    3.4435   -1.8652    1.1628 O   0  0  0  0  0  0  0  0  0  0  0  0
    5.1613   -3.2099    0.6037 N   0  0  0  0  0  0  0  0  0  0  0  0
    4.5753   -4.4316    1.0794 C   0  0  1  0  0  0  0  0  0  0  0  0
    3.5378   -4.8737    0.1223 C   0  0  0  0  0  0  0  0  0  0  0  0
    5.6423   -5.5518    1.2692 C   0  0  2  0  0  0  0  0  0  0  0  0
    6.6598   -5.2659    2.4062 C   0  0  2  0  0  0  0  0  0  0  0  0
    7.6203   -6.3746    2.5707 C   0  0  0  0  0  0  0  0  0  0  0  0
    3.8687   -5.2340   -1.1386 O   0  5  0  0  0  0  0  0  0  0  0  0
    2.3325   -4.9313    0.4532 O   0  0  0  0  0  0  0  0  0  0  0  0
    7.4026   -7.3021    3.3833 O   0  0  0  0  0  0  0  0  0  0  0  0
    8.7517   -6.4178    1.8296 O   0  5  0  0  0  0  0  0  0  0  0  0
   11.6865    6.2311    2.0746 H   0  0  0  0  0  0  0  0  0  0  0  0
   10.5297    7.2744    2.9559 H   0  0  0  0  0  0  0  0  0  0  0  0
   10.0535    4.6805    1.6422 H   0  0  0  0  0  0  0  0  0  0  0  0
    8.9555    5.5557    2.7192 H   0  0  0  0  0  0  0  0  0  0  0  0
    7.7414    6.4686    0.9512 H   0  0  0  0  0  0  0  0  0  0  0  0
    7.4298    7.3196   -1.5714 H   0  0  0  0  0  0  0  0  0  0  0  0
    7.9085    8.6600   -2.4580 H   0  0  0  0  0  0  0  0  0  0  0  0
   11.7532   11.0083   -1.5092 H   0  0  0  0  0  0  0  0  0  0  0  0
   12.7228   10.5985   -0.1983 H   0  0  0  0  0  0  0  0  0  0  0  0
    9.4387    4.5306   -0.7366 H   0  0  0  0  0  0  0  0  0  0  0  0
    7.9825    5.3391   -1.3208 H   0  0  0  0  0  0  0  0  0  0  0  0
    6.6184    4.2365    0.4421 H   0  0  0  0  0  0  0  0  0  0  0  0
    8.0569    3.4055    1.0464 H   0  0  0  0  0  0  0  0  0  0  0  0
    7.9126    2.7500   -1.5902 H   0  0  0  0  0  0  0  0  0  0  0  0
    3.7090    0.5910    0.7102 H   0  0  0  0  0  0  0  0  0  0  0  0
    4.8760    2.5787    0.1205 H   0  0  0  0  0  0  0  0  0  0  0  0
    8.2212    0.2923   -1.0278 H   0  0  0  0  0  0  0  0  0  0  0  0
    7.0764   -1.7073   -0.4192 H   0  0  0  0  0  0  0  0  0  0  0  0
    6.0317   -3.2839    0.1899 H   0  0  0  0  0  0  0  0  0  0  0  0
    4.1099   -4.2510    2.0539 H   0  0  0  0  0  0  0  0  0  0  0  0
    6.1868   -5.6923    0.3306 H   0  0  0  0  0  0  0  0  0  0  0  0
    5.1284   -6.4913    1.5019 H   0  0  0  0  0  0  0  0  0  0  0  0
    6.1266   -5.1127    3.3490 H   0  0  0  0  0  0  0  0  0  0  0  0
    7.2147   -4.3509    2.1852 H   0  0  0  0  0  0  0  0  0  0  0  0
  1  2  2  0  0  0  0
  2  3  1  0  0  0  0
  3  4  2  0  0  0  0
  4  5  1  0  0  0  0
  5  6  2  0  0  0  0
  1  7  1  0  0  0  0
  1  6  1  0  0  0  0
  6  9  1  0  0  0  0
  7  8  1  0  0  0  0
  8  9  1  0  0  0  0
  5 10  1  0  0  0  0
  3 11  1  0  0  0  0
  9 12  1  0  0  0  0
 12 13  1  0  0  0  0
 13 14  1  0  0  0  0
 14 15  1  0  0  0  0
 17 15  2  0  0  0  0
 15 18  1  0  0  0  0
 16 17  1  0  0  0  0
 18 19  2  0  0  0  0
 19 20  1  0  0  0  0
 16 20  2  0  0  0  0
 20 21  1  0  0  0  0
 21 22  2  0  0  0  0
 21 23  1  0  0  0  0
 24 23  1  0  0  0  0
 24 25  1  0  0  0  0
 24 26  1  0  0  0  0
 26 27  1  0  0  0  0
 27 28  1  0  0  0  0
 25 29  1  0  0  0  0
 25 30  2  0  0  0  0
 28 31  2  0  0  0  0
 28 32  1  0  0  0  0
  7 33  1  0  0  0  0
  7 34  1  0  0  0  0
  8 35  1  0  0  0  0
  8 36  1  0  0  0  0
  9 37  1  0  0  0  0
 10 38  1  0  0  0  0
 10 39  1  0  0  0  0
 11 40  1  0  0  0  0
 11 41  1  0  0  0  0
 12 42  1  0  0  0  0
 12 43  1  0  0  0  0
 13 44  1  0  0  0  0
 13 45  1  0  0  0  0
 14 46  1  0  0  0  0
 16 47  1  0  0  0  0
 17 48  1  0  0  0  0
 18 49  1  0  0  0  0
 19 50  1  0  0  0  0
 23 51  1  0  0  0  0
 24 52  1  0  0  0  0
 26 53  1  0  0  0  0
 26 54  1  0  0  0  0
 27 55  1  0  0  0  0
 27 56  1  0  0  0  0
M  CHG  2  29  -1  32  -1
M  END
>  <type>
systematic

$$$$
> 834_AKC_j.ijantimicag.2024.107092
5281035
  -OEChem-01252412043D

 57 60  0     0  0  0  0  0  0999 V2000
   -4.3575    0.2076   -0.1446 N   0  0  0  0  0  0  0  0  0  0  0  0
    2.4148    0.1249   -0.7368 N   0  3  0  0  0  0  0  0  0  0  0  0
    7.8045   -0.6596    0.3286 N   0  0  0  0  0  0  0  0  0  0  0  0
   -3.1900   -0.2709    0.3902 C   0  0  0  0  0  0  0  0  0  0  0  0
   -2.2132    0.4851   -0.1354 C   0  0  0  0  0  0  0  0  0  0  0  0
    3.7230   -0.0706   -0.4852 C   0  0  0  0  0  0  0  0  0  0  0  0
   -4.0818    1.2505   -0.9901 C   0  0  0  0  0  0  0  0  0  0  0  0
    4.3066    0.5615    0.6351 C   0  0  0  0  0  0  0  0  0  0  0  0
    1.6316    0.8959    0.0292 C   0  0  0  0  0  0  0  0  0  0  0  0
   -2.7175    1.4398   -0.9955 C   0  0  0  0  0  0  0  0  0  0  0  0
   -5.6351   -0.2907    0.1299 C   0  0  0  0  0  0  0  0  0  0  0  0
   -0.7856    0.3015    0.1807 C   0  0  0  0  0  0  0  0  0  0  0  0
    0.2220    1.0659   -0.2988 C   0  0  0  0  0  0  0  0  0  0  0  0
    5.6707    0.3557    0.8946 C   0  0  0  0  0  0  0  0  0  0  0  0
    6.4343   -0.4605    0.0573 C   0  0  0  0  0  0  0  0  0  0  0  0
    3.4976    1.3706    1.4443 C   0  0  0  0  0  0  0  0  0  0  0  0
    2.1512    1.5393    1.1400 C   0  0  0  0  0  0  0  0  0  0  0  0
    4.4938   -0.8865   -1.3193 C   0  0  0  0  0  0  0  0  0  0  0  0
   -3.1648   -1.4030    1.3461 C   0  0  0  0  0  0  0  0  0  0  0  0
   -5.1336    1.9851   -1.7265 C   0  0  0  0  0  0  0  0  0  0  0  0
    5.8472   -1.0795   -1.0459 C   0  0  0  0  0  0  0  0  0  0  0  0
    1.7925   -0.5291   -1.9032 C   0  0  0  0  0  0  0  0  0  0  0  0
   -6.1537   -1.3079   -0.6577 C   0  0  0  0  0  0  0  0  0  0  0  0
   -6.3617    0.2399    1.1855 C   0  0  0  0  0  0  0  0  0  0  0  0
    8.4533   -1.9004   -0.0449 C   0  0  0  0  0  0  0  0  0  0  0  0
    8.5833    0.3796    0.9715 C   0  0  0  0  0  0  0  0  0  0  0  0
   -7.4277   -1.8057   -0.3836 C   0  0  0  0  0  0  0  0  0  0  0  0
   -7.6356   -0.2578    1.4597 C   0  0  0  0  0  0  0  0  0  0  0  0
   -8.1685   -1.2806    0.6751 C   0  0  0  0  0  0  0  0  0  0  0  0
   -2.1997    2.1938   -1.5721 H   0  0  0  0  0  0  0  0  0  0  0  0
   -0.5215   -0.5058    0.8593 H   0  0  0  0  0  0  0  0  0  0  0  0
    0.0258    1.8875   -0.9823 H   0  0  0  0  0  0  0  0  0  0  0  0
    6.1153    0.8331    1.7651 H   0  0  0  0  0  0  0  0  0  0  0  0
    3.9107    1.8738    2.3154 H   0  0  0  0  0  0  0  0  0  0  0  0
    1.5330    2.1691    1.7732 H   0  0  0  0  0  0  0  0  0  0  0  0
    4.0931   -1.3988   -2.1875 H   0  0  0  0  0  0  0  0  0  0  0  0
   -3.7789   -1.1838    2.2260 H   0  0  0  0  0  0  0  0  0  0  0  0
   -3.5483   -2.3144    0.8753 H   0  0  0  0  0  0  0  0  0  0  0  0
   -2.1598   -1.6285    1.7107 H   0  0  0  0  0  0  0  0  0  0  0  0
   -4.6962    2.7778   -2.3430 H   0  0  0  0  0  0  0  0  0  0  0  0
   -5.6867    1.3172   -2.3947 H   0  0  0  0  0  0  0  0  0  0  0  0
   -5.8406    2.4577   -1.0372 H   0  0  0  0  0  0  0  0  0  0  0  0
    6.4202   -1.7108   -1.7194 H   0  0  0  0  0  0  0  0  0  0  0  0
    1.8203   -1.6106   -1.7371 H   0  0  0  0  0  0  0  0  0  0  0  0
    0.7618   -0.2418   -2.1002 H   0  0  0  0  0  0  0  0  0  0  0  0
    2.3587   -0.2450   -2.7963 H   0  0  0  0  0  0  0  0  0  0  0  0
   -5.5860   -1.7254   -1.4853 H   0  0  0  0  0  0  0  0  0  0  0  0
   -5.9573    1.0369    1.8041 H   0  0  0  0  0  0  0  0  0  0  0  0
    8.7066   -1.9008   -1.1103 H   0  0  0  0  0  0  0  0  0  0  0  0
    7.8194   -2.7671    0.1742 H   0  0  0  0  0  0  0  0  0  0  0  0
    9.3844   -2.0427    0.5150 H   0  0  0  0  0  0  0  0  0  0  0  0
    9.6560    0.2283    0.8065 H   0  0  0  0  0  0  0  0  0  0  0  0
    8.3402    1.3701    0.5705 H   0  0  0  0  0  0  0  0  0  0  0  0
    8.4140    0.3787    2.0533 H   0  0  0  0  0  0  0  0  0  0  0  0
   -7.8426   -2.6021   -0.9944 H   0  0  0  0  0  0  0  0  0  0  0  0
   -8.2126    0.1509    2.2841 H   0  0  0  0  0  0  0  0  0  0  0  0
   -9.1603   -1.6681    0.8887 H   0  0  0  0  0  0  0  0  0  0  0  0
  1  4  1  0  0  0  0
  1  7  1  0  0  0  0
  1 11  1  0  0  0  0
  2  6  1  0  0  0  0
  2  9  2  0  0  0  0
  2 22  1  0  0  0  0
  3 15  1  0  0  0  0
  3 25  1  0  0  0  0
  3 26  1  0  0  0  0
  4  5  2  0  0  0  0
  4 19  1  0  0  0  0
  5 10  1  0  0  0  0
  5 12  1  0  0  0  0
  6  8  2  0  0  0  0
  6 18  1  0  0  0  0
  7 10  2  0  0  0  0
  7 20  1  0  0  0  0
  8 14  1  0  0  0  0
  8 16  1  0  0  0  0
  9 13  1  0  0  0  0
  9 17  1  0  0  0  0
 10 30  1  0  0  0  0
 11 23  2  0  0  0  0
 11 24  1  0  0  0  0
 12 13  2  0  0  0  0
 12 31  1  0  0  0  0
 13 32  1  0  0  0  0
 14 15  2  0  0  0  0
 14 33  1  0  0  0  0
 15 21  1  0  0  0  0
 16 17  2  0  0  0  0
 16 34  1  0  0  0  0
 17 35  1  0  0  0  0
 18 21  2  0  0  0  0
 18 36  1  0  0  0  0
 19 37  1  0  0  0  0
 19 38  1  0  0  0  0
 19 39  1  0  0  0  0
 20 40  1  0  0  0  0
 20 41  1  0  0  0  0
 20 42  1  0  0  0  0
 21 43  1  0  0  0  0
 22 44  1  0  0  0  0
 22 45  1  0  0  0  0
 22 46  1  0  0  0  0
 23 27  1  0  0  0  0
 23 47  1  0  0  0  0
 24 28  2  0  0  0  0
 24 48  1  0  0  0  0
 25 49  1  0  0  0  0
 25 50  1  0  0  0  0
 25 51  1  0  0  0  0
 26 52  1  0  0  0  0
 26 53  1  0  0  0  0
 26 54  1  0  0  0  0
 27 29  2  0  0  0  0
 27 55  1  0  0  0  0
 28 29  1  0  0  0  0
 28 56  1  0  0  0  0
 29 57  1  0  0  0  0
M  CHG  1   2   1
M  END
> <PUBCHEM_COMPOUND_CID>
5281035

> <PUBCHEM_CONFORMER_RMSD>
0.8

> <PUBCHEM_CONFORMER_DIVERSEORDER>
1
7
3
6
5
4
8
2

> <PUBCHEM_MMFF94_PARTIAL_CHARGES>
41
1 0.33
10 -0.15
11 -0.02
12 -0.1
13 -0.18
14 -0.15
15 0.1
16 -0.15
17 -0.15
18 -0.15
19 0.18
2 -0.21
20 0.18
21 -0.15
22 0.49
23 -0.15
24 -0.15
25 0.37
26 0.37
27 -0.15
28 -0.15
29 -0.15
3 -0.84
30 0.15
31 0.15
32 0.15
33 0.15
34 0.15
35 0.15
36 0.15
4 -0.33
43 0.15
47 0.15
48 0.15
5 -0.05
55 0.15
56 0.15
57 0.15
6 0.36
7 -0.33
9 0.39

> <PUBCHEM_EFFECTIVE_ROTOR_COUNT>
4

> <PUBCHEM_PHARMACOPHORE_FEATURES>
6
1 1 cation
1 3 cation
5 1 4 5 7 10 rings
6 11 23 24 27 28 29 rings
6 2 6 8 9 16 17 rings
6 6 8 14 15 18 21 rings

> <PUBCHEM_HEAVY_ATOM_COUNT>
29

> <PUBCHEM_ATOM_DEF_STEREO_COUNT>
0

> <PUBCHEM_ATOM_UDEF_STEREO_COUNT>
0

> <PUBCHEM_BOND_DEF_STEREO_COUNT>
1

> <PUBCHEM_BOND_UDEF_STEREO_COUNT>
0

> <PUBCHEM_ISOTOPIC_ATOM_COUNT>
0

> <PUBCHEM_COMPONENT_COUNT>
1

> <PUBCHEM_CACTVS_TAUTO_COUNT>
1

> <PUBCHEM_CONFORMER_ID>
0050950B00000001

> <PUBCHEM_MMFF94_ENERGY>
133.2474

> <PUBCHEM_FEATURE_SELFOVERLAP>
30.478

> <PUBCHEM_SHAPE_FINGERPRINT>
10 15 14692575411901263479
10100884 174 17344614076175849607
10162869 55 16056589963924390845
10299344 5 18342179981042501312
106641 1 17703788141842301666
10670039 82 17240759562974765413
11135926 11 16988839454191244421
11456790 92 16773794771546122394
11524674 6 17846501461320445503
12089408 11 16877942707841559764
12166972 35 17967535692141151405
12236239 1 15195561308221336084
12616971 3 16200429187176575837
12643181 29 18040718103896490859
12741549 16 18201718444542677257
13673619 4 18333730225625412853
13685833 64 18272371970704837064
13782708 43 18411136970092546715
14118638 360 17095795538615183281
14251764 18 16845570924818922976
14294032 229 17314218961878182693
14394314 77 14979958064741097203
14849402 71 16199857480042990032
15183329 4 14923941245350052604
15247644 1 18113620097163819211
15352257 5 18410294705019638475
15419008 47 18411694379101196257
15510794 2 18412821374540275285
1577012 14 16153699882623856621
18335252 114 12468641630049256238
18608769 82 18408886260852719851
18681886 176 17095240345404775276
19301679 30 17059788694007433918
19841028 212 18129387008349528814
2026 5 18189333473164900218
21150785 3 14417851453960096273
21267235 1 17676490562311960961
21623969 137 17775570840070821310
22224240 67 17203608190380045694
23559900 14 18334007302972259228
23576562 1 11819861633466893219
246663 6 18259705600968632394
249057 3 16081093705487750338
3004659 81 16371005243476604525
3178227 256 17703789228500559102
3383291 50 18186523232944162507
34797466 226 18260274079088744012
4073 2 18129660949182955667
4093350 32 14620521099561164102
504579 68 15574432124341983219
5758199 1 15626501692741719990
58083652 198 17131536298232894609
5937810 71 11675143858076355391
59682541 35 17846775235309491658
59755656 215 18040714766553777899
636775 8 16805332110825709195
9962374 69 18189332527522001847

> <PUBCHEM_SHAPE_MULTIPOLES>
581.86
27.47
1.67
1.47
7.81
0.05
0.17
12.13
-5.46
-0.81
0.22
-0.5
-0.2
2.15

> <PUBCHEM_SHAPE_SELFOVERLAP>
1279.377

> <PUBCHEM_SHAPE_VOLUME>
317.2

> <PUBCHEM_COORDINATE_TYPE>
2
5
10

$$$$
> 835_AKC_j.ijantimicag.2024.107092
6197
  -OEChem-01252412063D

 43 44  0     1  0  0  0  0  0999 V2000
   -0.4952    0.9739   -1.8441 O   0  0  0  0  0  0  0  0  0  0  0  0
   -2.4809    2.1301   -0.2271 O   0  0  0  0  0  0  0  0  0  0  0  0
    4.5406   -2.1770    0.3560 O   0  0  0  0  0  0  0  0  0  0  0  0
    3.3241    2.0439    1.7412 O   0  0  0  0  0  0  0  0  0  0  0  0
    3.9111   -0.0645    1.0236 N   0  0  0  0  0  0  0  0  0  0  0  0
   -1.4294   -0.0171    0.1297 C   0  0  1  0  0  0  0  0  0  0  0  0
   -3.1221   -1.9339   -0.0625 C   0  0  2  0  0  0  0  0  0  0  0  0
   -1.8220   -1.3102   -0.5933 C   0  0  0  0  0  0  0  0  0  0  0  0
   -0.1844    0.5948   -0.5076 C   0  0  1  0  0  0  0  0  0  0  0  0
   -3.9298    0.3979    0.6352 C   0  0  1  0  0  0  0  0  0  0  0  0
   -4.2627   -0.9050   -0.0999 C   0  0  0  0  0  0  0  0  0  0  0  0
   -2.6075    0.9540    0.1117 C   0  0  0  0  0  0  0  0  0  0  0  0
    0.9732   -0.4036   -0.5222 C   0  0  0  0  0  0  0  0  0  0  0  0
    2.2255    0.1751   -1.1863 C   0  0  0  0  0  0  0  0  0  0  0  0
   -2.9419   -2.5437    1.3293 C   0  0  0  0  0  0  0  0  0  0  0  0
   -5.0664    1.4051    0.4796 C   0  0  0  0  0  0  0  0  0  0  0  0
    3.3653   -0.8370   -1.2430 C   0  0  0  0  0  0  0  0  0  0  0  0
    2.7077    1.4459   -0.4941 C   0  0  0  0  0  0  0  0  0  0  0  0
    3.9775   -1.1103    0.1108 C   0  0  0  0  0  0  0  0  0  0  0  0
    3.3172    1.1816    0.8629 C   0  0  0  0  0  0  0  0  0  0  0  0
   -1.2102   -0.2291    1.1834 H   0  0  0  0  0  0  0  0  0  0  0  0
   -1.9655   -1.1233   -1.6646 H   0  0  0  0  0  0  0  0  0  0  0  0
   -1.0436   -2.0736   -0.5010 H   0  0  0  0  0  0  0  0  0  0  0  0
   -3.3960   -2.7576   -0.7352 H   0  0  0  0  0  0  0  0  0  0  0  0
    0.0682    1.5021    0.0474 H   0  0  0  0  0  0  0  0  0  0  0  0
   -3.7942    0.2044    1.7058 H   0  0  0  0  0  0  0  0  0  0  0  0
   -5.1742   -1.3477    0.3207 H   0  0  0  0  0  0  0  0  0  0  0  0
   -4.4840   -0.6786   -1.1521 H   0  0  0  0  0  0  0  0  0  0  0  0
    1.1825   -0.7401    0.4997 H   0  0  0  0  0  0  0  0  0  0  0  0
    0.7193   -1.2909   -1.1113 H   0  0  0  0  0  0  0  0  0  0  0  0
    1.9747    0.4329   -2.2237 H   0  0  0  0  0  0  0  0  0  0  0  0
   -2.1602   -3.3108    1.3145 H   0  0  0  0  0  0  0  0  0  0  0  0
   -2.6645   -1.8003    2.0818 H   0  0  0  0  0  0  0  0  0  0  0  0
   -3.8694   -3.0229    1.6607 H   0  0  0  0  0  0  0  0  0  0  0  0
   -4.8483    2.3270    1.0296 H   0  0  0  0  0  0  0  0  0  0  0  0
   -5.2193    1.6758   -0.5710 H   0  0  0  0  0  0  0  0  0  0  0  0
   -6.0052    0.9968    0.8679 H   0  0  0  0  0  0  0  0  0  0  0  0
    4.1678   -0.4636   -1.8908 H   0  0  0  0  0  0  0  0  0  0  0  0
    3.0142   -1.7854   -1.6654 H   0  0  0  0  0  0  0  0  0  0  0  0
    1.9321    2.2091   -0.4022 H   0  0  0  0  0  0  0  0  0  0  0  0
    3.5032    1.8998   -1.1005 H   0  0  0  0  0  0  0  0  0  0  0  0
   -0.4742    0.1842   -2.4097 H   0  0  0  0  0  0  0  0  0  0  0  0
    4.3385   -0.2385    1.9292 H   0  0  0  0  0  0  0  0  0  0  0  0
  1  9  1  0  0  0  0
  1 42  1  0  0  0  0
  2 12  2  0  0  0  0
  3 19  2  0  0  0  0
  4 20  2  0  0  0  0
  5 19  1  0  0  0  0
  5 20  1  0  0  0  0
  5 43  1  0  0  0  0
  6  8  1  0  0  0  0
  6  9  1  0  0  0  0
  6 12  1  0  0  0  0
  6 21  1  0  0  0  0
  7  8  1  0  0  0  0
  7 11  1  0  0  0  0
  7 15  1  0  0  0  0
  7 24  1  0  0  0  0
  8 22  1  0  0  0  0
  8 23  1  0  0  0  0
  9 13  1  0  0  0  0
  9 25  1  0  0  0  0
 10 11  1  0  0  0  0
 10 12  1  0  0  0  0
 10 16  1  0  0  0  0
 10 26  1  0  0  0  0
 11 27  1  0  0  0  0
 11 28  1  0  0  0  0
 13 14  1  0  0  0  0
 13 29  1  0  0  0  0
 13 30  1  0  0  0  0
 14 17  1  0  0  0  0
 14 18  1  0  0  0  0
 14 31  1  0  0  0  0
 15 32  1  0  0  0  0
 15 33  1  0  0  0  0
 15 34  1  0  0  0  0
 16 35  1  0  0  0  0
 16 36  1  0  0  0  0
 16 37  1  0  0  0  0
 17 19  1  0  0  0  0
 17 38  1  0  0  0  0
 17 39  1  0  0  0  0
 18 20  1  0  0  0  0
 18 40  1  0  0  0  0
 18 41  1  0  0  0  0
M  END
> <PUBCHEM_COMPOUND_CID>
6197

> <PUBCHEM_CONFORMER_RMSD>
0.6

> <PUBCHEM_CONFORMER_DIVERSEORDER>
8
18
20
25
4
2
16
5
9
15
22
7
21
12
14
24
6
10
19
13
3
1
23
17
11

> <PUBCHEM_MMFF94_PARTIAL_CHARGES>
15
1 -0.68
10 0.06
12 0.45
17 0.06
18 0.06
19 0.57
2 -0.57
20 0.57
3 -0.57
4 -0.57
42 0.4
43 0.37
5 -0.49
6 0.06
9 0.28

> <PUBCHEM_EFFECTIVE_ROTOR_COUNT>
4.8

> <PUBCHEM_PHARMACOPHORE_FEATURES>
8
1 1 acceptor
1 1 donor
1 2 acceptor
1 3 acceptor
1 4 acceptor
1 5 donor
6 5 14 17 18 19 20 rings
6 6 7 8 10 11 12 rings

> <PUBCHEM_HEAVY_ATOM_COUNT>
20

> <PUBCHEM_ATOM_DEF_STEREO_COUNT>
4

> <PUBCHEM_ATOM_UDEF_STEREO_COUNT>
0

> <PUBCHEM_BOND_DEF_STEREO_COUNT>
0

> <PUBCHEM_BOND_UDEF_STEREO_COUNT>
0

> <PUBCHEM_ISOTOPIC_ATOM_COUNT>
0

> <PUBCHEM_COMPONENT_COUNT>
1

> <PUBCHEM_CACTVS_TAUTO_COUNT>
6

> <PUBCHEM_CONFORMER_ID>
0000183500000008

> <PUBCHEM_MMFF94_ENERGY>
41.3914

> <PUBCHEM_FEATURE_SELFOVERLAP>
40.601

> <PUBCHEM_SHAPE_FINGERPRINT>
10366900 7 18272658951818980982
11045977 3 18344146985885593320
11132069 177 18410014347113882269
11370993 144 18342175544420386401
11405975 8 18342179959630923155
11543360 7 8286201651652473670
11615757 297 16200158736953145947
12346177 29 18333443240521490735
12507560 40 18201441414650369053
12553582 1 16660361480658686182
12596599 1 17458623470801419243
12633257 1 18200887174943404257
12670546 56 18412820300650738495
12707595 3 15068620504692802836
128620 24 10879989159794635791
12892183 10 18268147741462329335
13004483 165 17414694751936903623
13224815 77 18187928421161327566
13533116 47 18411133641129265699
13583140 156 18059570338417857128
13675066 3 18410858784696755415
14178342 30 18188208809548534555
14251758 9 17749384820163172109
14289901 80 18198905996713438410
14341114 176 18341055142361956528
14420673 8 18192999205833912306
14866123 147 16256186181946126830
15295992 7 17917425415044295601
15375358 24 17846503621319028287
16752209 62 16370991975958565572
17492 89 18116160041579079947
17804303 29 18410583859371007207
1813 80 16950285104611737084
19050596 39 18411419518188439751
20281475 54 18113341941721125670
20681677 76 18201711898806080961
20775530 9 17026255723664426050
21065198 57 18342457049414349840
21065199 12 18342174509385963698
22169311 14 18342455924396655828
22646028 1 18040437689391079711
22646028 28 17967813877088062006
23402539 116 18341610379039515069
23503953 91 18187644729913102189
23559900 14 18341061760785214652
2838139 119 13684358322451050659
3286 77 18411697677951570902
351380 180 17988922232630173465
42 15 18409449159223854894
49207404 50 18131071592657459768
5104073 3 18343308084658029043
5374978 207 18272372009433311355
5924683 9 18201713003240573255
633830 44 16588311596023848573
9709674 26 18342184349214723895
9981440 41 17106234585609888461

> <PUBCHEM_SHAPE_MULTIPOLES>
383.13
10.26
2.31
1.28
0.41
0.53
-0.03
0.86
-2.6
-0.66
-0.62
0.83
-0.17
0.72

> <PUBCHEM_SHAPE_SELFOVERLAP>
787.213

> <PUBCHEM_SHAPE_VOLUME>
217.4

> <PUBCHEM_COORDINATE_TYPE>
2
5
10

$$$$
> 836_AKC_pathogens13020104

  Mrv0541 02062413313D              74.08000

 52 54  0  0  0  0            999 V2000
    1.0363   -0.7513   -1.5103 C   0  0  0  0  0  0  0  0  0  0  0  0
   -0.2432   -0.8699   -2.0788 C   0  0  0  0  0  0  0  0  0  0  0  0
   -0.9504    0.2819   -2.4690 C   0  0  0  0  0  0  0  0  0  0  0  0
   -0.4012    1.5750   -2.2862 C   0  0  0  0  0  0  0  0  0  0  0  0
    0.8826    1.6745   -1.6932 C   0  0  0  0  0  0  0  0  0  0  0  0
    1.6082    0.5221   -1.3206 C   0  0  0  0  0  0  0  0  0  0  0  0
    2.8793    0.6013   -0.8524 N   0  0  0  0  0  0  0  0  0  0  0  0
   -1.1584    2.7743   -2.7509 C   0  0  2  0  0  0  0  0  0  0  0  0
   -2.3619    2.8683   -2.0937 F   0  0  0  0  0  0  0  0  0  0  0  0
    3.2926    1.2089    0.2907 C   0  0  0  0  0  0  0  0  0  0  0  0
    4.5265    1.1671    0.5040 O   0  0  0  0  0  0  0  0  0  0  0  0
    2.4469    1.7926    1.1945 N   0  0  0  0  0  0  0  0  0  0  0  0
    2.8352    2.2784    2.4910 C   0  0  2  0  0  0  0  0  0  0  0  0
    2.9476    1.0966    3.4957 C   0  0  1  0  0  0  0  0  0  0  0  0
    1.8184    3.3309    3.0160 C   0  0  1  0  0  0  0  0  0  0  0  0
    2.1802    3.8269    4.4450 C   0  0  1  0  0  0  0  0  0  0  0  0
    2.2911    2.6612    5.4682 C   0  0  1  0  0  0  0  0  0  0  0  0
    3.2791    1.5740    4.9336 C   0  0  2  0  0  0  0  0  0  0  0  0
    2.6793    3.2178    6.7573 O   0  0  0  0  0  0  0  0  0  0  0  0
    2.7842    2.2830    7.7576 C   0  0  0  0  0  0  0  0  0  0  0  0
    1.7625    0.6265    9.2341 C   0  0  0  0  0  0  0  0  0  0  0  0
    1.6382    1.7289    8.3675 C   0  0  0  0  0  0  0  0  0  0  0  0
    4.0615    1.8250    8.1418 C   0  0  0  0  0  0  0  0  0  0  0  0
    4.1868    0.7359    9.0233 C   0  0  0  0  0  0  0  0  0  0  0  0
    3.0353    0.0865    9.5157 C   0  0  0  0  0  0  0  0  0  0  0  0
    3.1654   -1.0664   10.2486 O   0  0  0  0  0  0  0  0  0  0  0  0
    3.0914   -2.2723    9.4509 C   0  0  2  0  0  0  0  0  0  0  0  0
    4.0096   -2.3067    8.4249 F   0  0  0  0  0  0  0  0  0  0  0  0
    1.8320   -2.4763    8.9361 F   0  0  0  0  0  0  0  0  0  0  0  0
    3.3707   -3.3393   10.2651 F   0  0  0  0  0  0  0  0  0  0  0  0
   -1.4025    2.6703   -4.1003 F   0  0  0  0  0  0  0  0  0  0  0  0
   -0.5027    3.9708   -2.5624 F   0  0  0  0  0  0  0  0  0  0  0  0
    1.5474   -1.5963   -1.2418 H   0  0  0  0  0  0  0  0  0  0  0  0
   -0.6528   -1.7946   -2.2170 H   0  0  0  0  0  0  0  0  0  0  0  0
   -1.8701    0.1676   -2.9011 H   0  0  0  0  0  0  0  0  0  0  0  0
    1.3155    2.5910   -1.5540 H   0  0  0  0  0  0  0  0  0  0  0  0
    3.5577    0.1411   -1.3723 H   0  0  0  0  0  0  0  0  0  0  0  0
    1.5060    1.8464    0.9646 H   0  0  0  0  0  0  0  0  0  0  0  0
    3.8089    2.7702    2.4167 H   0  0  0  0  0  0  0  0  0  0  0  0
    2.0058    0.5383    3.5120 H   0  0  0  0  0  0  0  0  0  0  0  0
    3.7368    0.4140    3.1670 H   0  0  0  0  0  0  0  0  0  0  0  0
    1.8032    4.1886    2.3379 H   0  0  0  0  0  0  0  0  0  0  0  0
    0.8146    2.8953    3.0306 H   0  0  0  0  0  0  0  0  0  0  0  0
    3.1302    4.3670    4.4070 H   0  0  0  0  0  0  0  0  0  0  0  0
    1.4102    4.5275    4.7789 H   0  0  0  0  0  0  0  0  0  0  0  0
    1.2934    2.2160    5.5610 H   0  0  0  0  0  0  0  0  0  0  0  0
    4.2968    1.9732    4.9565 H   0  0  0  0  0  0  0  0  0  0  0  0
    3.2453    0.6994    5.5895 H   0  0  0  0  0  0  0  0  0  0  0  0
    0.9238    0.2027    9.6383 H   0  0  0  0  0  0  0  0  0  0  0  0
    0.7106    2.1043    8.1544 H   0  0  0  0  0  0  0  0  0  0  0  0
    4.9010    2.2578    7.7508 H   0  0  0  0  0  0  0  0  0  0  0  0
    5.1172    0.3960    9.2820 H   0  0  0  0  0  0  0  0  0  0  0  0
  1  2  1  0  0  0  0
  1  6  2  0  0  0  0
  2  3  2  0  0  0  0
  3  4  1  0  0  0  0
  4  5  2  0  0  0  0
  5  6  1  0  0  0  0
  6  7  1  0  0  0  0
  4  8  1  0  0  0  0
  8  9  1  0  0  0  0
  7 10  1  0  0  0  0
 10 11  2  0  0  0  0
 10 12  1  0  0  0  0
 13 12  1  0  0  0  0
 14 13  1  0  0  0  0
 13 15  1  0  0  0  0
 14 18  1  0  0  0  0
 15 16  1  0  0  0  0
 16 17  1  0  0  0  0
 17 18  1  0  0  0  0
 17 19  1  0  0  0  0
 19 20  1  0  0  0  0
 22 20  2  0  0  0  0
 20 23  1  0  0  0  0
 21 22  1  0  0  0  0
 21 25  2  0  0  0  0
 23 24  2  0  0  0  0
 24 25  1  0  0  0  0
 25 26  1  0  0  0  0
 26 27  1  0  0  0  0
 27 28  1  0  0  0  0
 27 29  1  0  0  0  0
 27 30  1  0  0  0  0
  8 31  1  0  0  0  0
  8 32  1  0  0  0  0
  1 33  1  0  0  0  0
  2 34  1  0  0  0  0
  3 35  1  0  0  0  0
  5 36  1  0  0  0  0
  7 37  1  0  0  0  0
 12 38  1  0  0  0  0
 13 39  1  0  0  0  0
 14 40  1  0  0  0  0
 14 41  1  0  0  0  0
 15 42  1  0  0  0  0
 15 43  1  0  0  0  0
 16 44  1  0  0  0  0
 16 45  1  0  0  0  0
 17 46  1  0  0  0  0
 18 47  1  0  0  0  0
 18 48  1  0  0  0  0
 21 49  1  0  0  0  0
 22 50  1  0  0  0  0
 23 51  1  0  0  0  0
 24 52  1  0  0  0  0
M  END
$$$$
> 837_AKC_j.bmc.2013.04.063

  Mrv0541 02262419543D              50.21000

 33 35  0  0  0  0            999 V2000
    3.3723    1.7516   -1.7373 C   0  0  0  0  0  0  0  0  0  0  0  0
    4.4081    2.5493   -2.2631 C   0  0  0  0  0  0  0  0  0  0  0  0
    5.2032    3.3560   -1.4174 C   0  0  0  0  0  0  0  0  0  0  0  0
    4.9467    3.3426   -0.0253 C   0  0  0  0  0  0  0  0  0  0  0  0
    3.9184    2.5455    0.5102 C   0  0  0  0  0  0  0  0  0  0  0  0
    3.1305    1.7490   -0.3384 C   0  0  0  0  0  0  0  0  0  0  0  0
    2.1352    0.9773    0.1686 N   0  0  0  0  0  0  0  0  0  0  0  0
    1.3284    0.2039   -0.6049 C   0  0  0  0  0  0  0  0  0  0  0  0
    1.5317    0.1741   -2.0008 C   0  0  0  0  0  0  0  0  0  0  0  0
    2.5619    0.9451   -2.5612 C   0  0  0  0  0  0  0  0  0  0  0  0
    0.3040   -0.5490   -0.0001 C   0  0  0  0  0  0  0  0  0  0  0  0
    0.6122   -1.5155    0.9833 C   0  0  0  0  0  0  0  0  0  0  0  0
   -0.4093   -2.2839    1.5713 C   0  0  0  0  0  0  0  0  0  0  0  0
   -1.7488   -2.0831    1.1917 C   0  0  0  0  0  0  0  0  0  0  0  0
   -2.0675   -1.1170    0.2214 C   0  0  0  0  0  0  0  0  0  0  0  0
   -1.0461   -0.3553   -0.3739 C   0  0  0  0  0  0  0  0  0  0  0  0
    6.3178    4.1618   -1.9847 C   0  0  2  0  0  0  0  0  0  0  0  0
    7.6236    3.3346   -2.0157 C   0  0  0  0  0  0  0  0  0  0  0  0
    4.5933    2.5372   -3.2706 H   0  0  0  0  0  0  0  0  0  0  0  0
    5.5163    3.9066    0.6105 H   0  0  0  0  0  0  0  0  0  0  0  0
    3.7499    2.5470    1.5200 H   0  0  0  0  0  0  0  0  0  0  0  0
    0.9459   -0.4054   -2.6075 H   0  0  0  0  0  0  0  0  0  0  0  0
    2.7124    0.9133   -3.5721 H   0  0  0  0  0  0  0  0  0  0  0  0
    1.5811   -1.6785    1.2686 H   0  0  0  0  0  0  0  0  0  0  0  0
   -0.1775   -2.9911    2.2729 H   0  0  0  0  0  0  0  0  0  0  0  0
   -2.4900   -2.6390    1.6208 H   0  0  0  0  0  0  0  0  0  0  0  0
   -3.0415   -0.9684   -0.0528 H   0  0  0  0  0  0  0  0  0  0  0  0
   -1.2970    0.3436   -1.0777 H   0  0  0  0  0  0  0  0  0  0  0  0
    6.4771    5.0681   -1.3932 H   0  0  0  0  0  0  0  0  0  0  0  0
    6.0786    4.4875   -3.0022 H   0  0  0  0  0  0  0  0  0  0  0  0
    8.4359    3.9315   -2.4359 H   0  0  0  0  0  0  0  0  0  0  0  0
    7.4959    2.4399   -2.6316 H   0  0  0  0  0  0  0  0  0  0  0  0
    7.9037    3.0281   -1.0044 H   0  0  0  0  0  0  0  0  0  0  0  0
  1  2  1  0  0  0  0
  1  6  2  0  0  0  0
  1 10  1  0  0  0  0
  2  3  2  0  0  0  0
  3  4  1  0  0  0  0
  4  5  2  0  0  0  0
  5  6  1  0  0  0  0
  6  7  1  0  0  0  0
  7  8  2  0  0  0  0
  8  9  1  0  0  0  0
  9 10  2  0  0  0  0
  8 11  1  0  0  0  0
 11 12  1  0  0  0  0
 11 16  2  0  0  0  0
 12 13  2  0  0  0  0
 13 14  1  0  0  0  0
 14 15  2  0  0  0  0
 15 16  1  0  0  0  0
  3 17  1  0  0  0  0
 17 18  1  0  0  0  0
  2 19  1  0  0  0  0
  4 20  1  0  0  0  0
  5 21  1  0  0  0  0
  9 22  1  0  0  0  0
 10 23  1  0  0  0  0
 12 24  1  0  0  0  0
 13 25  1  0  0  0  0
 14 26  1  0  0  0  0
 15 27  1  0  0  0  0
 16 28  1  0  0  0  0
 17 29  1  0  0  0  0
 17 30  1  0  0  0  0
 18 31  1  0  0  0  0
 18 32  1  0  0  0  0
 18 33  1  0  0  0  0
M  END
$$$$
> 838_AKC_aac.02201-12

  Mrv0541 02262419583D              79.91000

 50 52  0  0  0  0            999 V2000
    1.5982   -4.3424   -1.1608 C   0  0  0  0  0  0  0  0  0  0  0  0
    1.2836   -5.0081    0.0685 C   0  0  0  0  0  0  0  0  0  0  0  0
    0.2937   -4.5005    0.9286 C   0  0  0  0  0  0  0  0  0  0  0  0
   -0.4630   -3.3817    0.5709 C   0  0  0  0  0  0  0  0  0  0  0  0
   -0.2526   -2.7317   -0.6612 C   0  0  0  0  0  0  0  0  0  0  0  0
    0.7636   -3.2298   -1.5363 C   0  0  0  0  0  0  0  0  0  0  0  0
    0.9667   -2.6492   -2.8126 C   0  0  0  0  0  0  0  0  0  0  0  0
    1.9811   -3.0939   -3.6607 C   0  0  0  0  0  0  0  0  0  0  0  0
    2.8217   -4.1157   -3.2189 C   0  0  0  0  0  0  0  0  0  0  0  0
    2.6510   -4.7165   -1.9969 N   0  3  0  0  0  0  0  0  0  0  0  0
   -1.0716   -1.5963   -0.9485 C   0  0  0  0  0  0  0  0  0  0  0  0
   -0.5062   -0.3063   -1.0787 C   0  0  0  0  0  0  0  0  0  0  0  0
   -1.3101    0.8019   -1.4092 C   0  0  0  0  0  0  0  0  0  0  0  0
   -2.7005    0.6510   -1.6173 C   0  0  0  0  0  0  0  0  0  0  0  0
   -3.2701   -0.6325   -1.4538 C   0  0  0  0  0  0  0  0  0  0  0  0
   -2.4683   -1.7403   -1.1169 C   0  0  0  0  0  0  0  0  0  0  0  0
   -3.5377    1.8004   -2.0433 C   0  0  0  0  0  0  0  0  0  0  0  0
    1.8980   -6.1615    0.4993 O   0  0  0  0  0  0  0  0  0  0  0  0
    1.1870   -7.3761    0.1691 C   0  0  2  0  0  0  0  0  0  0  0  0
    3.6274   -5.7385   -1.6685 C   0  0  0  0  0  0  0  0  0  0  0  0
    2.0811   -8.6061    0.4639 C   0  0  2  0  0  0  0  0  0  0  0  0
    1.5007   -9.9224   -0.1235 C   0  0  1  0  0  0  0  0  0  0  0  0
    2.3826  -11.1533    0.2136 C   0  0  1  0  0  0  0  0  0  0  0  0
    1.7967  -12.4836   -0.3096 C   0  0  0  0  0  0  0  0  0  0  0  0
    0.1125   -4.9526    1.8281 H   0  0  0  0  0  0  0  0  0  0  0  0
   -1.1738   -3.0480    1.2279 H   0  0  0  0  0  0  0  0  0  0  0  0
    0.3751   -1.8921   -3.1569 H   0  0  0  0  0  0  0  0  0  0  0  0
    2.1092   -2.6736   -4.5862 H   0  0  0  0  0  0  0  0  0  0  0  0
    3.5707   -4.4033   -3.8570 H   0  0  0  0  0  0  0  0  0  0  0  0
    0.4991   -0.1680   -0.9440 H   0  0  0  0  0  0  0  0  0  0  0  0
   -0.8703    1.7197   -1.5107 H   0  0  0  0  0  0  0  0  0  0  0  0
   -4.2744   -0.7722   -1.5913 H   0  0  0  0  0  0  0  0  0  0  0  0
   -2.9090   -2.6585   -1.0105 H   0  0  0  0  0  0  0  0  0  0  0  0
   -3.6148    1.8027   -3.1322 H   0  0  0  0  0  0  0  0  0  0  0  0
   -3.1077    2.7525   -1.7262 H   0  0  0  0  0  0  0  0  0  0  0  0
   -4.5439    1.7361   -1.6244 H   0  0  0  0  0  0  0  0  0  0  0  0
    0.9197   -7.3830   -0.8920 H   0  0  0  0  0  0  0  0  0  0  0  0
    0.2745   -7.4533    0.7688 H   0  0  0  0  0  0  0  0  0  0  0  0
    3.9822   -5.6313   -0.6433 H   0  0  0  0  0  0  0  0  0  0  0  0
    4.5291   -5.7111   -2.2861 H   0  0  0  0  0  0  0  0  0  0  0  0
    3.1793   -6.7209   -1.8121 H   0  0  0  0  0  0  0  0  0  0  0  0
    2.1928   -8.7103    1.5468 H   0  0  0  0  0  0  0  0  0  0  0  0
    3.0761   -8.4385    0.0430 H   0  0  0  0  0  0  0  0  0  0  0  0
    0.4957  -10.0818    0.2776 H   0  0  0  0  0  0  0  0  0  0  0  0
    1.4208   -9.8284   -1.2113 H   0  0  0  0  0  0  0  0  0  0  0  0
    3.3765  -11.0150   -0.2221 H   0  0  0  0  0  0  0  0  0  0  0  0
    2.4924  -11.2290    1.2988 H   0  0  0  0  0  0  0  0  0  0  0  0
    2.4517  -13.3091   -0.0237 H   0  0  0  0  0  0  0  0  0  0  0  0
    0.8079  -12.6605    0.1187 H   0  0  0  0  0  0  0  0  0  0  0  0
    1.7160  -12.4631   -1.3983 H   0  0  0  0  0  0  0  0  0  0  0  0
  1  2  1  0  0  0  0
  1  6  2  0  0  0  0
  1 10  1  0  0  0  0
  2  3  2  0  0  0  0
  3  4  1  0  0  0  0
  4  5  2  0  0  0  0
  5  6  1  0  0  0  0
  6  7  1  0  0  0  0
  7  8  2  0  0  0  0
  8  9  1  0  0  0  0
  9 10  2  0  0  0  0
  5 11  1  0  0  0  0
 11 12  1  0  0  0  0
 11 16  2  0  0  0  0
 12 13  2  0  0  0  0
 13 14  1  0  0  0  0
 14 15  2  0  0  0  0
 15 16  1  0  0  0  0
 14 17  1  0  0  0  0
  2 18  1  0  0  0  0
 18 19  1  0  0  0  0
 10 20  1  0  0  0  0
 19 21  1  0  0  0  0
 21 22  1  0  0  0  0
 22 23  1  0  0  0  0
 23 24  1  0  0  0  0
  3 25  1  0  0  0  0
  4 26  1  0  0  0  0
  7 27  1  0  0  0  0
  8 28  1  0  0  0  0
  9 29  1  0  0  0  0
 12 30  1  0  0  0  0
 13 31  1  0  0  0  0
 15 32  1  0  0  0  0
 16 33  1  0  0  0  0
 17 34  1  0  0  0  0
 17 35  1  0  0  0  0
 17 36  1  0  0  0  0
 19 37  1  0  0  0  0
 19 38  1  0  0  0  0
 20 39  1  0  0  0  0
 20 40  1  0  0  0  0
 20 41  1  0  0  0  0
 21 42  1  0  0  0  0
 21 43  1  0  0  0  0
 22 44  1  0  0  0  0
 22 45  1  0  0  0  0
 23 46  1  0  0  0  0
 23 47  1  0  0  0  0
 24 48  1  0  0  0  0
 24 49  1  0  0  0  0
 24 50  1  0  0  0  0
M  CHG  1  10   1
M  END
$$$$
> 839_AKC_j.bmcl.2014.03.065

  Mrv0541 02262420013D              59.31000

 38 40  0  0  0  0            999 V2000
    3.1305    4.6039   -1.4933 C   0  0  0  0  0  0  0  0  0  0  0  0
    3.7119    5.6161   -2.2928 C   0  0  0  0  0  0  0  0  0  0  0  0
    4.6441    5.2975   -3.2991 C   0  0  0  0  0  0  0  0  0  0  0  0
    5.0116    3.9539   -3.5165 C   0  0  0  0  0  0  0  0  0  0  0  0
    4.4185    2.9322   -2.7553 C   0  0  0  0  0  0  0  0  0  0  0  0
    3.4682    3.2491   -1.7658 C   0  0  0  0  0  0  0  0  0  0  0  0
    2.8656    2.2489   -1.0746 N   0  0  0  0  0  0  0  0  0  0  0  0
    1.9478    2.4549   -0.0924 C   0  0  0  0  0  0  0  0  0  0  0  0
    1.6364    3.7855    0.2592 C   0  0  0  0  0  0  0  0  0  0  0  0
    2.2200    4.8667   -0.4351 C   0  0  0  0  0  0  0  0  0  0  0  0
    5.3198    6.5420   -4.2278 Cl  0  0  0  0  0  0  0  0  0  0  0  0
    5.8915    3.6325   -4.4264 F   0  0  0  0  0  0  0  0  0  0  0  0
    1.8722    6.1301   -0.0255 N   0  0  0  0  0  0  0  0  0  0  0  0
    1.3740    8.8839    0.1729 O   0  0  0  0  0  0  0  0  0  0  0  0
    2.7391    8.4262    0.2522 C   0  0  2  0  0  0  0  0  0  0  0  0
    2.8091    6.9475    0.7113 C   0  0  2  0  0  0  0  0  0  0  0  0
    0.5272    6.6160   -0.2295 C   0  0  2  0  0  0  0  0  0  0  0  0
    0.5566    8.0857   -0.7076 C   0  0  2  0  0  0  0  0  0  0  0  0
    1.3281    1.3985    0.5627 C   0  0  0  0  0  0  0  0  0  0  0  0
    1.2970    0.1283    0.1239 C   0  0  0  0  0  0  0  0  0  0  0  0
    0.6171   -0.9181    0.8596 C   0  0  2  0  0  0  0  0  0  0  0  0
    1.2315   -1.0914    2.1312 O   0  0  0  0  0  0  0  0  0  0  0  0
    3.4586    6.5951   -2.1546 H   0  0  0  0  0  0  0  0  0  0  0  0
    4.6822    1.9582   -2.9260 H   0  0  0  0  0  0  0  0  0  0  0  0
    0.9815    3.9728    1.0265 H   0  0  0  0  0  0  0  0  0  0  0  0
    3.2681    9.0500    0.9751 H   0  0  0  0  0  0  0  0  0  0  0  0
    3.2300    8.5544   -0.7174 H   0  0  0  0  0  0  0  0  0  0  0  0
    3.8388    6.5940    0.6003 H   0  0  0  0  0  0  0  0  0  0  0  0
    2.5536    6.8931    1.7743 H   0  0  0  0  0  0  0  0  0  0  0  0
   -0.0168    6.5559    0.7180 H   0  0  0  0  0  0  0  0  0  0  0  0
   -0.0202    6.0207   -0.9680 H   0  0  0  0  0  0  0  0  0  0  0  0
    0.9311    8.1390   -1.7348 H   0  0  0  0  0  0  0  0  0  0  0  0
   -0.4569    8.4913   -0.6945 H   0  0  0  0  0  0  0  0  0  0  0  0
    0.8601    1.6005    1.4200 H   0  0  0  0  0  0  0  0  0  0  0  0
    1.7432   -0.1158   -0.7320 H   0  0  0  0  0  0  0  0  0  0  0  0
    0.6649   -1.8620    0.3133 H   0  0  0  0  0  0  0  0  0  0  0  0
   -0.4341   -0.6583    1.0051 H   0  0  0  0  0  0  0  0  0  0  0  0
    0.6997   -1.7812    2.5796 H   0  0  0  0  0  0  0  0  0  0  0  0
  1  2  1  0  0  0  0
  1  6  2  0  0  0  0
  1 10  1  0  0  0  0
  2  3  2  0  0  0  0
  3  4  1  0  0  0  0
  4  5  2  0  0  0  0
  5  6  1  0  0  0  0
  6  7  1  0  0  0  0
  7  8  2  0  0  0  0
  8  9  1  0  0  0  0
  9 10  2  0  0  0  0
  3 11  1  0  0  0  0
  4 12  1  0  0  0  0
 10 13  1  0  0  0  0
 16 13  1  0  0  0  0
 13 17  1  0  0  0  0
 14 15  1  0  0  0  0
 14 18  1  0  0  0  0
 15 16  1  0  0  0  0
 17 18  1  0  0  0  0
  8 19  1  0  0  0  0
 19 20  2  0  0  0  0
 20 21  1  0  0  0  0
 21 22  1  0  0  0  0
  2 23  1  0  0  0  0
  5 24  1  0  0  0  0
  9 25  1  0  0  0  0
 15 26  1  0  0  0  0
 15 27  1  0  0  0  0
 16 28  1  0  0  0  0
 16 29  1  0  0  0  0
 17 30  1  0  0  0  0
 17 31  1  0  0  0  0
 18 32  1  0  0  0  0
 18 33  1  0  0  0  0
 19 34  1  0  0  0  0
 20 35  1  0  0  0  0
 21 36  1  0  0  0  0
 21 37  1  0  0  0  0
 22 38  1  0  0  0  0
M  END
$$$$
> 840_AKC_acs.jmedchem.5b00515
N-(3-chloro-4-((3-fluorobenzyl)oxy)phenyl)-7-(4-((4-methyl-1,4-diazepan-1-yl)sulfonyl)phenyl)cinnolin-4-amine
  Mrv0541 02262420063D             163.54000

 75 80  0  0  0  0            999 V2000
    6.6362   -9.7357    0.3900 C   0  0  0  0  0  0  0  0  0  0  0  0
    6.2239  -11.0470    0.7201 C   0  0  0  0  0  0  0  0  0  0  0  0
    4.9584  -11.2126    1.3276 C   0  0  0  0  0  0  0  0  0  0  0  0
    4.1297  -10.1036    1.5851 C   0  0  0  0  0  0  0  0  0  0  0  0
    2.9075  -10.3115    2.1314 N   0  0  0  0  0  0  0  0  0  0  0  0
    2.0668   -9.3404    2.3448 N   0  0  0  0  0  0  0  0  0  0  0  0
    2.3569   -8.0525    2.0494 C   0  0  0  0  0  0  0  0  0  0  0  0
    3.6272   -7.7038    1.5240 C   0  0  0  0  0  0  0  0  0  0  0  0
    4.5334   -8.7779    1.2587 C   0  0  0  0  0  0  0  0  0  0  0  0
    5.8105   -8.6222    0.6578 C   0  0  0  0  0  0  0  0  0  0  0  0
    4.0042   -6.4082    1.2326 N   0  0  0  0  0  0  0  0  0  0  0  0
    7.0238  -12.1952    0.4381 C   0  0  0  0  0  0  0  0  0  0  0  0
    7.4759  -12.4758   -0.8747 C   0  0  0  0  0  0  0  0  0  0  0  0
    8.1419  -13.6834   -1.1655 C   0  0  0  0  0  0  0  0  0  0  0  0
    8.3823  -14.6266   -0.1468 C   0  0  0  0  0  0  0  0  0  0  0  0
    8.0003  -14.3241    1.1750 C   0  0  0  0  0  0  0  0  0  0  0  0
    7.3314  -13.1212    1.4632 C   0  0  0  0  0  0  0  0  0  0  0  0
    9.1663  -16.1725   -0.5311 S   0  0  1  0  0  0  0  0  0  0  0  0
    9.1242  -17.1747    0.7214 O   0  0  0  0  0  0  0  0  0  0  0  0
    8.4114  -16.8559   -1.7721 O   0  0  0  0  0  0  0  0  0  0  0  0
   11.5241  -17.1369   -1.4802 C   0  0  2  0  0  0  0  0  0  0  0  0
   10.8604  -15.8962   -0.9846 N   0  0  2  0  0  0  0  0  0  0  0  0
   11.6390  -15.0941    0.0032 C   0  0  2  0  0  0  0  0  0  0  0  0
   12.4841  -14.0425   -0.7547 C   0  0  2  0  0  0  0  0  0  0  0  0
   13.6763  -14.5993   -1.4716 N   0  0  1  0  0  0  0  0  0  0  0  0
   13.3724  -15.6169   -2.5316 C   0  0  1  0  0  0  0  0  0  0  0  0
   13.0081  -16.9910   -1.9122 C   0  0  2  0  0  0  0  0  0  0  0  0
   14.6008  -13.5257   -1.9455 C   0  0  0  0  0  0  0  0  0  0  0  0
    3.2634   -5.2555    1.1355 C   0  0  0  0  0  0  0  0  0  0  0  0
    2.2905   -4.8112    2.0636 C   0  0  0  0  0  0  0  0  0  0  0  0
    1.4820   -3.6874    1.7842 C   0  0  0  0  0  0  0  0  0  0  0  0
    1.6807   -2.9534    0.5924 C   0  0  0  0  0  0  0  0  0  0  0  0
    2.7348   -3.3127   -0.2693 C   0  0  0  0  0  0  0  0  0  0  0  0
    3.5204   -4.4462    0.0068 C   0  0  0  0  0  0  0  0  0  0  0  0
    0.8117   -1.9639    0.2130 O   0  0  0  0  0  0  0  0  0  0  0  0
    1.1618   -0.6196    0.5922 C   0  0  1  0  0  0  0  0  0  0  0  0
   -0.0227    0.2447    0.3437 C   0  0  0  0  0  0  0  0  0  0  0  0
    0.0482    1.3977   -0.4749 C   0  0  0  0  0  0  0  0  0  0  0  0
   -1.0973    2.1864   -0.7079 C   0  0  0  0  0  0  0  0  0  0  0  0
   -2.3283    1.8287   -0.1251 C   0  0  0  0  0  0  0  0  0  0  0  0
   -2.4114    0.6919    0.6980 C   0  0  0  0  0  0  0  0  0  0  0  0
   -1.2652   -0.0880    0.9357 C   0  0  0  0  0  0  0  0  0  0  0  0
   -1.0195    3.2472   -1.4646 F   0  0  0  0  0  0  0  0  0  0  0  0
    0.2670   -3.2531    2.8848 Cl  0  0  0  0  0  0  0  0  0  0  0  0
    7.5468   -9.5808   -0.0512 H   0  0  0  0  0  0  0  0  0  0  0  0
    4.6245  -12.1513    1.5692 H   0  0  0  0  0  0  0  0  0  0  0  0
    1.6257   -7.3694    2.2171 H   0  0  0  0  0  0  0  0  0  0  0  0
    6.1571   -7.6995    0.3892 H   0  0  0  0  0  0  0  0  0  0  0  0
    4.9244   -6.3044    0.9518 H   0  0  0  0  0  0  0  0  0  0  0  0
    7.2991  -11.8186   -1.6371 H   0  0  0  0  0  0  0  0  0  0  0  0
    8.4367  -13.8771   -2.1256 H   0  0  0  0  0  0  0  0  0  0  0  0
    8.1968  -14.9778    1.9352 H   0  0  0  0  0  0  0  0  0  0  0  0
    7.0596  -12.9337    2.4308 H   0  0  0  0  0  0  0  0  0  0  0  0
   10.9710  -17.4881   -2.3541 H   0  0  0  0  0  0  0  0  0  0  0  0
   11.4673  -17.9200   -0.7201 H   0  0  0  0  0  0  0  0  0  0  0  0
   12.2810  -15.7218    0.6271 H   0  0  0  0  0  0  0  0  0  0  0  0
   10.9785  -14.5505    0.6825 H   0  0  0  0  0  0  0  0  0  0  0  0
   12.8220  -13.3090   -0.0168 H   0  0  0  0  0  0  0  0  0  0  0  0
   11.8350  -13.5121   -1.4564 H   0  0  0  0  0  0  0  0  0  0  0  0
   12.5751  -15.2706   -3.1963 H   0  0  0  0  0  0  0  0  0  0  0  0
   14.2569  -15.7862   -3.1543 H   0  0  0  0  0  0  0  0  0  0  0  0
   13.2267  -17.7781   -2.6408 H   0  0  0  0  0  0  0  0  0  0  0  0
   13.6608  -17.1746   -1.0537 H   0  0  0  0  0  0  0  0  0  0  0  0
   14.8803  -12.8573   -1.1281 H   0  0  0  0  0  0  0  0  0  0  0  0
   15.5268  -13.9597   -2.3268 H   0  0  0  0  0  0  0  0  0  0  0  0
   14.1373  -12.9343   -2.7378 H   0  0  0  0  0  0  0  0  0  0  0  0
    2.1623   -5.3082    2.9471 H   0  0  0  0  0  0  0  0  0  0  0  0
    2.9201   -2.7600   -1.1088 H   0  0  0  0  0  0  0  0  0  0  0  0
    4.2731   -4.6903   -0.6407 H   0  0  0  0  0  0  0  0  0  0  0  0
    1.4157   -0.5561    1.6539 H   0  0  0  0  0  0  0  0  0  0  0  0
    2.0294   -0.2921    0.0129 H   0  0  0  0  0  0  0  0  0  0  0  0
    0.9359    1.6703   -0.9056 H   0  0  0  0  0  0  0  0  0  0  0  0
   -3.1645    2.3911   -0.2966 H   0  0  0  0  0  0  0  0  0  0  0  0
   -3.3045    0.4311    1.1232 H   0  0  0  0  0  0  0  0  0  0  0  0
   -1.3453   -0.9103    1.5391 H   0  0  0  0  0  0  0  0  0  0  0  0
  1  2  2  0  0  0  0
  2  3  1  0  0  0  0
  3  4  2  0  0  0  0
  4  5  1  0  0  0  0
  5  6  2  0  0  0  0
  6  7  1  0  0  0  0
  7  8  2  0  0  0  0
  8  9  1  0  0  0  0
  4  9  1  0  0  0  0
  9 10  2  0  0  0  0
  1 10  1  0  0  0  0
  8 11  1  0  0  0  0
 12 13  2  0  0  0  0
 13 14  1  0  0  0  0
 14 15  2  0  0  0  0
 15 16  1  0  0  0  0
 16 17  2  0  0  0  0
 12 17  1  0  0  0  0
 18 19  2  0  0  0  0
 18 20  2  0  0  0  0
 21 22  1  0  0  0  0
 22 23  1  0  0  0  0
 23 24  1  0  0  0  0
 24 25  1  0  0  0  0
 25 26  1  0  0  0  0
 26 27  1  0  0  0  0
 21 27  1  0  0  0  0
 25 28  1  0  0  0  0
 18 22  1  0  0  0  0
 15 18  1  0  0  0  0
  2 12  1  0  0  0  0
 29 30  2  0  0  0  0
 30 31  1  0  0  0  0
 31 32  2  0  0  0  0
 32 33  1  0  0  0  0
 33 34  2  0  0  0  0
 29 34  1  0  0  0  0
 36 37  1  0  0  0  0
 37 38  2  0  0  0  0
 38 39  1  0  0  0  0
 39 40  2  0  0  0  0
 40 41  1  0  0  0  0
 41 42  2  0  0  0  0
 37 42  1  0  0  0  0
 39 43  1  0  0  0  0
 35 36  1  0  0  0  0
 32 35  1  0  0  0  0
 31 44  1  0  0  0  0
 11 29  1  0  0  0  0
  1 45  1  0  0  0  0
  3 46  1  0  0  0  0
  7 47  1  0  0  0  0
 10 48  1  0  0  0  0
 11 49  1  0  0  0  0
 13 50  1  0  0  0  0
 14 51  1  0  0  0  0
 16 52  1  0  0  0  0
 17 53  1  0  0  0  0
 21 54  1  0  0  0  0
 21 55  1  0  0  0  0
 23 56  1  0  0  0  0
 23 57  1  0  0  0  0
 24 58  1  0  0  0  0
 24 59  1  0  0  0  0
 26 60  1  0  0  0  0
 26 61  1  0  0  0  0
 27 62  1  0  0  0  0
 27 63  1  0  0  0  0
 28 64  1  0  0  0  0
 28 65  1  0  0  0  0
 28 66  1  0  0  0  0
 30 67  1  0  0  0  0
 33 68  1  0  0  0  0
 34 69  1  0  0  0  0
 36 70  1  0  0  0  0
 36 71  1  0  0  0  0
 38 72  1  0  0  0  0
 40 73  1  0  0  0  0
 41 74  1  0  0  0  0
 42 75  1  0  0  0  0
M  END
>  <type>
systematic

$$$$
> 841_AKC_s41598-017-00848-8

  Mrv0541 02262420133D             203.33000

 87 89  0  0  0  0            999 V2000
    1.3100    0.6009    4.1103 C   0  0  0  0  0  0  0  0  0  0  0  0
    0.7352    0.8903    5.3631 C   0  0  0  0  0  0  0  0  0  0  0  0
    1.5519    0.9910    6.5050 C   0  0  0  0  0  0  0  0  0  0  0  0
    2.9422    0.8023    6.3996 C   0  0  0  0  0  0  0  0  0  0  0  0
    3.5235    0.5046    5.1528 C   0  0  0  0  0  0  0  0  0  0  0  0
    2.7140    0.4063    3.9990 C   0  0  0  0  0  0  0  0  0  0  0  0
    3.2505    0.1287    2.7236 C   0  0  0  0  0  0  0  0  0  0  0  0
    2.4062    0.0630    1.6010 C   0  0  0  0  0  0  0  0  0  0  0  0
    1.0194    0.2816    1.7557 C   0  0  0  0  0  0  0  0  0  0  0  0
    0.5296    0.5264    3.0001 N   0  0  0  0  0  0  0  0  0  0  0  0
    0.0958    0.2980    0.6043 C   0  0  1  0  0  0  0  0  0  0  0  0
   -0.7725   -0.8565    0.6262 O   0  0  0  0  0  0  0  0  0  0  0  0
   -1.6407   -0.9332   -0.5250 C   0  0  2  0  0  0  0  0  0  0  0  0
   -2.4636   -2.2432   -0.5562 C   0  0  2  0  0  0  0  0  0  0  0  0
   -3.1399   -2.3588   -1.8152 N   0  0  0  0  0  0  0  0  0  0  0  0
   -4.5117   -1.9408   -3.3813 N   0  0  0  0  0  0  0  0  0  0  0  0
   -4.1922   -1.6861   -2.1522 N   0  0  0  0  0  0  0  0  0  0  0  0
   -2.7703   -3.1036   -2.8681 C   0  0  0  0  0  0  0  0  0  0  0  0
   -3.6467   -2.8227   -3.9189 C   0  0  0  0  0  0  0  0  0  0  0  0
   -3.6370   -3.2902   -5.3569 C   0  0  2  0  0  0  0  0  0  0  0  0
   -5.1912   -4.0030   -5.7249 P   0  0  1  0  0  0  0  0  0  0  0  0
   -2.4291   -4.2871   -5.6285 C   0  0  1  0  0  0  0  0  0  0  0  0
   -6.2803   -3.2031   -5.1384 O   0  0  0  0  0  0  0  0  0  0  0  0
   -5.5357   -4.0132   -7.3033 O   0  0  0  0  0  0  0  0  0  0  0  0
   -5.3871   -5.5229   -5.2585 O   0  0  0  0  0  0  0  0  0  0  0  0
   -4.8219   -4.8014   -8.2795 C   0  0  1  0  0  0  0  0  0  0  0  0
   -4.8633   -6.3391   -8.0643 C   0  0  0  0  0  0  0  0  0  0  0  0
   -5.4666   -4.4277   -9.6351 C   0  0  0  0  0  0  0  0  0  0  0  0
   -5.5530   -5.9098   -3.8761 C   0  0  1  0  0  0  0  0  0  0  0  0
   -6.8385   -5.3807   -3.1803 C   0  0  0  0  0  0  0  0  0  0  0  0
   -5.5805   -7.4611   -3.9199 C   0  0  0  0  0  0  0  0  0  0  0  0
   -2.3516   -5.4562   -4.9159 C   0  0  0  0  0  0  0  0  0  0  0  0
   -2.2303   -6.4639   -4.2857 C   0  0  0  0  0  0  0  0  0  0  0  0
   -3.3748   -1.8709   -6.3568 P   0  0  2  0  0  0  0  0  0  0  0  0
   -2.4743   -2.1712   -7.4833 O   0  0  0  0  0  0  0  0  0  0  0  0
   -2.7645   -0.6181   -5.5547 O   0  0  0  0  0  0  0  0  0  0  0  0
   -4.7263   -1.3560   -7.0786 O   0  0  0  0  0  0  0  0  0  0  0  0
   -1.3992   -0.6237   -5.0657 C   0  0  1  0  0  0  0  0  0  0  0  0
   -0.3222   -0.4510   -6.1729 C   0  0  0  0  0  0  0  0  0  0  0  0
   -1.3218    0.5556   -4.0633 C   0  0  0  0  0  0  0  0  0  0  0  0
   -5.6105   -0.3803   -6.4801 C   0  0  1  0  0  0  0  0  0  0  0  0
   -5.1047    1.0721   -6.6994 C   0  0  0  0  0  0  0  0  0  0  0  0
   -6.9794   -0.5732   -7.1885 C   0  0  0  0  0  0  0  0  0  0  0  0
   -0.2742    1.0347    5.4472 H   0  0  0  0  0  0  0  0  0  0  0  0
    1.1336    1.2044    7.4123 H   0  0  0  0  0  0  0  0  0  0  0  0
    3.5321    0.8839    7.2303 H   0  0  0  0  0  0  0  0  0  0  0  0
    4.5359    0.3645    5.0932 H   0  0  0  0  0  0  0  0  0  0  0  0
    4.2565   -0.0184    2.5990 H   0  0  0  0  0  0  0  0  0  0  0  0
    2.8071   -0.1341    0.6807 H   0  0  0  0  0  0  0  0  0  0  0  0
   -0.4909    1.2186    0.6505 H   0  0  0  0  0  0  0  0  0  0  0  0
    0.6704    0.3184   -0.3260 H   0  0  0  0  0  0  0  0  0  0  0  0
   -1.0371   -0.9016   -1.4359 H   0  0  0  0  0  0  0  0  0  0  0  0
   -2.3239   -0.0781   -0.5288 H   0  0  0  0  0  0  0  0  0  0  0  0
   -3.1943   -2.2467    0.2550 H   0  0  0  0  0  0  0  0  0  0  0  0
   -1.7933   -3.0924   -0.4007 H   0  0  0  0  0  0  0  0  0  0  0  0
   -1.9544   -3.7196   -2.8917 H   0  0  0  0  0  0  0  0  0  0  0  0
   -2.3827   -4.5898   -6.6709 H   0  0  0  0  0  0  0  0  0  0  0  0
   -1.4837   -3.7769   -5.4261 H   0  0  0  0  0  0  0  0  0  0  0  0
   -3.7879   -4.4763   -8.3476 H   0  0  0  0  0  0  0  0  0  0  0  0
   -4.4972   -6.8657   -8.9473 H   0  0  0  0  0  0  0  0  0  0  0  0
   -5.8846   -6.6678   -7.8625 H   0  0  0  0  0  0  0  0  0  0  0  0
   -4.2249   -6.6238   -7.2274 H   0  0  0  0  0  0  0  0  0  0  0  0
   -4.9472   -4.9216  -10.4593 H   0  0  0  0  0  0  0  0  0  0  0  0
   -5.4013   -3.3483   -9.7895 H   0  0  0  0  0  0  0  0  0  0  0  0
   -6.5185   -4.7218   -9.6517 H   0  0  0  0  0  0  0  0  0  0  0  0
   -4.6869   -5.6033   -3.2824 H   0  0  0  0  0  0  0  0  0  0  0  0
   -6.7317   -4.3207   -2.9419 H   0  0  0  0  0  0  0  0  0  0  0  0
   -7.7036   -5.5155   -3.8333 H   0  0  0  0  0  0  0  0  0  0  0  0
   -7.0215   -5.9150   -2.2428 H   0  0  0  0  0  0  0  0  0  0  0  0
   -6.4654   -7.8172   -4.4568 H   0  0  0  0  0  0  0  0  0  0  0  0
   -4.6955   -7.8459   -4.4330 H   0  0  0  0  0  0  0  0  0  0  0  0
   -5.5969   -7.8725   -2.9091 H   0  0  0  0  0  0  0  0  0  0  0  0
   -2.1402   -7.2351   -3.7910 H   0  0  0  0  0  0  0  0  0  0  0  0
   -1.1802   -1.5383   -4.5083 H   0  0  0  0  0  0  0  0  0  0  0  0
    0.6481   -0.1991   -5.7352 H   0  0  0  0  0  0  0  0  0  0  0  0
   -0.6133    0.3429   -6.8654 H   0  0  0  0  0  0  0  0  0  0  0  0
   -0.1959   -1.3804   -6.7279 H   0  0  0  0  0  0  0  0  0  0  0  0
   -0.3509    0.5781   -3.5621 H   0  0  0  0  0  0  0  0  0  0  0  0
   -2.0985    0.4455   -3.3062 H   0  0  0  0  0  0  0  0  0  0  0  0
   -1.4745    1.5075   -4.5776 H   0  0  0  0  0  0  0  0  0  0  0  0
   -5.7545   -0.5606   -5.4110 H   0  0  0  0  0  0  0  0  0  0  0  0
   -4.2720    1.2967   -6.0342 H   0  0  0  0  0  0  0  0  0  0  0  0
   -4.7756    1.2017   -7.7339 H   0  0  0  0  0  0  0  0  0  0  0  0
   -5.8939    1.7992   -6.4915 H   0  0  0  0  0  0  0  0  0  0  0  0
   -6.8879   -0.3764   -8.2605 H   0  0  0  0  0  0  0  0  0  0  0  0
   -7.3316   -1.5977   -7.0599 H   0  0  0  0  0  0  0  0  0  0  0  0
   -7.7334    0.1002   -6.7743 H   0  0  0  0  0  0  0  0  0  0  0  0
  1  2  1  0  0  0  0
  2  3  2  0  0  0  0
  3  4  1  0  0  0  0
  4  5  2  0  0  0  0
  5  6  1  0  0  0  0
  7  8  2  0  0  0  0
  8  9  1  0  0  0  0
  9 10  2  0  0  0  0
  1  6  2  0  0  0  0
  1 10  1  0  0  0  0
  6  7  1  0  0  0  0
  9 11  1  0  0  0  0
 11 12  1  0  0  0  0
 12 13  1  0  0  0  0
 13 14  1  0  0  0  0
 14 15  1  0  0  0  0
 17 15  1  0  0  0  0
 15 18  1  0  0  0  0
 16 17  2  0  0  0  0
 18 19  2  0  0  0  0
 16 19  1  0  0  0  0
 19 20  1  0  0  0  0
 20 21  1  0  0  0  0
 20 22  1  0  0  0  0
 21 23  2  0  0  0  0
 21 24  1  0  0  0  0
 21 25  1  0  0  0  0
 24 26  1  0  0  0  0
 26 27  1  0  0  0  0
 26 28  1  0  0  0  0
 25 29  1  0  0  0  0
 29 30  1  0  0  0  0
 29 31  1  0  0  0  0
 22 32  1  0  0  0  0
 32 33  3  0  0  0  0
 20 34  1  0  0  0  0
 34 35  2  0  0  0  0
 34 36  1  0  0  0  0
 34 37  1  0  0  0  0
 36 38  1  0  0  0  0
 38 39  1  0  0  0  0
 38 40  1  0  0  0  0
 37 41  1  0  0  0  0
 41 42  1  0  0  0  0
 41 43  1  0  0  0  0
  2 44  1  0  0  0  0
  3 45  1  0  0  0  0
  4 46  1  0  0  0  0
  5 47  1  0  0  0  0
  7 48  1  0  0  0  0
  8 49  1  0  0  0  0
 11 50  1  0  0  0  0
 11 51  1  0  0  0  0
 13 52  1  0  0  0  0
 13 53  1  0  0  0  0
 14 54  1  0  0  0  0
 14 55  1  0  0  0  0
 18 56  1  0  0  0  0
 22 57  1  0  0  0  0
 22 58  1  0  0  0  0
 26 59  1  0  0  0  0
 27 60  1  0  0  0  0
 27 61  1  0  0  0  0
 27 62  1  0  0  0  0
 28 63  1  0  0  0  0
 28 64  1  0  0  0  0
 28 65  1  0  0  0  0
 29 66  1  0  0  0  0
 30 67  1  0  0  0  0
 30 68  1  0  0  0  0
 30 69  1  0  0  0  0
 31 70  1  0  0  0  0
 31 71  1  0  0  0  0
 31 72  1  0  0  0  0
 33 73  1  0  0  0  0
 38 74  1  0  0  0  0
 39 75  1  0  0  0  0
 39 76  1  0  0  0  0
 39 77  1  0  0  0  0
 40 78  1  0  0  0  0
 40 79  1  0  0  0  0
 40 80  1  0  0  0  0
 41 81  1  0  0  0  0
 42 82  1  0  0  0  0
 42 83  1  0  0  0  0
 42 84  1  0  0  0  0
 43 85  1  0  0  0  0
 43 86  1  0  0  0  0
 43 87  1  0  0  0  0
M  END
>  <type>
systematic

$$$$
> 842_AKC_bcpt.12990

  Mrv0541 02262420163D              27.42000

 18 19  0  0  0  0            999 V2000
   -0.9397   -0.6096    0.8947 C   0  0  0  0  0  0  0  0  0  0  0  0
    0.3970   -0.1643    0.9756 C   0  0  0  0  0  0  0  0  0  0  0  0
    0.8290    0.5462    2.1109 C   0  0  0  0  0  0  0  0  0  0  0  0
   -0.0672    0.8073    3.1601 C   0  0  0  0  0  0  0  0  0  0  0  0
   -1.4033    0.3673    3.0944 C   0  0  0  0  0  0  0  0  0  0  0  0
   -1.8551   -0.3491    1.9556 C   0  0  0  0  0  0  0  0  0  0  0  0
   -3.1801   -0.8279    1.8115 C   0  0  0  0  0  0  0  0  0  0  0  0
   -3.5675   -1.5315    0.6586 C   0  0  0  0  0  0  0  0  0  0  0  0
   -2.6226   -1.7572   -0.3546 C   0  0  0  0  0  0  0  0  0  0  0  0
   -1.3569   -1.2951   -0.2051 N   0  0  0  0  0  0  0  0  0  0  0  0
    1.2717   -0.4228   -0.0284 O   0  0  0  0  0  0  0  0  0  0  0  0
    2.7645    1.2184    2.2727 I   0  0  0  0  0  0  0  0  0  0  0  0
   -2.4001    0.7310    4.4194 Cl  0  0  0  0  0  0  0  0  0  0  0  0
    0.2655    1.3224    3.9777 H   0  0  0  0  0  0  0  0  0  0  0  0
   -3.8805   -0.6737    2.5395 H   0  0  0  0  0  0  0  0  0  0  0  0
   -4.5248   -1.8755    0.5598 H   0  0  0  0  0  0  0  0  0  0  0  0
   -2.8859   -2.2681   -1.1997 H   0  0  0  0  0  0  0  0  0  0  0  0
    1.2137    0.3530   -0.6246 H   0  0  0  0  0  0  0  0  0  0  0  0
  1  2  1  0  0  0  0
  2  3  2  0  0  0  0
  3  4  1  0  0  0  0
  4  5  2  0  0  0  0
  5  6  1  0  0  0  0
  7  8  2  0  0  0  0
  8  9  1  0  0  0  0
  9 10  2  0  0  0  0
  1  6  2  0  0  0  0
  1 10  1  0  0  0  0
  6  7  1  0  0  0  0
  2 11  1  0  0  0  0
  3 12  1  0  0  0  0
  5 13  1  0  0  0  0
  4 14  1  0  0  0  0
  7 15  1  0  0  0  0
  8 16  1  0  0  0  0
  9 17  1  0  0  0  0
 11 18  1  0  0  0  0
M  END
>  <type>
systematic

$$$$
> 843_AKC_j.biopha.2011.01.003

  Mrv0541 02262420203D              65.90000

 41 42  0  0  0  0            999 V2000
    2.5200   -4.9405    6.8613 C   0  0  0  0  0  0  0  0  0  0  0  0
    1.5802   -5.2859    7.8524 C   0  0  0  0  0  0  0  0  0  0  0  0
    0.2070   -5.0671    7.6294 C   0  0  0  0  0  0  0  0  0  0  0  0
   -0.2259   -4.5326    6.4009 C   0  0  0  0  0  0  0  0  0  0  0  0
    0.7096   -4.1938    5.4062 C   0  0  0  0  0  0  0  0  0  0  0  0
    2.0991   -4.3649    5.6283 C   0  0  0  0  0  0  0  0  0  0  0  0
    3.0945   -3.9611    4.6968 C   0  0  0  0  0  0  0  0  0  0  0  0
    4.4544   -4.2236    4.9835 C   0  0  0  0  0  0  0  0  0  0  0  0
    4.8038   -4.8291    6.2015 C   0  0  0  0  0  0  0  0  0  0  0  0
    3.8392   -5.1526    7.0959 N   0  0  0  0  0  0  0  0  0  0  0  0
   -0.9171   -5.4398    8.8415 Cl  0  0  0  0  0  0  0  0  0  0  0  0
    2.7169   -3.3037    3.5601 N   0  0  0  0  0  0  0  0  0  0  0  0
    3.3552   -2.1426    3.0285 C   0  0  1  0  0  0  0  0  0  0  0  0
    2.6070   -1.6388    1.7596 C   0  0  2  0  0  0  0  0  0  0  0  0
    3.0107   -0.2829    1.1771 N   0  3  1  0  0  0  0  0  0  0  0  0
    2.5866    0.8338    2.1176 C   0  0  0  0  0  0  0  0  0  0  0  0
    4.5226   -0.1599    0.9984 C   0  0  1  0  0  0  0  0  0  0  0  0
    2.3279   -0.0840   -0.1800 C   0  0  2  0  0  0  0  0  0  0  0  0
    5.1221   -1.1089    0.2049 C   0  0  0  0  0  0  0  0  0  0  0  0
    5.6353   -1.9385   -0.4834 C   0  0  0  0  0  0  0  0  0  0  0  0
    0.9522   -0.0008   -0.1900 C   0  0  0  0  0  0  0  0  0  0  0  0
   -0.2386    0.0945   -0.1916 C   0  0  0  0  0  0  0  0  0  0  0  0
    1.8944   -5.6960    8.7367 H   0  0  0  0  0  0  0  0  0  0  0  0
   -1.2228   -4.3868    6.2238 H   0  0  0  0  0  0  0  0  0  0  0  0
    0.3598   -3.8176    4.5211 H   0  0  0  0  0  0  0  0  0  0  0  0
    5.1894   -3.9897    4.3137 H   0  0  0  0  0  0  0  0  0  0  0  0
    5.7808   -5.0263    6.4241 H   0  0  0  0  0  0  0  0  0  0  0  0
    1.8908   -3.5844    3.1371 H   0  0  0  0  0  0  0  0  0  0  0  0
    3.3523   -1.3717    3.8003 H   0  0  0  0  0  0  0  0  0  0  0  0
    4.3883   -2.3809    2.7710 H   0  0  0  0  0  0  0  0  0  0  0  0
    1.5364   -1.6271    1.9926 H   0  0  0  0  0  0  0  0  0  0  0  0
    2.7402   -2.4222    1.0040 H   0  0  0  0  0  0  0  0  0  0  0  0
    2.7643    1.8165    1.6735 H   0  0  0  0  0  0  0  0  0  0  0  0
    3.1277    0.8097    3.0653 H   0  0  0  0  0  0  0  0  0  0  0  0
    1.5240    0.7842    2.3645 H   0  0  0  0  0  0  0  0  0  0  0  0
    4.7800    0.8128    0.5699 H   0  0  0  0  0  0  0  0  0  0  0  0
    5.0365   -0.1982    1.9627 H   0  0  0  0  0  0  0  0  0  0  0  0
    2.5852   -0.9001   -0.8618 H   0  0  0  0  0  0  0  0  0  0  0  0
    2.6831    0.8360   -0.6544 H   0  0  0  0  0  0  0  0  0  0  0  0
    6.0303   -2.5776   -1.0153 H   0  0  0  0  0  0  0  0  0  0  0  0
   -1.1567    0.1755   -0.1889 H   0  0  0  0  0  0  0  0  0  0  0  0
  1  2  1  0  0  0  0
  2  3  2  0  0  0  0
  3  4  1  0  0  0  0
  4  5  2  0  0  0  0
  5  6  1  0  0  0  0
  7  8  2  0  0  0  0
  8  9  1  0  0  0  0
  9 10  2  0  0  0  0
  1  6  2  0  0  0  0
  1 10  1  0  0  0  0
  6  7  1  0  0  0  0
  3 11  1  0  0  0  0
  7 12  1  0  0  0  0
 12 13  1  0  0  0  0
 13 14  1  0  0  0  0
 14 15  1  0  0  0  0
 15 16  1  0  0  0  0
 15 17  1  0  0  0  0
 15 18  1  0  0  0  0
 17 19  1  0  0  0  0
 19 20  3  0  0  0  0
 18 21  1  0  0  0  0
 21 22  3  0  0  0  0
  2 23  1  0  0  0  0
  4 24  1  0  0  0  0
  5 25  1  0  0  0  0
  8 26  1  0  0  0  0
  9 27  1  0  0  0  0
 12 28  1  0  0  0  0
 13 29  1  0  0  0  0
 13 30  1  0  0  0  0
 14 31  1  0  0  0  0
 14 32  1  0  0  0  0
 16 33  1  0  0  0  0
 16 34  1  0  0  0  0
 16 35  1  0  0  0  0
 17 36  1  0  0  0  0
 17 37  1  0  0  0  0
 18 38  1  0  0  0  0
 18 39  1  0  0  0  0
 20 40  1  0  0  0  0
 22 41  1  0  0  0  0
M  CHG  1  15   1
M  END
>  <type>
systematic

$$$$
> 844_AKC_j.bmcl.2019.126725

  Mrv0541 02272408273D              75.22000

 33 35  0  0  0  0            999 V2000
   -0.5400   -3.6405   -1.3141 C   0  0  0  0  0  0  0  0  0  0  0  0
    0.1761   -2.5604   -0.7553 C   0  0  0  0  0  0  0  0  0  0  0  0
   -0.5093   -1.4203   -0.2673 C   0  0  0  0  0  0  0  0  0  0  0  0
   -1.9106   -1.4300   -0.3404 C   0  0  0  0  0  0  0  0  0  0  0  0
   -2.6527   -2.4881   -0.8882 C   0  0  0  0  0  0  0  0  0  0  0  0
   -1.9492   -3.6053   -1.3791 C   0  0  0  0  0  0  0  0  0  0  0  0
    0.0464   -0.2717    0.2985 N   0  0  0  0  0  0  0  0  0  0  0  0
   -0.8336    0.5424    0.9573 C   0  0  0  0  0  0  0  0  0  0  0  0
   -2.4280    0.0654    0.4167 S   0  0  0  0  0  0  0  0  0  0  0  0
   -0.5194    1.5013    1.8565 C   0  0  0  0  0  0  0  0  0  0  0  0
   -1.3368    2.4016    2.5529 C   0  0  0  0  0  0  0  0  0  0  0  0
    1.4434    0.0523    0.1172 C   0  0  0  0  0  0  0  0  0  0  0  0
   -0.7951    3.6623    2.9105 C   0  0  0  0  0  0  0  0  0  0  0  0
   -1.5647    4.6024    3.6195 C   0  0  0  0  0  0  0  0  0  0  0  0
   -2.8583    4.3281    3.9689 N   0  3  0  0  0  0  0  0  0  0  0  0
   -3.4027    3.1127    3.6577 C   0  0  0  0  0  0  0  0  0  0  0  0
   -2.6607    2.1340    2.9724 C   0  0  0  0  0  0  0  0  0  0  0  0
   -3.6677    5.2941    4.6672 C   0  0  0  0  0  0  0  0  0  0  0  0
   -0.0332   -4.4552   -1.6688 H   0  0  0  0  0  0  0  0  0  0  0  0
    1.1949   -2.6212   -0.7026 H   0  0  0  0  0  0  0  0  0  0  0  0
   -3.6725   -2.4529   -0.9197 H   0  0  0  0  0  0  0  0  0  0  0  0
   -2.4610   -4.3957   -1.7788 H   0  0  0  0  0  0  0  0  0  0  0  0
    0.4485    1.5939    2.0497 H   0  0  0  0  0  0  0  0  0  0  0  0
    2.0236   -0.3725    0.9365 H   0  0  0  0  0  0  0  0  0  0  0  0
    1.6096    1.1310    0.0885 H   0  0  0  0  0  0  0  0  0  0  0  0
    1.8311   -0.3330   -0.8280 H   0  0  0  0  0  0  0  0  0  0  0  0
    0.1659    3.9125    2.6592 H   0  0  0  0  0  0  0  0  0  0  0  0
   -1.1301    5.4963    3.8669 H   0  0  0  0  0  0  0  0  0  0  0  0
   -4.3668    2.8937    3.9240 H   0  0  0  0  0  0  0  0  0  0  0  0
   -3.0996    1.2305    2.8106 H   0  0  0  0  0  0  0  0  0  0  0  0
   -4.5868    5.4809    4.1059 H   0  0  0  0  0  0  0  0  0  0  0  0
   -3.9347    4.9083    5.6541 H   0  0  0  0  0  0  0  0  0  0  0  0
   -3.1647    6.2549    4.8068 H   0  0  0  0  0  0  0  0  0  0  0  0
  1  2  2  0  0  0  0
  2  3  1  0  0  0  0
  4  5  1  0  0  0  0
  5  6  2  0  0  0  0
  1  6  1  0  0  0  0
  3  7  1  0  0  0  0
  3  4  2  0  0  0  0
  4  9  1  0  0  0  0
  7  8  1  0  0  0  0
  8  9  1  0  0  0  0
  8 10  2  0  0  0  0
 10 11  1  0  0  0  0
  7 12  1  0  0  0  0
 11 13  1  0  0  0  0
 11 17  2  0  0  0  0
 13 14  2  0  0  0  0
 14 15  1  0  0  0  0
 15 16  2  0  0  0  0
 16 17  1  0  0  0  0
 15 18  1  0  0  0  0
  1 19  1  0  0  0  0
  2 20  1  0  0  0  0
  5 21  1  0  0  0  0
  6 22  1  0  0  0  0
 10 23  1  0  0  0  0
 12 24  1  0  0  0  0
 12 25  1  0  0  0  0
 12 26  1  0  0  0  0
 13 27  1  0  0  0  0
 14 28  1  0  0  0  0
 16 29  1  0  0  0  0
 17 30  1  0  0  0  0
 18 31  1  0  0  0  0
 18 32  1  0  0  0  0
 18 33  1  0  0  0  0
M  CHG  1  15   1
M  END
>  <type>
systematic

$$$$
> 845_AKC_acsmedchemlett.9b00453

  Mrv0541 02272408313D             128.80000

 55 59  0  0  0  0            999 V2000
    0.8399   -5.7479   -6.1477 C   0  0  0  0  0  0  0  0  0  0  0  0
   -0.2671   -5.8881   -5.2713 C   0  0  0  0  0  0  0  0  0  0  0  0
   -0.4147   -5.0597   -4.1421 C   0  0  0  0  0  0  0  0  0  0  0  0
    0.5519   -4.0788   -3.8365 C   0  0  0  0  0  0  0  0  0  0  0  0
    1.6480   -3.9124   -4.7123 C   0  0  0  0  0  0  0  0  0  0  0  0
    1.7737   -4.7088   -5.8680 C   0  0  0  0  0  0  0  0  0  0  0  0
    2.8007   -4.4690   -6.7218 N   0  0  0  0  0  0  0  0  0  0  0  0
    2.9895   -5.1837   -7.8526 C   0  0  0  0  0  0  0  0  0  0  0  0
    2.1310   -6.2510   -8.1552 C   0  0  0  0  0  0  0  0  0  0  0  0
    1.0723   -6.5905   -7.2756 C   0  0  0  0  0  0  0  0  0  0  0  0
    0.2786   -7.7021   -7.4428 N   0  0  0  0  0  0  0  0  0  0  0  0
    0.5661   -8.9016   -8.0334 C   0  0  0  0  0  0  0  0  0  0  0  0
    0.0313  -11.2205   -8.2979 N   0  0  0  0  0  0  0  0  0  0  0  0
   -0.2576  -10.0128   -7.7455 C   0  0  0  0  0  0  0  0  0  0  0  0
    1.6175   -9.1094   -8.8733 N   0  0  0  0  0  0  0  0  0  0  0  0
    1.9060  -10.3072   -9.4390 C   0  0  0  0  0  0  0  0  0  0  0  0
    1.0878  -11.4066   -9.1296 C   0  0  0  0  0  0  0  0  0  0  0  0
    0.4252   -3.2542   -2.6900 C   0  0  0  0  0  0  0  0  0  0  0  0
   -0.6836   -2.4010   -2.5086 C   0  0  0  0  0  0  0  0  0  0  0  0
   -0.7297   -1.5638   -1.4426 N   0  0  0  0  0  0  0  0  0  0  0  0
    0.2587   -1.4960   -0.5056 C   0  0  0  0  0  0  0  0  0  0  0  0
    1.3150   -2.3425   -0.6554 N   0  0  0  0  0  0  0  0  0  0  0  0
    1.4240   -3.2086   -1.6941 C   0  0  0  0  0  0  0  0  0  0  0  0
    0.2171   -0.5573    0.5106 N   0  0  0  0  0  0  0  0  0  0  0  0
   -0.9955    0.1449    0.8712 C   0  0  1  0  0  0  0  0  0  0  0  0
   -0.8391    1.6187    0.4207 C   0  0  2  0  0  0  0  0  0  0  0  0
    0.4117    2.2312    0.9605 N   0  0  1  0  0  0  0  0  0  0  0  0
    1.6295    1.3961    0.7263 C   0  0  1  0  0  0  0  0  0  0  0  0
    1.4130   -0.0756    1.1685 C   0  0  1  0  0  0  0  0  0  0  0  0
    0.6075    3.8652    0.3026 S   0  0  1  0  0  0  0  0  0  0  0  0
    0.8150    3.7719   -1.2847 O   0  0  0  0  0  0  0  0  0  0  0  0
   -0.7106    4.7247    0.6118 O   0  0  0  0  0  0  0  0  0  0  0  0
    2.0492    4.6932    1.0561 C   0  0  0  0  0  0  0  0  0  0  0  0
   -0.9912   -6.5884   -5.4453 H   0  0  0  0  0  0  0  0  0  0  0  0
   -1.2295   -5.1852   -3.5353 H   0  0  0  0  0  0  0  0  0  0  0  0
    2.3562   -3.1965   -4.5164 H   0  0  0  0  0  0  0  0  0  0  0  0
    3.7615   -4.9419   -8.4742 H   0  0  0  0  0  0  0  0  0  0  0  0
    2.2925   -6.7579   -9.0228 H   0  0  0  0  0  0  0  0  0  0  0  0
   -0.5818   -7.6689   -7.0001 H   0  0  0  0  0  0  0  0  0  0  0  0
   -1.0627   -9.9292   -7.1195 H   0  0  0  0  0  0  0  0  0  0  0  0
    2.7023  -10.4003  -10.0718 H   0  0  0  0  0  0  0  0  0  0  0  0
    1.2792  -12.3311   -9.5188 H   0  0  0  0  0  0  0  0  0  0  0  0
   -1.4525   -2.3795   -3.1829 H   0  0  0  0  0  0  0  0  0  0  0  0
    2.2410   -3.8214   -1.7425 H   0  0  0  0  0  0  0  0  0  0  0  0
   -1.8899   -0.2795    0.4111 H   0  0  0  0  0  0  0  0  0  0  0  0
   -1.1550    0.1043    1.9534 H   0  0  0  0  0  0  0  0  0  0  0  0
   -1.7013    2.1850    0.7785 H   0  0  0  0  0  0  0  0  0  0  0  0
   -0.8405    1.6507   -0.6748 H   0  0  0  0  0  0  0  0  0  0  0  0
    1.8988    1.4087   -0.3350 H   0  0  0  0  0  0  0  0  0  0  0  0
    2.4656    1.8074    1.2937 H   0  0  0  0  0  0  0  0  0  0  0  0
    1.2920   -0.1197    2.2544 H   0  0  0  0  0  0  0  0  0  0  0  0
    2.3065   -0.6547    0.9274 H   0  0  0  0  0  0  0  0  0  0  0  0
    2.9704    4.2094    0.7291 H   0  0  0  0  0  0  0  0  0  0  0  0
    2.0671    5.7408    0.7530 H   0  0  0  0  0  0  0  0  0  0  0  0
    1.9721    4.6294    2.1411 H   0  0  0  0  0  0  0  0  0  0  0  0
  1  2  1  0  0  0  0
  2  3  2  0  0  0  0
  3  4  1  0  0  0  0
  4  5  2  0  0  0  0
  5  6  1  0  0  0  0
  7  8  2  0  0  0  0
  8  9  1  0  0  0  0
  9 10  2  0  0  0  0
  1  6  2  0  0  0  0
  1 10  1  0  0  0  0
  6  7  1  0  0  0  0
 10 11  1  0  0  0  0
 11 12  1  0  0  0  0
 14 12  2  0  0  0  0
 12 15  1  0  0  0  0
 13 14  1  0  0  0  0
 15 16  2  0  0  0  0
 16 17  1  0  0  0  0
 13 17  2  0  0  0  0
  4 18  1  0  0  0  0
 23 18  1  0  0  0  0
 19 18  2  0  0  0  0
 19 20  1  0  0  0  0
 20 21  2  0  0  0  0
 21 22  1  0  0  0  0
 22 23  2  0  0  0  0
 21 24  1  0  0  0  0
 29 24  1  0  0  0  0
 25 24  1  0  0  0  0
 25 26  1  0  0  0  0
 26 27  1  0  0  0  0
 27 28  1  0  0  0  0
 28 29  1  0  0  0  0
 27 30  1  0  0  0  0
 30 31  2  0  0  0  0
 30 32  2  0  0  0  0
 30 33  1  0  0  0  0
  2 34  1  0  0  0  0
  3 35  1  0  0  0  0
  5 36  1  0  0  0  0
  8 37  1  0  0  0  0
  9 38  1  0  0  0  0
 11 39  1  0  0  0  0
 14 40  1  0  0  0  0
 16 41  1  0  0  0  0
 17 42  1  0  0  0  0
 19 43  1  0  0  0  0
 23 44  1  0  0  0  0
 25 45  1  0  0  0  0
 25 46  1  0  0  0  0
 26 47  1  0  0  0  0
 26 48  1  0  0  0  0
 28 49  1  0  0  0  0
 28 50  1  0  0  0  0
 29 51  1  0  0  0  0
 29 52  1  0  0  0  0
 33 53  1  0  0  0  0
 33 54  1  0  0  0  0
 33 55  1  0  0  0  0
M  END
>  <type>
systematic

$$$$
> 846_AKC_jhet.4414
Methyl 4-(7-fluoro-8-methyl-3-([4-phenyl-1H-1,2,3-triazol-1-yl]methyl)quinolin-2-yl)piperazine-1-carboxylate
  Mrv0541 02272408413D             118.98000

 59 63  0  0  0  0            999 V2000
   -2.2136   -0.7435    0.5383 C   0  0  2  0  0  0  0  0  0  0  0  0
   -2.7977   -1.9368    1.3412 C   0  0  2  0  0  0  0  0  0  0  0  0
   -3.8052   -1.5029    2.2973 N   0  0  0  0  0  0  0  0  0  0  0  0
   -3.2686   -0.4778    3.2058 C   0  0  1  0  0  0  0  0  0  0  0  0
   -2.5513    0.6961    2.4848 C   0  0  2  0  0  0  0  0  0  0  0  0
   -1.6515    0.2255    1.4511 N   0  0  0  0  0  0  0  0  0  0  0  0
   -0.3457    0.6660    1.3418 C   0  0  0  0  0  0  0  0  0  0  0  0
    0.1248    1.4993    2.1537 O   0  0  0  0  0  0  0  0  0  0  0  0
    0.4713    0.2186    0.3368 O   0  0  0  0  0  0  0  0  0  0  0  0
   -8.6240   -2.0045    5.8769 C   0  0  0  0  0  0  0  0  0  0  0  0
   -7.3579   -1.5591    5.4138 C   0  0  0  0  0  0  0  0  0  0  0  0
   -6.8929   -2.0485    4.1636 C   0  0  0  0  0  0  0  0  0  0  0  0
   -7.6783   -2.9210    3.3824 C   0  0  0  0  0  0  0  0  0  0  0  0
   -8.9311   -3.3516    3.8675 C   0  0  0  0  0  0  0  0  0  0  0  0
   -9.3992   -2.8973    5.1107 C   0  0  0  0  0  0  0  0  0  0  0  0
   -7.1798   -3.3223    2.1315 C   0  0  0  0  0  0  0  0  0  0  0  0
   -5.9253   -2.8751    1.6240 C   0  0  0  0  0  0  0  0  0  0  0  0
   -5.1097   -2.0376    2.4699 C   0  0  0  0  0  0  0  0  0  0  0  0
   -5.6819   -1.7020    3.6666 N   0  0  0  0  0  0  0  0  0  0  0  0
   -5.6388   -3.3061    0.2141 C   0  0  2  0  0  0  0  0  0  0  0  0
   -5.7034   -2.2141   -0.7092 N   0  0  0  0  0  0  0  0  0  0  0  0
   -6.7632   -1.4786   -0.8722 N   0  0  0  0  0  0  0  0  0  0  0  0
   -6.5883   -0.5998   -1.8085 N   0  0  0  0  0  0  0  0  0  0  0  0
   -5.3518   -0.7625   -2.2965 C   0  0  0  0  0  0  0  0  0  0  0  0
   -4.7735   -1.8027   -1.5860 C   0  0  0  0  0  0  0  0  0  0  0  0
   -4.7765    0.0078   -3.3197 C   0  0  0  0  0  0  0  0  0  0  0  0
   -3.9733    1.1194   -2.9846 C   0  0  0  0  0  0  0  0  0  0  0  0
   -3.4315    1.9309   -3.9977 C   0  0  0  0  0  0  0  0  0  0  0  0
   -3.6826    1.6344   -5.3496 C   0  0  0  0  0  0  0  0  0  0  0  0
   -4.4657    0.5167   -5.6919 C   0  0  0  0  0  0  0  0  0  0  0  0
   -5.0125   -0.2963   -4.6801 C   0  0  0  0  0  0  0  0  0  0  0  0
   -6.5367   -0.6194    6.2248 C   0  0  0  0  0  0  0  0  0  0  0  0
   -9.1092   -1.6184    7.0290 F   0  0  0  0  0  0  0  0  0  0  0  0
    1.8188    0.6227    0.0805 C   0  0  0  0  0  0  0  0  0  0  0  0
   -3.0106   -0.2600   -0.0342 H   0  0  0  0  0  0  0  0  0  0  0  0
   -1.4898   -1.1304   -0.1863 H   0  0  0  0  0  0  0  0  0  0  0  0
   -1.9797   -2.4159    1.8844 H   0  0  0  0  0  0  0  0  0  0  0  0
   -3.1244   -2.6682    0.6327 H   0  0  0  0  0  0  0  0  0  0  0  0
   -4.0227   -0.0109    3.8437 H   0  0  0  0  0  0  0  0  0  0  0  0
   -2.5517   -0.9603    3.8759 H   0  0  0  0  0  0  0  0  0  0  0  0
   -2.0467    1.2916    3.2513 H   0  0  0  0  0  0  0  0  0  0  0  0
   -3.3032    1.3398    2.0208 H   0  0  0  0  0  0  0  0  0  0  0  0
   -9.5096   -3.9958    3.3235 H   0  0  0  0  0  0  0  0  0  0  0  0
  -10.3100   -3.2203    5.4541 H   0  0  0  0  0  0  0  0  0  0  0  0
   -7.7700   -3.9473    1.5754 H   0  0  0  0  0  0  0  0  0  0  0  0
   -6.3876   -4.0122   -0.1548 H   0  0  0  0  0  0  0  0  0  0  0  0
   -4.7270   -3.8925    0.1551 H   0  0  0  0  0  0  0  0  0  0  0  0
   -3.8309   -2.1762   -1.7154 H   0  0  0  0  0  0  0  0  0  0  0  0
   -3.7849    1.3508   -2.0054 H   0  0  0  0  0  0  0  0  0  0  0  0
   -2.8570    2.7376   -3.7496 H   0  0  0  0  0  0  0  0  0  0  0  0
   -3.2951    2.2304   -6.0827 H   0  0  0  0  0  0  0  0  0  0  0  0
   -4.6402    0.2955   -6.6753 H   0  0  0  0  0  0  0  0  0  0  0  0
   -5.5820   -1.1063   -4.9424 H   0  0  0  0  0  0  0  0  0  0  0  0
   -5.9634    0.0548    5.5890 H   0  0  0  0  0  0  0  0  0  0  0  0
   -7.1525    0.0052    6.8726 H   0  0  0  0  0  0  0  0  0  0  0  0
   -5.8459   -1.1908    6.8440 H   0  0  0  0  0  0  0  0  0  0  0  0
    2.4517    0.4041    0.9421 H   0  0  0  0  0  0  0  0  0  0  0  0
    2.1938    0.0728   -0.7825 H   0  0  0  0  0  0  0  0  0  0  0  0
    1.8530    1.6922   -0.1363 H   0  0  0  0  0  0  0  0  0  0  0  0
  1  2  1  0  0  0  0
  2  3  1  0  0  0  0
  3  4  1  0  0  0  0
  4  5  1  0  0  0  0
  5  6  1  0  0  0  0
  1  6  1  0  0  0  0
  7  8  2  0  0  0  0
  7  9  1  0  0  0  0
  6  7  1  0  0  0  0
 10 11  1  0  0  0  0
 11 12  2  0  0  0  0
 12 13  1  0  0  0  0
 13 14  2  0  0  0  0
 14 15  1  0  0  0  0
 10 15  2  0  0  0  0
 13 16  1  0  0  0  0
 16 17  2  0  0  0  0
 17 18  1  0  0  0  0
 18 19  2  0  0  0  0
 12 19  1  0  0  0  0
 21 22  1  0  0  0  0
 22 23  2  0  0  0  0
 23 24  1  0  0  0  0
 24 25  2  0  0  0  0
 21 25  1  0  0  0  0
 26 27  2  0  0  0  0
 27 28  1  0  0  0  0
 28 29  2  0  0  0  0
 29 30  1  0  0  0  0
 30 31  2  0  0  0  0
 26 31  1  0  0  0  0
 24 26  1  0  0  0  0
 20 21  1  0  0  0  0
 17 20  1  0  0  0  0
 11 32  1  0  0  0  0
 10 33  1  0  0  0  0
  3 18  1  0  0  0  0
  9 34  1  0  0  0  0
  1 35  1  0  0  0  0
  1 36  1  0  0  0  0
  2 37  1  0  0  0  0
  2 38  1  0  0  0  0
  4 39  1  0  0  0  0
  4 40  1  0  0  0  0
  5 41  1  0  0  0  0
  5 42  1  0  0  0  0
 14 43  1  0  0  0  0
 15 44  1  0  0  0  0
 16 45  1  0  0  0  0
 20 46  1  0  0  0  0
 20 47  1  0  0  0  0
 25 48  1  0  0  0  0
 27 49  1  0  0  0  0
 28 50  1  0  0  0  0
 29 51  1  0  0  0  0
 30 52  1  0  0  0  0
 31 53  1  0  0  0  0
 32 54  1  0  0  0  0
 32 55  1  0  0  0  0
 32 56  1  0  0  0  0
 34 57  1  0  0  0  0
 34 58  1  0  0  0  0
 34 59  1  0  0  0  0
M  END
>  <type>
systematic

$$$$
> 847_AKC_pathogens13030213

  Mrv0541 03042415423D              65.42000

 38 42  0  0  0  0            999 V2000
   -2.1705    0.6200    2.9734 C   0  0  2  0  0  0  0  0  0  0  0  0
   -3.1417    1.2314    2.1201 C   0  0  0  0  0  0  0  0  0  0  0  0
   -2.8203    2.2769    1.3386 C   0  0  0  0  0  0  0  0  0  0  0  0
   -1.4467    2.7801    1.2265 C   0  0  1  0  0  0  0  0  0  0  0  0
   -0.3501    2.0340    2.0821 C   0  0  2  0  0  0  0  0  0  0  0  0
   -0.7504    0.5435    2.3543 C   0  0  1  0  0  0  0  0  0  0  0  0
   -4.4218    0.5732    2.2323 C   0  0  2  0  0  0  0  0  0  0  0  0
   -4.1457   -0.5689    3.2450 C   0  0  2  0  0  0  0  0  0  0  0  0
   -2.6774   -0.7361    3.1782 N   0  0  2  0  0  0  0  0  0  0  0  0
   -1.9390   -1.4270    4.2729 C   0  0  2  0  0  0  0  0  0  0  0  0
   -0.4524   -1.2720    4.1329 C   0  0  0  0  0  0  0  0  0  0  0  0
    0.1251   -0.3354    3.2069 C   0  0  0  0  0  0  0  0  0  0  0  0
   -1.0962    2.7019   -0.1543 O   0  0  0  0  0  0  0  0  0  0  0  0
   -0.1311    2.7194    3.3181 O   0  0  0  0  0  0  0  0  0  0  0  0
    0.3924   -2.0721    4.9433 C   0  0  0  0  0  0  0  0  0  0  0  0
    1.5347   -0.3039    3.0567 C   0  0  0  0  0  0  0  0  0  0  0  0
    2.3430   -1.1196    3.8664 C   0  0  0  0  0  0  0  0  0  0  0  0
    1.7836   -1.9718    4.8017 C   0  0  0  0  0  0  0  0  0  0  0  0
    3.6885   -1.2068    3.8614 O   0  0  0  0  0  0  0  0  0  0  0  0
    3.9335   -2.0165    5.0283 C   0  0  2  0  0  0  0  0  0  0  0  0
    2.7242   -2.6499    5.4885 O   0  0  0  0  0  0  0  0  0  0  0  0
   -2.1570    1.1807    3.9211 H   0  0  0  0  0  0  0  0  0  0  0  0
   -3.5304    2.7018    0.7877 H   0  0  0  0  0  0  0  0  0  0  0  0
   -1.4512    3.8398    1.4928 H   0  0  0  0  0  0  0  0  0  0  0  0
    0.5970    2.0653    1.5395 H   0  0  0  0  0  0  0  0  0  0  0  0
   -0.8068    0.0427    1.3817 H   0  0  0  0  0  0  0  0  0  0  0  0
   -4.7143    0.1597    1.2627 H   0  0  0  0  0  0  0  0  0  0  0  0
   -5.1959    1.2540    2.5971 H   0  0  0  0  0  0  0  0  0  0  0  0
   -4.6505   -1.4926    2.9520 H   0  0  0  0  0  0  0  0  0  0  0  0
   -4.4700   -0.2759    4.2502 H   0  0  0  0  0  0  0  0  0  0  0  0
   -2.2058   -2.4853    4.2277 H   0  0  0  0  0  0  0  0  0  0  0  0
   -2.2418   -1.0402    5.2514 H   0  0  0  0  0  0  0  0  0  0  0  0
   -1.0964    1.7440   -0.3646 H   0  0  0  0  0  0  0  0  0  0  0  0
    0.1463    3.6254    3.0645 H   0  0  0  0  0  0  0  0  0  0  0  0
    0.0066   -2.7287    5.6261 H   0  0  0  0  0  0  0  0  0  0  0  0
    1.9797    0.3009    2.3655 H   0  0  0  0  0  0  0  0  0  0  0  0
    4.3414   -1.3870    5.8268 H   0  0  0  0  0  0  0  0  0  0  0  0
    4.6708   -2.7858    4.7904 H   0  0  0  0  0  0  0  0  0  0  0  0
  1  6  1  0  0  0  0
  2  3  2  0  0  0  0
  3  4  1  0  0  0  0
  4  5  1  0  0  0  0
  5  6  1  0  0  0  0
  1  9  1  0  0  0  0
  1  2  1  0  0  0  0
  2  7  1  0  0  0  0
  7  8  1  0  0  0  0
  8  9  1  0  0  0  0
  9 10  1  0  0  0  0
 10 11  1  0  0  0  0
  6 12  1  0  0  0  0
  4 13  1  0  0  0  0
  5 14  1  0  0  0  0
 12 16  2  0  0  0  0
 11 12  1  0  0  0  0
 15 11  2  0  0  0  0
 15 18  1  0  0  0  0
 16 17  1  0  0  0  0
 17 19  1  0  0  0  0
 17 18  2  0  0  0  0
 18 21  1  0  0  0  0
 19 20  1  0  0  0  0
 20 21  1  0  0  0  0
  1 22  1  0  0  0  0
  3 23  1  0  0  0  0
  4 24  1  0  0  0  0
  5 25  1  0  0  0  0
  6 26  1  0  0  0  0
  7 27  1  0  0  0  0
  7 28  1  0  0  0  0
  8 29  1  0  0  0  0
  8 30  1  0  0  0  0
 10 31  1  0  0  0  0
 10 32  1  0  0  0  0
 13 33  1  0  0  0  0
 14 34  1  0  0  0  0
 15 35  1  0  0  0  0
 16 36  1  0  0  0  0
 20 37  1  0  0  0  0
 20 38  1  0  0  0  0
M  END
$$$$
> 848_AKC_j.ejmech.2024.116256

  Mrv0541 03042415463D              93.19000

 64 68  0  0  0  0            999 V2000
    3.9473   -3.8540    1.8343 C   0  0  0  0  0  0  0  0  0  0  0  0
    2.8671   -3.0276    1.7282 N   0  0  0  0  0  0  0  0  0  0  0  0
    2.5024   -2.3983    0.5883 C   0  0  0  0  0  0  0  0  0  0  0  0
    3.2890   -2.5409   -0.5035 N   0  0  0  0  0  0  0  0  0  0  0  0
    4.3730   -3.3471   -0.5049 C   0  0  0  0  0  0  0  0  0  0  0  0
    4.7083   -4.1066    0.6525 C   0  0  0  0  0  0  0  0  0  0  0  0
    5.7378   -5.0700    0.5235 C   0  0  0  0  0  0  0  0  0  0  0  0
    5.1356   -3.4279   -1.6805 C   0  0  0  0  0  0  0  0  0  0  0  0
    6.1794   -4.3641   -1.7846 C   0  0  0  0  0  0  0  0  0  0  0  0
    6.4548   -5.2184   -0.6894 C   0  0  0  0  0  0  0  0  0  0  0  0
    4.1947   -4.3443    3.1073 N   0  0  0  0  0  0  0  0  0  0  0  0
    1.3746   -1.6480    0.5748 N   0  0  0  0  0  0  0  0  0  0  0  0
    4.3633   -3.8572    5.9755 C   0  0  2  0  0  0  0  0  0  0  0  0
    5.5461   -3.5162    5.0304 C   0  0  2  0  0  0  0  0  0  0  0  0
    5.5168   -4.3307    3.7066 C   0  0  1  0  0  0  0  0  0  0  0  0
    3.1037   -4.7757    3.9656 C   0  0  2  0  0  0  0  0  0  0  0  0
    3.0153   -3.8579    5.2124 C   0  0  1  0  0  0  0  0  0  0  0  0
    7.3787   -6.2192   -0.8330 O   0  0  0  0  0  0  0  0  0  0  0  0
    6.9365   -4.3885   -2.9291 O   0  0  0  0  0  0  0  0  0  0  0  0
    8.6647   -5.9226   -0.2670 C   0  0  0  0  0  0  0  0  0  0  0  0
    6.4237   -5.1763   -4.0282 C   0  0  2  0  0  0  0  0  0  0  0  0
    0.8041   -1.0890   -0.6115 C   0  0  2  0  0  0  0  0  0  0  0  0
   -0.2252   -0.0706   -0.2915 C   0  0  0  0  0  0  0  0  0  0  0  0
   -1.3523   -0.4129    0.4929 C   0  0  0  0  0  0  0  0  0  0  0  0
   -2.3104    0.5595    0.8320 C   0  0  0  0  0  0  0  0  0  0  0  0
   -2.1669    1.8813    0.3733 C   0  0  0  0  0  0  0  0  0  0  0  0
   -1.0686    2.2277   -0.4357 C   0  0  0  0  0  0  0  0  0  0  0  0
   -0.1055    1.2577   -0.7667 C   0  0  0  0  0  0  0  0  0  0  0  0
   -3.4315    3.1626    0.8399 Br  0  0  0  0  0  0  0  0  0  0  0  0
    6.6615   -5.5683   -6.4361 C   0  0  2  0  0  0  0  0  0  0  0  0
    7.4494   -5.1534   -5.1782 C   0  0  2  0  0  0  0  0  0  0  0  0
    5.1494   -4.6412   -4.7249 C   0  0  2  0  0  0  0  0  0  0  0  0
    5.1865   -5.2033   -6.1610 C   0  0  1  0  0  0  0  0  0  0  0  0
    5.9648   -5.6850    1.3070 H   0  0  0  0  0  0  0  0  0  0  0  0
    4.9276   -2.8039   -2.4664 H   0  0  0  0  0  0  0  0  0  0  0  0
    0.8960   -1.5354    1.4126 H   0  0  0  0  0  0  0  0  0  0  0  0
    4.3184   -3.1235    6.7851 H   0  0  0  0  0  0  0  0  0  0  0  0
    4.5240   -4.8418    6.4266 H   0  0  0  0  0  0  0  0  0  0  0  0
    6.4866   -3.7062    5.5554 H   0  0  0  0  0  0  0  0  0  0  0  0
    5.5073   -2.4517    4.7886 H   0  0  0  0  0  0  0  0  0  0  0  0
    5.8218   -5.3586    3.9144 H   0  0  0  0  0  0  0  0  0  0  0  0
    6.2671   -3.8924    3.0447 H   0  0  0  0  0  0  0  0  0  0  0  0
    3.2773   -5.8062    4.2845 H   0  0  0  0  0  0  0  0  0  0  0  0
    2.1324   -4.7662    3.4626 H   0  0  0  0  0  0  0  0  0  0  0  0
    2.2165   -4.2006    5.8757 H   0  0  0  0  0  0  0  0  0  0  0  0
    2.7740   -2.8382    4.8943 H   0  0  0  0  0  0  0  0  0  0  0  0
    9.3297   -6.7554   -0.4989 H   0  0  0  0  0  0  0  0  0  0  0  0
    9.0916   -5.0132   -0.6959 H   0  0  0  0  0  0  0  0  0  0  0  0
    8.6085   -5.8240    0.8195 H   0  0  0  0  0  0  0  0  0  0  0  0
    6.2678   -6.2137   -3.7102 H   0  0  0  0  0  0  0  0  0  0  0  0
    0.3439   -1.8909   -1.1938 H   0  0  0  0  0  0  0  0  0  0  0  0
    1.5971   -0.6470   -1.2216 H   0  0  0  0  0  0  0  0  0  0  0  0
   -1.4769   -1.3726    0.8271 H   0  0  0  0  0  0  0  0  0  0  0  0
   -3.1111    0.3035    1.4136 H   0  0  0  0  0  0  0  0  0  0  0  0
   -0.9666    3.1834   -0.7836 H   0  0  0  0  0  0  0  0  0  0  0  0
    0.6859    1.5274   -1.3579 H   0  0  0  0  0  0  0  0  0  0  0  0
    6.7561   -6.6470   -6.5889 H   0  0  0  0  0  0  0  0  0  0  0  0
    7.0398   -5.0530   -7.3233 H   0  0  0  0  0  0  0  0  0  0  0  0
    8.2838   -5.8315   -4.9839 H   0  0  0  0  0  0  0  0  0  0  0  0
    7.8424   -4.1397   -5.3080 H   0  0  0  0  0  0  0  0  0  0  0  0
    5.1791   -3.5487   -4.7692 H   0  0  0  0  0  0  0  0  0  0  0  0
    4.2428   -4.9532   -4.1998 H   0  0  0  0  0  0  0  0  0  0  0  0
    4.8195   -4.4608   -6.8766 H   0  0  0  0  0  0  0  0  0  0  0  0
    4.5583   -6.0959   -6.2355 H   0  0  0  0  0  0  0  0  0  0  0  0
  1  2  1  0  0  0  0
  1  6  2  0  0  0  0
  2  3  2  0  0  0  0
  3  4  1  0  0  0  0
  4  5  2  0  0  0  0
  7  6  1  0  0  0  0
  5  6  1  0  0  0  0
  5  8  1  0  0  0  0
  7 10  2  0  0  0  0
  8  9  2  0  0  0  0
  9 10  1  0  0  0  0
  1 11  1  0  0  0  0
  3 12  1  0  0  0  0
 15 11  1  0  0  0  0
 11 16  1  0  0  0  0
 13 14  1  0  0  0  0
 13 17  1  0  0  0  0
 14 15  1  0  0  0  0
 16 17  1  0  0  0  0
 10 18  1  0  0  0  0
  9 19  1  0  0  0  0
 18 20  1  0  0  0  0
 19 21  1  0  0  0  0
 12 22  1  0  0  0  0
 22 23  1  0  0  0  0
 23 24  1  0  0  0  0
 23 28  2  0  0  0  0
 24 25  2  0  0  0  0
 25 26  1  0  0  0  0
 26 27  2  0  0  0  0
 27 28  1  0  0  0  0
 26 29  1  0  0  0  0
 31 21  1  0  0  0  0
 21 32  1  0  0  0  0
 30 31  1  0  0  0  0
 30 33  1  0  0  0  0
 32 33  1  0  0  0  0
  7 34  1  0  0  0  0
  8 35  1  0  0  0  0
 12 36  1  0  0  0  0
 13 37  1  0  0  0  0
 13 38  1  0  0  0  0
 14 39  1  0  0  0  0
 14 40  1  0  0  0  0
 15 41  1  0  0  0  0
 15 42  1  0  0  0  0
 16 43  1  0  0  0  0
 16 44  1  0  0  0  0
 17 45  1  0  0  0  0
 17 46  1  0  0  0  0
 20 47  1  0  0  0  0
 20 48  1  0  0  0  0
 20 49  1  0  0  0  0
 21 50  1  0  0  0  0
 22 51  1  0  0  0  0
 22 52  1  0  0  0  0
 24 53  1  0  0  0  0
 25 54  1  0  0  0  0
 27 55  1  0  0  0  0
 28 56  1  0  0  0  0
 30 57  1  0  0  0  0
 30 58  1  0  0  0  0
 31 59  1  0  0  0  0
 31 60  1  0  0  0  0
 32 61  1  0  0  0  0
 32 62  1  0  0  0  0
 33 63  1  0  0  0  0
 33 64  1  0  0  0  0
M  END
$$$$
> 849_AKC

  Mrv0541 03042420253D             126.36000

 73 77  0  0  0  0            999 V2000
   -1.5410    6.2779   -0.1953 C   0  0  0  0  0  0  0  0  0  0  0  0
   -2.1134    7.5727    0.2434 C   0  0  2  0  0  0  0  0  0  0  0  0
   -3.5675    7.7510   -0.3093 C   0  0  2  0  0  0  0  0  0  0  0  0
   -4.3947    6.4423   -0.0149 C   0  0  1  0  0  0  0  0  0  0  0  0
   -3.6471    5.1818   -0.0488 C   0  0  0  0  0  0  0  0  0  0  0  0
   -2.2981    5.1016   -0.0927 C   0  0  0  0  0  0  0  0  0  0  0  0
   -1.6523    3.7690    0.0021 C   0  0  2  0  0  0  0  0  0  0  0  0
   -4.3791    4.0656    0.0082 N   0  0  0  0  0  0  0  0  0  0  0  0
   -3.9082    2.8103    0.0310 C   0  0  0  0  0  0  0  0  0  0  0  0
   -2.5642    2.5852    0.0296 C   0  0  0  0  0  0  0  0  0  0  0  0
   -3.5091    8.0542   -1.8764 C   0  0  0  0  0  0  0  0  0  0  0  0
   -4.2398    8.9811    0.3851 C   0  0  0  0  0  0  0  0  0  0  0  0
   -0.3784    6.2567   -0.6648 O   0  0  0  0  0  0  0  0  0  0  0  0
   -0.7508    3.7612    1.2117 C   0  0  0  0  0  0  0  0  0  0  0  0
   -4.9489    1.7845    0.0510 C   0  0  0  0  0  0  0  0  0  0  0  0
   -1.9790    1.3001    0.0583 C   0  0  0  0  0  0  0  0  0  0  0  0
   -2.6291    0.2597    0.3185 O   0  0  0  0  0  0  0  0  0  0  0  0
   -0.6340    1.1444   -0.1555 O   0  0  0  0  0  0  0  0  0  0  0  0
    0.1101   -0.0802   -0.1164 C   0  0  1  0  0  0  0  0  0  0  0  0
    1.6083    0.2049   -0.3047 C   0  0  0  0  0  0  0  0  0  0  0  0
    0.9494    3.7467    3.4948 C   0  0  0  0  0  0  0  0  0  0  0  0
   -0.4502    3.8140    3.6480 C   0  0  0  0  0  0  0  0  0  0  0  0
   -1.2894    3.8307    2.5213 C   0  0  0  0  0  0  0  0  0  0  0  0
    0.6586    3.6851    1.0732 C   0  0  0  0  0  0  0  0  0  0  0  0
    1.5011    3.6917    2.1995 C   0  0  0  0  0  0  0  0  0  0  0  0
    1.7692    3.7471    4.5958 O   0  0  0  0  0  0  0  0  0  0  0  0
    1.8844    2.4431    5.1987 C   0  0  1  0  0  0  0  0  0  0  0  0
    2.7788    2.4908    6.3660 C   0  0  0  0  0  0  0  0  0  0  0  0
    2.5298    3.0619    7.6051 C   0  0  0  0  0  0  0  0  0  0  0  0
    4.0000    1.9421    6.4412 N   0  0  0  0  0  0  0  0  0  0  0  0
    4.4666    2.1510    7.6322 N   0  0  0  0  0  0  0  0  0  0  0  0
    3.6118    2.8064    8.3590 N   0  0  0  0  0  0  0  0  0  0  0  0
    3.8292    3.1647    9.7274 C   0  0  1  0  0  0  0  0  0  0  0  0
    3.9514    1.9462   10.5711 C   0  0  0  0  0  0  0  0  0  0  0  0
    2.7969    1.3288   11.1074 C   0  0  0  0  0  0  0  0  0  0  0  0
    2.9025    0.1615   11.8867 C   0  0  0  0  0  0  0  0  0  0  0  0
    4.1639   -0.4077   12.1355 C   0  0  0  0  0  0  0  0  0  0  0  0
    5.3202    0.1924   11.6060 C   0  0  0  0  0  0  0  0  0  0  0  0
    5.2151    1.3625   10.8303 C   0  0  0  0  0  0  0  0  0  0  0  0
   -1.4741    8.4065   -0.0632 H   0  0  0  0  0  0  0  0  0  0  0  0
   -2.1265    7.5607    1.3376 H   0  0  0  0  0  0  0  0  0  0  0  0
   -4.8289    6.5028    0.9874 H   0  0  0  0  0  0  0  0  0  0  0  0
   -5.2284    6.3855   -0.7202 H   0  0  0  0  0  0  0  0  0  0  0  0
   -1.0619    3.6668   -0.9155 H   0  0  0  0  0  0  0  0  0  0  0  0
   -5.3433    4.1776    0.0302 H   0  0  0  0  0  0  0  0  0  0  0  0
   -3.1831    7.1032   -2.3981 H   0  0  0  0  0  0  0  0  0  0  0  0
   -2.9394    9.0200   -2.1799 H   0  0  0  0  0  0  0  0  0  0  0  0
   -4.5301    8.2239   -2.2246 H   0  0  0  0  0  0  0  0  0  0  0  0
   -4.2771    8.8483    1.4694 H   0  0  0  0  0  0  0  0  0  0  0  0
   -3.6860    9.9000    0.1770 H   0  0  0  0  0  0  0  0  0  0  0  0
   -5.2638    9.1107    0.0277 H   0  0  0  0  0  0  0  0  0  0  0  0
   -4.9126    1.2347    0.9934 H   0  0  0  0  0  0  0  0  0  0  0  0
   -4.8179    1.0915   -0.7826 H   0  0  0  0  0  0  0  0  0  0  0  0
   -5.9554    2.2008   -0.0429 H   0  0  0  0  0  0  0  0  0  0  0  0
   -0.0385   -0.5703    0.8480 H   0  0  0  0  0  0  0  0  0  0  0  0
   -0.2350   -0.7461   -0.9100 H   0  0  0  0  0  0  0  0  0  0  0  0
    2.1587   -0.7352   -0.3381 H   0  0  0  0  0  0  0  0  0  0  0  0
    1.7814    0.7468   -1.2355 H   0  0  0  0  0  0  0  0  0  0  0  0
    1.9863    0.8021    0.5266 H   0  0  0  0  0  0  0  0  0  0  0  0
   -0.8614    3.8456    4.5832 H   0  0  0  0  0  0  0  0  0  0  0  0
   -2.3009    3.8916    2.6656 H   0  0  0  0  0  0  0  0  0  0  0  0
    1.0860    3.6237    0.1456 H   0  0  0  0  0  0  0  0  0  0  0  0
    2.5155    3.6497    2.0706 H   0  0  0  0  0  0  0  0  0  0  0  0
    0.9095    2.0810    5.5373 H   0  0  0  0  0  0  0  0  0  0  0  0
    2.2888    1.7275    4.4760 H   0  0  0  0  0  0  0  0  0  0  0  0
    1.6828    3.5594    7.8873 H   0  0  0  0  0  0  0  0  0  0  0  0
    4.7388    3.7674    9.7896 H   0  0  0  0  0  0  0  0  0  0  0  0
    3.0159    3.7927   10.1024 H   0  0  0  0  0  0  0  0  0  0  0  0
    1.8699    1.7243   10.9317 H   0  0  0  0  0  0  0  0  0  0  0  0
    2.0612   -0.2745   12.2712 H   0  0  0  0  0  0  0  0  0  0  0  0
    4.2399   -1.2568   12.7002 H   0  0  0  0  0  0  0  0  0  0  0  0
    6.2376   -0.2237   11.7835 H   0  0  0  0  0  0  0  0  0  0  0  0
    6.0680    1.7803   10.4495 H   0  0  0  0  0  0  0  0  0  0  0  0
  1  2  1  0  0  0  0
  1  6  1  0  0  0  0
  2  3  1  0  0  0  0
  3  4  1  0  0  0  0
  4  5  1  0  0  0  0
  7  6  1  0  0  0  0
  6  5  2  0  0  0  0
  5  8  1  0  0  0  0
  7 10  1  0  0  0  0
  8  9  1  0  0  0  0
  9 10  2  0  0  0  0
  3 11  1  0  0  0  0
  3 12  1  0  0  0  0
  1 13  2  0  0  0  0
  7 14  1  0  0  0  0
  9 15  1  0  0  0  0
 10 16  1  0  0  0  0
 16 17  2  0  0  0  0
 16 18  1  0  0  0  0
 18 19  1  0  0  0  0
 19 20  1  0  0  0  0
 23 14  1  0  0  0  0
 14 24  2  0  0  0  0
 21 22  1  0  0  0  0
 21 25  2  0  0  0  0
 22 23  2  0  0  0  0
 24 25  1  0  0  0  0
 21 26  1  0  0  0  0
 26 27  1  0  0  0  0
 27 28  1  0  0  0  0
 29 28  2  0  0  0  0
 28 30  1  0  0  0  0
 29 32  1  0  0  0  0
 30 31  2  0  0  0  0
 31 32  1  0  0  0  0
 32 33  1  0  0  0  0
 33 34  1  0  0  0  0
 34 35  1  0  0  0  0
 34 39  2  0  0  0  0
 35 36  2  0  0  0  0
 36 37  1  0  0  0  0
 37 38  2  0  0  0  0
 38 39  1  0  0  0  0
  2 40  1  0  0  0  0
  2 41  1  0  0  0  0
  4 42  1  0  0  0  0
  4 43  1  0  0  0  0
  7 44  1  0  0  0  0
  8 45  1  0  0  0  0
 11 46  1  0  0  0  0
 11 47  1  0  0  0  0
 11 48  1  0  0  0  0
 12 49  1  0  0  0  0
 12 50  1  0  0  0  0
 12 51  1  0  0  0  0
 15 52  1  0  0  0  0
 15 53  1  0  0  0  0
 15 54  1  0  0  0  0
 19 55  1  0  0  0  0
 19 56  1  0  0  0  0
 20 57  1  0  0  0  0
 20 58  1  0  0  0  0
 20 59  1  0  0  0  0
 22 60  1  0  0  0  0
 23 61  1  0  0  0  0
 24 62  1  0  0  0  0
 25 63  1  0  0  0  0
 27 64  1  0  0  0  0
 27 65  1  0  0  0  0
 29 66  1  0  0  0  0
 33 67  1  0  0  0  0
 33 68  1  0  0  0  0
 35 69  1  0  0  0  0
 36 70  1  0  0  0  0
 37 71  1  0  0  0  0
 38 72  1  0  0  0  0
 39 73  1  0  0  0  0
M  END
$$$$
> 850_AKC

  Mrv0541 03042420263D             127.03000

 73 77  0  0  0  0            999 V2000
   -1.5487    6.2298    0.4205 C   0  0  0  0  0  0  0  0  0  0  0  0
   -2.1895    7.5393    0.6971 C   0  0  2  0  0  0  0  0  0  0  0  0
   -3.5730    7.6845   -0.0164 C   0  0  2  0  0  0  0  0  0  0  0  0
   -4.4107    6.3869    0.2493 C   0  0  1  0  0  0  0  0  0  0  0  0
   -3.6562    5.1468    0.0983 C   0  0  0  0  0  0  0  0  0  0  0  0
   -2.3060    5.0709    0.1727 C   0  0  0  0  0  0  0  0  0  0  0  0
   -1.6623    3.7459    0.0035 C   0  0  1  0  0  0  0  0  0  0  0  0
   -4.3811    4.0455   -0.0741 N   0  0  0  0  0  0  0  0  0  0  0  0
   -3.9163    2.7909   -0.0517 C   0  0  0  0  0  0  0  0  0  0  0  0
   -2.5723    2.5618    0.0039 C   0  0  0  0  0  0  0  0  0  0  0  0
   -3.3472    7.9091   -1.5816 C   0  0  0  0  0  0  0  0  0  0  0  0
   -4.3264    8.9291    0.5503 C   0  0  0  0  0  0  0  0  0  0  0  0
   -0.2961    6.1897    0.4771 O   0  0  0  0  0  0  0  0  0  0  0  0
   -0.7757    3.7697   -1.2137 C   0  0  0  0  0  0  0  0  0  0  0  0
   -4.9700    1.7813   -0.0470 C   0  0  0  0  0  0  0  0  0  0  0  0
   -1.9926    1.2732    0.0952 C   0  0  0  0  0  0  0  0  0  0  0  0
   -2.6747    0.2239    0.1778 O   0  0  0  0  0  0  0  0  0  0  0  0
   -0.6294    1.1032    0.1110 O   0  0  0  0  0  0  0  0  0  0  0  0
    0.0780   -0.1475    0.1686 C   0  0  1  0  0  0  0  0  0  0  0  0
    1.5983    0.0828    0.0601 C   0  0  0  0  0  0  0  0  0  0  0  0
    0.9438    3.7980   -3.4871 C   0  0  0  0  0  0  0  0  0  0  0  0
   -0.4453    3.9865   -3.6408 C   0  0  0  0  0  0  0  0  0  0  0  0
   -1.2962    3.9692   -2.5177 C   0  0  0  0  0  0  0  0  0  0  0  0
    0.6243    3.6037   -1.0734 C   0  0  0  0  0  0  0  0  0  0  0  0
    1.4695    3.5959   -2.1941 C   0  0  0  0  0  0  0  0  0  0  0  0
    1.7572    3.7857   -4.5941 O   0  0  0  0  0  0  0  0  0  0  0  0
    2.6449    4.9196   -4.6743 C   0  0  1  0  0  0  0  0  0  0  0  0
    3.4337    4.8189   -5.9101 C   0  0  0  0  0  0  0  0  0  0  0  0
    3.1682    5.4127   -7.1334 C   0  0  0  0  0  0  0  0  0  0  0  0
    4.5717    4.1257   -6.0633 N   0  0  0  0  0  0  0  0  0  0  0  0
    4.9841    4.2858   -7.2822 N   0  0  0  0  0  0  0  0  0  0  0  0
    4.1693    5.0479   -7.9488 N   0  0  0  0  0  0  0  0  0  0  0  0
    4.3445    5.4169   -9.3187 C   0  0  1  0  0  0  0  0  0  0  0  0
    5.5452    6.2813   -9.4591 C   0  0  0  0  0  0  0  0  0  0  0  0
    5.4542    7.6780   -9.2490 C   0  0  0  0  0  0  0  0  0  0  0  0
    6.5995    8.4921   -9.3345 C   0  0  0  0  0  0  0  0  0  0  0  0
    7.8510    7.9200   -9.6249 C   0  0  0  0  0  0  0  0  0  0  0  0
    7.9550    6.5345   -9.8402 C   0  0  0  0  0  0  0  0  0  0  0  0
    6.8095    5.7208   -9.7607 C   0  0  0  0  0  0  0  0  0  0  0  0
   -1.5273    8.3577    0.3947 H   0  0  0  0  0  0  0  0  0  0  0  0
   -2.3222    7.6055    1.7811 H   0  0  0  0  0  0  0  0  0  0  0  0
   -4.8071    6.3922    1.2688 H   0  0  0  0  0  0  0  0  0  0  0  0
   -5.2703    6.3774   -0.4259 H   0  0  0  0  0  0  0  0  0  0  0  0
   -1.0552    3.6254    0.9097 H   0  0  0  0  0  0  0  0  0  0  0  0
   -5.3364    4.1648   -0.1880 H   0  0  0  0  0  0  0  0  0  0  0  0
   -2.9040    6.9562   -2.0078 H   0  0  0  0  0  0  0  0  0  0  0  0
   -2.8016    8.8940   -1.8737 H   0  0  0  0  0  0  0  0  0  0  0  0
   -4.3309    7.9936   -2.0500 H   0  0  0  0  0  0  0  0  0  0  0  0
   -4.4751    8.8407    1.6278 H   0  0  0  0  0  0  0  0  0  0  0  0
   -3.7589    9.8420    0.3622 H   0  0  0  0  0  0  0  0  0  0  0  0
   -5.3068    9.0325    0.0827 H   0  0  0  0  0  0  0  0  0  0  0  0
   -4.9534    1.2371    0.8991 H   0  0  0  0  0  0  0  0  0  0  0  0
   -4.8343    1.0908   -0.8763 H   0  0  0  0  0  0  0  0  0  0  0  0
   -5.9699    2.2119   -0.1488 H   0  0  0  0  0  0  0  0  0  0  0  0
   -0.1486   -0.6591    1.1099 H   0  0  0  0  0  0  0  0  0  0  0  0
   -0.2482   -0.7821   -0.6607 H   0  0  0  0  0  0  0  0  0  0  0  0
    2.1244   -0.8758    0.0848 H   0  0  0  0  0  0  0  0  0  0  0  0
    1.8325    0.5885   -0.8792 H   0  0  0  0  0  0  0  0  0  0  0  0
    1.9462    0.6978    0.8929 H   0  0  0  0  0  0  0  0  0  0  0  0
   -0.8425    4.1353   -4.5718 H   0  0  0  0  0  0  0  0  0  0  0  0
   -2.3006    4.1087   -2.6570 H   0  0  0  0  0  0  0  0  0  0  0  0
    1.0432    3.4798   -0.1488 H   0  0  0  0  0  0  0  0  0  0  0  0
    2.4723    3.4444   -2.0629 H   0  0  0  0  0  0  0  0  0  0  0  0
    2.0809    5.8580   -4.6766 H   0  0  0  0  0  0  0  0  0  0  0  0
    3.3431    4.9354   -3.8315 H   0  0  0  0  0  0  0  0  0  0  0  0
    2.3714    6.0116   -7.3622 H   0  0  0  0  0  0  0  0  0  0  0  0
    4.4489    4.5062   -9.9143 H   0  0  0  0  0  0  0  0  0  0  0  0
    3.4621    5.9381   -9.7031 H   0  0  0  0  0  0  0  0  0  0  0  0
    4.5541    8.1111   -9.0264 H   0  0  0  0  0  0  0  0  0  0  0  0
    6.5227    9.5004   -9.1824 H   0  0  0  0  0  0  0  0  0  0  0  0
    8.6841    8.5102   -9.6790 H   0  0  0  0  0  0  0  0  0  0  0  0
    8.8643    6.1172  -10.0515 H   0  0  0  0  0  0  0  0  0  0  0  0
    6.9078    4.7138   -9.9126 H   0  0  0  0  0  0  0  0  0  0  0  0
  1  2  1  0  0  0  0
  1  6  1  0  0  0  0
  2  3  1  0  0  0  0
  3  4  1  0  0  0  0
  4  5  1  0  0  0  0
  7  6  1  0  0  0  0
  6  5  2  0  0  0  0
  5  8  1  0  0  0  0
  7 10  1  0  0  0  0
  8  9  1  0  0  0  0
  9 10  2  0  0  0  0
  3 11  1  0  0  0  0
  3 12  1  0  0  0  0
  1 13  2  0  0  0  0
  7 14  1  0  0  0  0
  9 15  1  0  0  0  0
 10 16  1  0  0  0  0
 16 17  2  0  0  0  0
 16 18  1  0  0  0  0
 18 19  1  0  0  0  0
 19 20  1  0  0  0  0
 23 14  1  0  0  0  0
 14 24  2  0  0  0  0
 21 22  1  0  0  0  0
 21 25  2  0  0  0  0
 22 23  2  0  0  0  0
 24 25  1  0  0  0  0
 21 26  1  0  0  0  0
 26 27  1  0  0  0  0
 27 28  1  0  0  0  0
 29 28  2  0  0  0  0
 28 30  1  0  0  0  0
 29 32  1  0  0  0  0
 30 31  2  0  0  0  0
 31 32  1  0  0  0  0
 32 33  1  0  0  0  0
 33 34  1  0  0  0  0
 34 35  1  0  0  0  0
 34 39  2  0  0  0  0
 35 36  2  0  0  0  0
 36 37  1  0  0  0  0
 37 38  2  0  0  0  0
 38 39  1  0  0  0  0
  2 40  1  0  0  0  0
  2 41  1  0  0  0  0
  4 42  1  0  0  0  0
  4 43  1  0  0  0  0
  7 44  1  0  0  0  0
  8 45  1  0  0  0  0
 11 46  1  0  0  0  0
 11 47  1  0  0  0  0
 11 48  1  0  0  0  0
 12 49  1  0  0  0  0
 12 50  1  0  0  0  0
 12 51  1  0  0  0  0
 15 52  1  0  0  0  0
 15 53  1  0  0  0  0
 15 54  1  0  0  0  0
 19 55  1  0  0  0  0
 19 56  1  0  0  0  0
 20 57  1  0  0  0  0
 20 58  1  0  0  0  0
 20 59  1  0  0  0  0
 22 60  1  0  0  0  0
 23 61  1  0  0  0  0
 24 62  1  0  0  0  0
 25 63  1  0  0  0  0
 27 64  1  0  0  0  0
 27 65  1  0  0  0  0
 29 66  1  0  0  0  0
 33 67  1  0  0  0  0
 33 68  1  0  0  0  0
 35 69  1  0  0  0  0
 36 70  1  0  0  0  0
 37 71  1  0  0  0  0
 38 72  1  0  0  0  0
 39 73  1  0  0  0  0
M  END
$$$$
> 851_AKC_j.ijpddr.2024.100531

  Mrv1816 03192411173D              23.53000

 20 20  0  0  0  0            999 V2000
   -2.9566   -2.1219   -3.7537 C   0  0  0  0  0  0  0  0  0  0  0  0
   -2.1058   -1.5817   -2.7712 C   0  0  0  0  0  0  0  0  0  0  0  0
   -2.4674   -0.4208   -2.0532 C   0  0  0  0  0  0  0  0  0  0  0  0
   -3.7063    0.1954   -2.3492 C   0  0  0  0  0  0  0  0  0  0  0  0
   -4.5589   -0.3405   -3.3326 C   0  0  0  0  0  0  0  0  0  0  0  0
   -4.1845   -1.4980   -4.0369 C   0  0  0  0  0  0  0  0  0  0  0  0
   -5.3151   -2.1946   -5.3393 Br  0  0  0  0  0  0  0  0  0  0  0  0
   -1.5645    0.0162   -1.1144 O   0  0  0  0  0  0  0  0  0  0  0  0
   -1.5267    1.0882   -0.2568 C   0  0  0  0  0  0  0  0  0  0  0  0
   -2.4555    1.9283   -0.2089 O   0  0  0  0  0  0  0  0  0  0  0  0
   -0.4384    1.2812    0.5810 C   0  0  0  0  0  0  0  0  0  0  0  0
    0.6169    0.4502    0.6429 C   0  0  0  0  0  0  0  0  0  0  0  0
    1.6093    0.6579    1.4094 C   0  0  0  0  0  0  0  0  0  0  0  0
    2.5103    0.8470    2.0955 N   0  0  0  0  0  0  0  0  0  0  0  0
   -2.6808   -2.9666   -4.2608 H   0  0  0  0  0  0  0  0  0  0  0  0
   -1.2134   -2.0432   -2.5810 H   0  0  0  0  0  0  0  0  0  0  0  0
   -4.0077    1.0350   -1.8593 H   0  0  0  0  0  0  0  0  0  0  0  0
   -5.4523    0.1135   -3.5357 H   0  0  0  0  0  0  0  0  0  0  0  0
   -0.4522    2.0908    1.1677 H   0  0  0  0  0  0  0  0  0  0  0  0
    0.6541   -0.3656    0.0787 H   0  0  0  0  0  0  0  0  0  0  0  0
  1  2  1  0  0  0  0
  2  3  2  0  0  0  0
  3  4  1  0  0  0  0
  4  5  2  0  0  0  0
  5  6  1  0  0  0  0
  1  6  2  0  0  0  0
  6  7  1  0  0  0  0
  3  8  1  0  0  0  0
  8  9  1  0  0  0  0
  9 10  2  0  0  0  0
  9 11  1  0  0  0  0
 11 12  2  0  0  0  0
 12 13  1  0  0  0  0
 13 14  3  0  0  0  0
  1 15  1  0  0  0  0
  2 16  1  0  0  0  0
  4 17  1  0  0  0  0
  5 18  1  0  0  0  0
 11 19  1  0  0  0  0
 12 20  1  0  0  0  0
M  END
$$$$
> 852_AKC_j.molstruc.2024.138015

  Mrv1816 03192411253D              87.07000

 47 50  0  0  0  0            999 V2000
    6.5769    6.5663    3.0547 C   0  0  0  0  0  0  0  0  0  0  0  0
    7.0530    7.7729    3.6007 C   0  0  0  0  0  0  0  0  0  0  0  0
    8.4353    8.0081    3.6928 C   0  0  0  0  0  0  0  0  0  0  0  0
    9.3407    7.0370    3.2360 C   0  0  0  0  0  0  0  0  0  0  0  0
    8.8632    5.8313    2.6873 C   0  0  0  0  0  0  0  0  0  0  0  0
    7.4719    5.5653    2.6001 C   0  0  0  0  0  0  0  0  0  0  0  0
    6.9869    4.3216    2.1554 C   0  0  0  0  0  0  0  0  0  0  0  0
    7.5718    3.0867    2.6677 C   0  0  1  0  0  0  0  0  0  0  0  0
    7.5771    3.1473    4.1106 O   0  0  0  0  0  0  0  0  0  0  0  0
    8.2059    2.0807    4.6870 C   0  0  0  0  0  0  0  0  0  0  0  0
    7.4827    0.9036    4.9656 C   0  0  0  0  0  0  0  0  0  0  0  0
    9.5761    2.1549    5.0125 C   0  0  0  0  0  0  0  0  0  0  0  0
   10.2265    1.0423    5.5787 C   0  0  0  0  0  0  0  0  0  0  0  0
    9.5078   -0.1419    5.8294 C   0  0  0  0  0  0  0  0  0  0  0  0
    8.1342   -0.2081    5.5295 C   0  0  0  0  0  0  0  0  0  0  0  0
    5.9989    4.1755    1.3413 N   0  0  0  0  0  0  0  0  0  0  0  0
    5.3208    5.0440    0.7207 N   0  0  0  0  0  0  0  0  0  0  0  0
    4.1227    4.7330    0.1866 C   0  0  0  0  0  0  0  0  0  0  0  0
    1.7887    4.6684   -0.9166 C   0  0  0  0  0  0  0  0  0  0  0  0
    2.1972    3.4854   -0.2744 C   0  0  0  0  0  0  0  0  0  0  0  0
    3.4421    3.5661    0.2871 N   0  0  0  0  0  0  0  0  0  0  0  0
    3.0980    5.8190   -0.7282 S   0  0  0  0  0  0  0  0  0  0  0  0
    1.4151    2.2937   -0.1807 C   0  0  0  0  0  0  0  0  0  0  0  0
   -0.7502    1.1266   -0.0512 C   0  0  0  0  0  0  0  0  0  0  0  0
   -0.0950   -0.1153    0.0389 C   0  0  0  0  0  0  0  0  0  0  0  0
    1.3103   -0.1573    0.0204 C   0  0  0  0  0  0  0  0  0  0  0  0
    2.0538    1.0322   -0.0839 C   0  0  0  0  0  0  0  0  0  0  0  0
   -0.0036    2.3168   -0.1593 C   0  0  0  0  0  0  0  0  0  0  0  0
   -0.9871   -1.5492    0.1753 Cl  0  0  0  0  0  0  0  0  0  0  0  0
    5.5654    6.4194    3.0149 H   0  0  0  0  0  0  0  0  0  0  0  0
    6.3937    8.4770    3.9407 H   0  0  0  0  0  0  0  0  0  0  0  0
    8.7808    8.8857    4.0923 H   0  0  0  0  0  0  0  0  0  0  0  0
   10.3463    7.2101    3.3051 H   0  0  0  0  0  0  0  0  0  0  0  0
    9.5490    5.1473    2.3601 H   0  0  0  0  0  0  0  0  0  0  0  0
    7.0052    2.2038    2.3404 H   0  0  0  0  0  0  0  0  0  0  0  0
    8.5876    2.9874    2.2726 H   0  0  0  0  0  0  0  0  0  0  0  0
    6.4835    0.8562    4.7538 H   0  0  0  0  0  0  0  0  0  0  0  0
   10.0998    3.0157    4.8355 H   0  0  0  0  0  0  0  0  0  0  0  0
   11.2210    1.0951    5.8092 H   0  0  0  0  0  0  0  0  0  0  0  0
    9.9827   -0.9542    6.2289 H   0  0  0  0  0  0  0  0  0  0  0  0
    7.6074   -1.0623    5.7218 H   0  0  0  0  0  0  0  0  0  0  0  0
    5.6522    5.9525    0.6542 H   0  0  0  0  0  0  0  0  0  0  0  0
    0.9129    4.8408   -1.4104 H   0  0  0  0  0  0  0  0  0  0  0  0
   -1.7718    1.1675   -0.0354 H   0  0  0  0  0  0  0  0  0  0  0  0
    1.7990   -1.0527    0.0826 H   0  0  0  0  0  0  0  0  0  0  0  0
    3.0736    0.9638   -0.0961 H   0  0  0  0  0  0  0  0  0  0  0  0
   -0.5116    3.2035   -0.2067 H   0  0  0  0  0  0  0  0  0  0  0  0
  1  2  1  0  0  0  0
  2  3  2  0  0  0  0
  3  4  1  0  0  0  0
  4  5  2  0  0  0  0
  5  6  1  0  0  0  0
  1  6  2  0  0  0  0
  6  7  1  0  0  0  0
  7  8  1  0  0  0  0
  8  9  1  0  0  0  0
  9 10  1  0  0  0  0
 12 13  1  0  0  0  0
 13 14  2  0  0  0  0
 14 15  1  0  0  0  0
 11 15  2  0  0  0  0
 11 10  1  0  0  0  0
 10 12  2  0  0  0  0
  7 16  2  0  0  0  0
 16 17  1  0  0  0  0
 17 18  1  0  0  0  0
 19 20  2  0  0  0  0
 20 21  1  0  0  0  0
 19 22  1  0  0  0  0
 21 18  2  0  0  0  0
 18 22  1  0  0  0  0
 20 23  1  0  0  0  0
 24 25  1  0  0  0  0
 25 26  2  0  0  0  0
 26 27  1  0  0  0  0
 24 28  2  0  0  0  0
 27 23  2  0  0  0  0
 23 28  1  0  0  0  0
 25 29  1  0  0  0  0
  1 30  1  0  0  0  0
  2 31  1  0  0  0  0
  3 32  1  0  0  0  0
  4 33  1  0  0  0  0
  5 34  1  0  0  0  0
  8 35  1  0  0  0  0
  8 36  1  0  0  0  0
 11 37  1  0  0  0  0
 12 38  1  0  0  0  0
 13 39  1  0  0  0  0
 14 40  1  0  0  0  0
 15 41  1  0  0  0  0
 17 42  1  0  0  0  0
 19 43  1  0  0  0  0
 24 44  1  0  0  0  0
 26 45  1  0  0  0  0
 27 46  1  0  0  0  0
 28 47  1  0  0  0  0
M  END
$$$$
> 853_AKC_j.molstruc.2024.138015

  Mrv1816 03192411253D              87.76000

 47 50  0  0  0  0            999 V2000
    8.3196    3.3951    4.4946 C   0  0  0  0  0  0  0  0  0  0  0  0
    8.9448    2.2508    5.0226 C   0  0  0  0  0  0  0  0  0  0  0  0
    8.4799    0.9718    4.6814 C   0  0  0  0  0  0  0  0  0  0  0  0
    7.3984    0.8406    3.7987 C   0  0  0  0  0  0  0  0  0  0  0  0
    6.7782    1.9877    3.2726 C   0  0  0  0  0  0  0  0  0  0  0  0
    7.2175    3.3058    3.5980 C   0  0  0  0  0  0  0  0  0  0  0  0
    6.6050    4.4574    3.0342 C   0  0  0  0  0  0  0  0  0  0  0  0
    7.0063    5.8236    3.4064 C   0  0  2  0  0  0  0  0  0  0  0  0
    6.7345    6.0480    4.8077 O   0  0  0  0  0  0  0  0  0  0  0  0
    7.1121    7.2934    5.2384 C   0  0  0  0  0  0  0  0  0  0  0  0
    8.4480    7.5439    5.6183 C   0  0  0  0  0  0  0  0  0  0  0  0
    6.1606    8.3327    5.3127 C   0  0  0  0  0  0  0  0  0  0  0  0
    6.5532    9.6232    5.7165 C   0  0  0  0  0  0  0  0  0  0  0  0
    7.8946    9.8765    6.0606 C   0  0  0  0  0  0  0  0  0  0  0  0
    8.8402    8.8350    6.0173 C   0  0  0  0  0  0  0  0  0  0  0  0
    5.6825    4.2550    2.1539 N   0  0  0  0  0  0  0  0  0  0  0  0
    5.0292    5.0718    1.4411 N   0  0  0  0  0  0  0  0  0  0  0  0
    3.9681    4.6935    0.7064 C   0  0  0  0  0  0  0  0  0  0  0  0
    1.9008    4.5570   -0.8355 C   0  0  0  0  0  0  0  0  0  0  0  0
    2.2033    3.4070   -0.0854 C   0  0  0  0  0  0  0  0  0  0  0  0
    3.3122    3.5092    0.7066 N   0  0  0  0  0  0  0  0  0  0  0  0
    3.1295    5.7348   -0.4270 S   0  0  0  0  0  0  0  0  0  0  0  0
    1.4106    2.2333   -0.1009 C   0  0  0  0  0  0  0  0  0  0  0  0
   -0.7912    1.1529   -0.0080 C   0  0  0  0  0  0  0  0  0  0  0  0
   -0.1825   -0.1165   -0.0240 C   0  0  0  0  0  0  0  0  0  0  0  0
    1.2210   -0.2132   -0.0959 C   0  0  0  0  0  0  0  0  0  0  0  0
    2.0119    0.9519   -0.1315 C   0  0  0  0  0  0  0  0  0  0  0  0
   -0.0030    2.3171   -0.0546 C   0  0  0  0  0  0  0  0  0  0  0  0
   -1.1314   -1.5170    0.0499 Cl  0  0  0  0  0  0  0  0  0  0  0  0
    8.6996    4.2981    4.7804 H   0  0  0  0  0  0  0  0  0  0  0  0
    9.7410    2.3484    5.6568 H   0  0  0  0  0  0  0  0  0  0  0  0
    8.9229    0.1401    5.0783 H   0  0  0  0  0  0  0  0  0  0  0  0
    7.0597   -0.0889    3.5373 H   0  0  0  0  0  0  0  0  0  0  0  0
    5.9928    1.8353    2.6356 H   0  0  0  0  0  0  0  0  0  0  0  0
    6.4759    6.5824    2.8280 H   0  0  0  0  0  0  0  0  0  0  0  0
    8.0698    5.9445    3.1790 H   0  0  0  0  0  0  0  0  0  0  0  0
    9.1371    6.7885    5.5976 H   0  0  0  0  0  0  0  0  0  0  0  0
    5.1835    8.1514    5.0687 H   0  0  0  0  0  0  0  0  0  0  0  0
    5.8636   10.3771    5.7583 H   0  0  0  0  0  0  0  0  0  0  0  0
    8.1807   10.8148    6.3486 H   0  0  0  0  0  0  0  0  0  0  0  0
    9.8133    9.0152    6.2743 H   0  0  0  0  0  0  0  0  0  0  0  0
    5.3023    6.0003    1.4013 H   0  0  0  0  0  0  0  0  0  0  0  0
    1.1310    4.6970   -1.4939 H   0  0  0  0  0  0  0  0  0  0  0  0
   -1.8087    1.2387    0.0466 H   0  0  0  0  0  0  0  0  0  0  0  0
    1.6752   -1.1302   -0.1177 H   0  0  0  0  0  0  0  0  0  0  0  0
    3.0302    0.8551   -0.1856 H   0  0  0  0  0  0  0  0  0  0  0  0
   -0.4730    3.2267   -0.0335 H   0  0  0  0  0  0  0  0  0  0  0  0
  1  2  1  0  0  0  0
  2  3  2  0  0  0  0
  3  4  1  0  0  0  0
  4  5  2  0  0  0  0
  5  6  1  0  0  0  0
  1  6  2  0  0  0  0
  6  7  1  0  0  0  0
  7  8  1  0  0  0  0
  8  9  1  0  0  0  0
  9 10  1  0  0  0  0
 12 13  1  0  0  0  0
 13 14  2  0  0  0  0
 14 15  1  0  0  0  0
 11 15  2  0  0  0  0
 11 10  1  0  0  0  0
 10 12  2  0  0  0  0
  7 16  2  0  0  0  0
 16 17  1  0  0  0  0
 17 18  1  0  0  0  0
 19 20  2  0  0  0  0
 20 21  1  0  0  0  0
 19 22  1  0  0  0  0
 21 18  2  0  0  0  0
 18 22  1  0  0  0  0
 20 23  1  0  0  0  0
 24 25  1  0  0  0  0
 25 26  2  0  0  0  0
 26 27  1  0  0  0  0
 24 28  2  0  0  0  0
 27 23  2  0  0  0  0
 23 28  1  0  0  0  0
 25 29  1  0  0  0  0
  1 30  1  0  0  0  0
  2 31  1  0  0  0  0
  3 32  1  0  0  0  0
  4 33  1  0  0  0  0
  5 34  1  0  0  0  0
  8 35  1  0  0  0  0
  8 36  1  0  0  0  0
 11 37  1  0  0  0  0
 12 38  1  0  0  0  0
 13 39  1  0  0  0  0
 14 40  1  0  0  0  0
 15 41  1  0  0  0  0
 17 42  1  0  0  0  0
 19 43  1  0  0  0  0
 24 44  1  0  0  0  0
 26 45  1  0  0  0  0
 27 46  1  0  0  0  0
 28 47  1  0  0  0  0
M  END
$$$$
> 854_AKC_j.bmc.2008.12.003
>IVM.sdf
 OpenBabel10102219273D

134140  0  0  1  0  0  0  0  0999 V2000
   -9.5290   -2.4380   47.4780 C   0  0  0  0  0  0  0  0  0  0  0  0
  -13.1220   -0.4200   46.3760 O   0  0  0  0  0  0  0  0  0  0  0  0
  -11.0030   -2.3900   47.0710 C   0  0  0  0  0  0  0  0  0  0  0  0
   -9.1550   -3.0440   41.2090 O   0  0  0  0  0  0  0  0  0  0  0  0
  -11.8000   -1.5030   48.0260 C   0  0  2  0  0  0  0  0  0  0  0  0
   -7.5240   -6.7850   42.1980 O   0  0  0  0  0  0  0  0  0  0  0  0
  -13.0460   -2.2410   48.5410 C   0  0  0  0  0  0  0  0  0  0  0  0
   -6.8040   -6.6720   39.5040 O   0  0  0  0  0  0  0  0  0  0  0  0
  -12.1320   -0.1600   47.3590 C   0  0  2  0  0  0  0  0  0  0  0  0
   -3.7440   -9.3740   40.8180 O   0  0  0  0  0  0  0  0  0  0  0  0
  -13.5070    0.6870   45.5390 C   0  0  2  0  0  0  0  0  0  0  0  0
   -5.0180  -11.0960   38.7400 O   0  0  0  0  0  0  0  0  0  0  0  0
  -13.7930    1.9590   46.3400 C   0  0  0  0  0  0  0  0  0  0  0  0
   -5.9880   -7.8160   37.4740 O   0  0  0  0  0  0  0  0  0  0  0  0
  -13.8100    1.7230   47.8570 C   0  0  0  0  0  0  0  0  0  0  0  0
   -6.8570   -2.9350   40.4280 O   0  0  0  0  0  0  0  0  0  0  0  0
  -12.6380    0.8710   48.3880 C   0  0  2  0  0  0  0  0  0  0  0  0
  -17.5640   -3.8270   39.6160 O   0  0  0  0  0  0  0  0  0  0  0  0
  -11.4950    1.7430   48.9150 C   0  0  0  0  0  0  0  0  0  0  0  0
  -19.5110   -6.0650   40.2680 O   0  0  0  0  0  0  0  0  0  0  0  0
  -14.7480    0.2030   44.7930 C   0  0  0  0  0  0  0  0  0  0  0  0
  -16.1990   -3.0450   44.5020 O   0  0  0  0  0  0  0  0  0  0  0  0
  -14.4100   -1.1200   44.0400 C   0  0  1  0  0  0  0  0  0  0  0  0
  -15.4390   -1.4390   43.0950 O   0  0  0  0  0  0  0  0  0  0  0  0
  -13.1490   -1.0060   43.1850 C   0  0  0  0  0  0  0  0  0  0  0  0
  -15.6930   -5.1790   42.3110 O   0  0  0  0  0  0  0  0  0  0  0  0
  -12.0410   -0.1020   43.8220 C   0  0  2  0  0  0  0  0  0  0  0  0
  -12.5180    1.0440   44.5720 O   0  0  0  0  0  0  0  0  0  0  0  0
  -11.0720    0.3660   42.6870 C   0  0  0  0  0  0  0  0  0  0  0  0
  -10.5620   -0.7360   42.0060 C   0  0  0  0  0  0  0  0  0  0  0  0
   -9.9600   -0.7680   40.7600 C   0  0  0  0  0  0  0  0  0  0  0  0
   -9.7840    0.5210   39.9660 C   0  0  0  0  0  0  0  0  0  0  0  0
   -9.4970   -2.1010   40.1720 C   0  0  2  0  0  0  0  0  0  0  0  0
   -7.7610   -2.9900   41.5640 C   0  0  2  0  0  0  0  0  0  0  0  0
   -7.4280   -4.2230   42.3990 C   0  0  0  0  0  0  0  0  0  0  0  0
   -7.6060   -5.4890   41.5140 C   0  0  1  0  0  0  0  0  0  0  0  0
   -7.2070   -6.7390   43.6140 C   0  0  0  0  0  0  0  0  0  0  0  0
   -6.6160   -5.4660   40.3210 C   0  0  2  0  0  0  0  0  0  0  0  0
   -5.6810   -6.9170   38.6070 C   0  0  2  0  0  0  0  0  0  0  0  0
   -4.5090   -7.4320   39.4500 C   0  0  0  0  0  0  0  0  0  0  0  0
   -4.7940   -8.8820   39.8990 C   0  0  1  0  0  0  0  0  0  0  0  0
   -3.3270   -8.3950   41.8050 C   0  0  0  0  0  0  0  0  0  0  0  0
   -4.9950   -9.6620   38.5650 C   0  0  2  0  0  0  0  0  0  0  0  0
   -6.2770   -9.1720   37.8750 C   0  0  2  0  0  0  0  0  0  0  0  0
   -6.6730  -10.0310   36.6720 C   0  0  0  0  0  0  0  0  0  0  0  0
   -6.8430   -4.1300   39.5540 C   0  0  2  0  0  0  0  0  0  0  0  0
   -5.8230   -3.9520   38.4140 C   0  0  0  0  0  0  0  0  0  0  0  0
  -10.6410   -2.6350   39.2860 C   0  0  1  0  0  0  0  0  0  0  0  0
  -10.1610   -3.7380   38.3460 C   0  0  0  0  0  0  0  0  0  0  0  0
  -11.7750   -3.1840   40.1460 C   0  0  0  0  0  0  0  0  0  0  0  0
  -13.1040   -3.1000   39.7410 C   0  0  0  0  0  0  0  0  0  0  0  0
  -14.0380   -3.6340   40.6180 C   0  0  0  0  0  0  0  0  0  0  0  0
  -15.4110   -3.6240   40.4150 C   0  0  0  0  0  0  0  0  0  0  0  0
  -16.2360   -3.1930   39.3760 C   0  0  0  0  0  0  0  0  0  0  0  0
  -17.3060   -4.9420   40.5080 C   0  0  2  0  0  0  0  0  0  0  0  0
  -18.5240   -5.5900   41.2150 C   0  0  1  0  0  0  0  0  0  0  0  0
  -19.1390   -4.6510   42.2750 C   0  0  0  0  0  0  0  0  0  0  0  0
  -18.4400   -3.5540   42.7730 C   0  0  0  0  0  0  0  0  0  0  0  0
  -17.0630   -3.1160   42.2500 C   0  0  1  0  0  0  0  0  0  0  0  0
  -16.1860   -2.5440   43.3760 C   0  0  0  0  0  0  0  0  0  0  0  0
  -16.3430   -4.2380   41.4550 C   0  0  1  0  0  0  0  0  0  0  0  0
  -20.5090   -4.9820   42.8730 C   0  0  0  0  0  0  0  0  0  0  0  0
  -11.0819   -1.9886   46.0607 H   0  0  0  0  0  0  0  0  0  0  0  0
  -11.4143   -3.3993   47.0900 H   0  0  0  0  0  0  0  0  0  0  0  0
  -11.1643   -1.2934   48.8862 H   0  0  0  0  0  0  0  0  0  0  0  0
  -11.2376    0.2290   46.8724 H   0  0  0  0  0  0  0  0  0  0  0  0
  -13.0209    2.6937   46.1118 H   0  0  0  0  0  0  0  0  0  0  0  0
  -14.7603    2.3578   46.0345 H   0  0  0  0  0  0  0  0  0  0  0  0
  -13.7764    2.6934   48.3523 H   0  0  0  0  0  0  0  0  0  0  0  0
  -14.7456    1.2302   48.1215 H   0  0  0  0  0  0  0  0  0  0  0  0
  -13.0200    0.3056   49.2380 H   0  0  0  0  0  0  0  0  0  0  0  0
  -15.5535    0.0217   45.5047 H   0  0  0  0  0  0  0  0  0  0  0  0
  -15.0602    0.9613   44.0749 H   0  0  0  0  0  0  0  0  0  0  0  0
  -14.2993   -1.9349   44.7554 H   0  0  0  0  0  0  0  0  0  0  0  0
  -12.7382   -2.0054   43.0417 H   0  0  0  0  0  0  0  0  0  0  0  0
  -13.4205   -0.5955   42.2124 H   0  0  0  0  0  0  0  0  0  0  0  0
  -11.4654   -0.7244   44.5071 H   0  0  0  0  0  0  0  0  0  0  0  0
  -10.8330    1.3953   42.4638 H   0  0  0  0  0  0  0  0  0  0  0  0
  -10.6467   -1.6854   42.5138 H   0  0  0  0  0  0  0  0  0  0  0  0
   -8.6195   -1.9268   39.5493 H   0  0  0  0  0  0  0  0  0  0  0  0
   -7.5964   -2.1043   42.1777 H   0  0  0  0  0  0  0  0  0  0  0  0
   -8.0995   -4.2775   43.2559 H   0  0  0  0  0  0  0  0  0  0  0  0
   -6.3966   -4.1617   42.7462 H   0  0  0  0  0  0  0  0  0  0  0  0
   -8.6067   -5.4284   41.0861 H   0  0  0  0  0  0  0  0  0  0  0  0
   -5.5997   -5.4702   40.7149 H   0  0  0  0  0  0  0  0  0  0  0  0
   -5.3831   -5.9557   38.1883 H   0  0  0  0  0  0  0  0  0  0  0  0
   -3.5961   -7.4091   38.8548 H   0  0  0  0  0  0  0  0  0  0  0  0
   -4.3864   -6.7974   40.3277 H   0  0  0  0  0  0  0  0  0  0  0  0
   -5.7416   -8.8871   40.4376 H   0  0  0  0  0  0  0  0  0  0  0  0
   -4.1558   -9.4221   37.9121 H   0  0  0  0  0  0  0  0  0  0  0  0
   -7.0937   -9.1667   38.5968 H   0  0  0  0  0  0  0  0  0  0  0  0
   -7.8274   -4.1946   39.0905 H   0  0  0  0  0  0  0  0  0  0  0  0
  -11.0281   -1.8117   38.6857 H   0  0  0  0  0  0  0  0  0  0  0  0
  -11.5410   -3.6492   41.0922 H   0  0  0  0  0  0  0  0  0  0  0  0
  -13.3905   -2.6476   38.8031 H   0  0  0  0  0  0  0  0  0  0  0  0
  -13.6694   -4.0907   41.5246 H   0  0  0  0  0  0  0  0  0  0  0  0
  -15.9675   -2.5343   38.5633 H   0  0  0  0  0  0  0  0  0  0  0  0
  -16.7633   -5.7133   39.9615 H   0  0  0  0  0  0  0  0  0  0  0  0
  -18.1509   -6.4650   41.7472 H   0  0  0  0  0  0  0  0  0  0  0  0
  -18.8900   -2.9803   43.5697 H   0  0  0  0  0  0  0  0  0  0  0  0
  -17.2406   -2.3011   41.5482 H   0  0  0  0  0  0  0  0  0  0  0  0
  -10.9577   -3.9927   37.6471 H   0  0  0  0  0  0  0  0  0  0  0  0
   -9.2897   -3.3891   37.7918 H   0  0  0  0  0  0  0  0  0  0  0  0
   -9.8924   -4.6198   38.9277 H   0  0  0  0  0  0  0  0  0  0  0  0
   -7.1400   -7.7542   44.0050 H   0  0  0  0  0  0  0  0  0  0  0  0
   -6.2529   -6.2314   43.7562 H   0  0  0  0  0  0  0  0  0  0  0  0
   -7.9897   -6.1964   44.1441 H   0  0  0  0  0  0  0  0  0  0  0  0
   -4.7296  -11.5220   37.9295 H   0  0  0  0  0  0  0  0  0  0  0  0
   -8.9805   -3.0752   46.7843 H   0  0  0  0  0  0  0  0  0  0  0  0
   -9.1124   -1.4311   47.4529 H   0  0  0  0  0  0  0  0  0  0  0  0
   -9.4436   -2.8415   48.4870 H   0  0  0  0  0  0  0  0  0  0  0  0
  -15.0917   -4.7156   42.8986 H   0  0  0  0  0  0  0  0  0  0  0  0
  -11.8868    2.4585   49.6380 H   0  0  0  0  0  0  0  0  0  0  0  0
  -10.7489    1.1113   49.3971 H   0  0  0  0  0  0  0  0  0  0  0  0
  -11.0352    2.2797   48.0852 H   0  0  0  0  0  0  0  0  0  0  0  0
  -20.7839   -4.2164   43.5985 H   0  0  0  0  0  0  0  0  0  0  0  0
  -20.4643   -5.9520   43.3681 H   0  0  0  0  0  0  0  0  0  0  0  0
  -21.2543   -5.0137   42.0782 H   0  0  0  0  0  0  0  0  0  0  0  0
   -2.8879   -8.9063   42.6617 H   0  0  0  0  0  0  0  0  0  0  0  0
   -2.5881   -7.7263   41.3634 H   0  0  0  0  0  0  0  0  0  0  0  0
   -4.1916   -7.8167   42.1310 H   0  0  0  0  0  0  0  0  0  0  0  0
  -13.5991   -1.5915   49.2194 H   0  0  0  0  0  0  0  0  0  0  0  0
  -12.7405   -3.1433   49.0707 H   0  0  0  0  0  0  0  0  0  0  0  0
  -13.6819   -2.5121   47.6983 H   0  0  0  0  0  0  0  0  0  0  0  0
   -9.2916    0.3006   39.0189 H   0  0  0  0  0  0  0  0  0  0  0  0
   -9.1738    1.2196   40.5385 H   0  0  0  0  0  0  0  0  0  0  0  0
  -10.7605    0.9651   39.7731 H   0  0  0  0  0  0  0  0  0  0  0  0
   -7.5858   -9.6350   36.2269 H   0  0  0  0  0  0  0  0  0  0  0  0
   -5.8715  -10.0131   35.9335 H   0  0  0  0  0  0  0  0  0  0  0  0
   -6.8434  -11.0569   36.9984 H   0  0  0  0  0  0  0  0  0  0  0  0
  -19.8277   -5.3286   39.7398 H   0  0  0  0  0  0  0  0  0  0  0  0
   -5.7271   -2.8932   38.1736 H   0  0  0  0  0  0  0  0  0  0  0  0
   -4.8550   -4.3420   38.7287 H   0  0  0  0  0  0  0  0  0  0  0  0
   -6.1645   -4.4952   37.5328 H   0  0  0  0  0  0  0  0  0  0  0  0
  1  3  1  0  0  0  0
  2  9  1  0  0  0  0
  3  5  1  0  0  0  0
  4 33  1  0  0  0  0
  4 34  1  0  0  0  0
  5  7  1  0  0  0  0
  5  9  1  0  0  0  0
  5 65  1  1  0  0  0
  6 36  1  0  0  0  0
  6 37  1  0  0  0  0
  8 38  1  0  0  0  0
  8 39  1  0  0  0  0
  9 17  1  0  0  0  0
  9 66  1  6  0  0  0
 10 41  1  0  0  0  0
 10 42  1  0  0  0  0
 11  2  1  1  0  0  0
 11 13  1  0  0  0  0
 11 21  1  0  0  0  0
 11 28  1  0  0  0  0
 12 43  1  0  0  0  0
 13 15  1  0  0  0  0
 14 39  1  0  0  0  0
 14 44  1  0  0  0  0
 15 17  1  0  0  0  0
 16 34  1  0  0  0  0
 16 46  1  0  0  0  0
 17 19  1  0  0  0  0
 17 71  1  1  0  0  0
 18 54  1  0  0  0  0
 18 55  1  0  0  0  0
 20 56  1  0  0  0  0
 21 23  1  0  0  0  0
 22 60  2  0  0  0  0
 23 24  1  0  0  0  0
 23 25  1  0  0  0  0
 23 74  1  1  0  0  0
 24 60  1  0  0  0  0
 25 27  1  0  0  0  0
 27 28  1  0  0  0  0
 27 29  1  0  0  0  0
 27 77  1  1  0  0  0
 29 30  2  0  0  0  0
 30 31  2  0  0  0  0
 31 32  1  0  0  0  0
 31 33  1  0  0  0  0
 33 48  1  0  0  0  0
 33 80  1  6  0  0  0
 34 35  1  0  0  0  0
 34 81  1  1  0  0  0
 35 36  1  0  0  0  0
 36 38  1  0  0  0  0
 36 84  1  6  0  0  0
 38 46  1  0  0  0  0
 38 85  1  1  0  0  0
 39 40  1  0  0  0  0
 39 86  1  6  0  0  0
 40 41  1  0  0  0  0
 41 43  1  0  0  0  0
 41 89  1  1  0  0  0
 43 44  1  0  0  0  0
 43 90  1  6  0  0  0
 44 45  1  0  0  0  0
 44 91  1  1  0  0  0
 46 47  1  0  0  0  0
 46 92  1  6  0  0  0
 48 49  1  0  0  0  0
 48 50  1  0  0  0  0
 48 93  1  6  0  0  0
 50 51  2  0  0  0  0
 51 52  2  0  0  0  0
 52 53  2  0  0  0  0
 53 54  2  0  0  0  0
 53 61  1  0  0  0  0
 55 56  1  0  0  0  0
 55 61  1  0  0  0  0
 55 98  1  6  0  0  0
 56 57  1  0  0  0  0
 56 99  1  1  0  0  0
 57 58  2  0  0  0  0
 57 62  1  0  0  0  0
 58 59  1  0  0  0  0
 59 60  1  0  0  0  0
 59 61  1  0  0  0  0
 59101  1  6  0  0  0
 61 26  1  1  0  0  0
 63  3  1  0  0  0  0
 64  3  1  0  0  0  0
 67 13  1  0  0  0  0
 68 13  1  0  0  0  0
 69 15  1  0  0  0  0
 70 15  1  0  0  0  0
 72 21  1  0  0  0  0
 73 21  1  0  0  0  0
 75 25  1  0  0  0  0
 76 25  1  0  0  0  0
 78 29  1  0  0  0  0
 79 30  1  0  0  0  0
 82 35  1  0  0  0  0
 83 35  1  0  0  0  0
 87 40  1  0  0  0  0
 88 40  1  0  0  0  0
 94 50  1  0  0  0  0
 95 51  1  0  0  0  0
 96 52  1  0  0  0  0
 97 54  1  0  0  0  0
100 58  1  0  0  0  0
102 49  1  0  0  0  0
103 49  1  0  0  0  0
104 49  1  0  0  0  0
105 37  1  0  0  0  0
106 37  1  0  0  0  0
107 37  1  0  0  0  0
108 12  1  0  0  0  0
109  1  1  0  0  0  0
110  1  1  0  0  0  0
111  1  1  0  0  0  0
112 26  1  0  0  0  0
113 19  1  0  0  0  0
114 19  1  0  0  0  0
115 19  1  0  0  0  0
116 62  1  0  0  0  0
117 62  1  0  0  0  0
118 62  1  0  0  0  0
119 42  1  0  0  0  0
120 42  1  0  0  0  0
121 42  1  0  0  0  0
122  7  1  0  0  0  0
123  7  1  0  0  0  0
124  7  1  0  0  0  0
125 32  1  0  0  0  0
126 32  1  0  0  0  0
127 32  1  0  0  0  0
128 45  1  0  0  0  0
129 45  1  0  0  0  0
130 45  1  0  0  0  0
131 20  1  0  0  0  0
132 47  1  0  0  0  0
133 47  1  0  0  0  0
134 47  1  0  0  0  0
M  END
$$$$
> 855_AKC_OUB
>OUB.sdf
 OpenBabel10102219483D

 85 90  0  0  1  0  0  0  0  0999 V2000
  -58.3830   83.0450  -48.4230 C   0  0  2  0  0  0  0  0  0  0  0  0
  -59.5850   82.1370  -48.1510 C   0  0  0  0  0  0  0  0  0  0  0  0
  -59.2280   81.2020  -47.0110 C   0  0  1  0  0  0  0  0  0  0  0  0
  -58.0680   80.3240  -47.4350 C   0  0  0  0  0  0  0  0  0  0  0  0
  -56.8520   81.1650  -47.8350 C   0  0  1  0  0  0  0  0  0  0  0  0
  -55.7500   80.1990  -48.2360 C   0  0  0  0  0  0  0  0  0  0  0  0
  -56.1230   79.5240  -49.5440 C   0  0  0  0  0  0  0  0  0  0  0  0
  -56.2780   80.5990  -50.6250 C   0  0  2  0  0  0  0  0  0  0  0  0
  -57.3930   81.6310  -50.3170 C   0  0  1  0  0  0  0  0  0  0  0  0
  -57.1500   82.2530  -48.9050 C   0  0  1  0  0  0  0  0  0  0  0  0
  -57.5600   82.6150  -51.5090 C   0  0  1  0  0  0  0  0  0  0  0  0
  -57.7410   81.8590  -52.8180 C   0  0  0  0  0  0  0  0  0  0  0  0
  -56.5390   80.9830  -53.1540 C   0  0  1  0  0  0  0  0  0  0  0  0
  -56.2440   79.9740  -52.0300 C   0  0  2  0  0  0  0  0  0  0  0  0
  -57.2250   78.8250  -52.2460 C   0  0  0  0  0  0  0  0  0  0  0  0
  -57.4390   78.7510  -53.7480 C   0  0  0  0  0  0  0  0  0  0  0  0
  -56.9570   80.0790  -54.3210 C   0  0  2  0  0  0  0  0  0  0  0  0
  -55.3500   81.9110  -53.4430 C   0  0  0  0  0  0  0  0  0  0  0  0
  -55.9110   83.1690  -49.0120 C   0  0  0  0  0  0  0  0  0  0  0  0
  -55.8840   79.8370  -55.3460 C   0  0  0  0  0  0  0  0  0  0  0  0
  -54.6350   78.9880  -55.1290 C   0  0  0  0  0  0  0  0  0  0  0  0
  -55.9320   80.4240  -56.5450 C   0  0  0  0  0  0  0  0  0  0  0  0
  -54.7500   79.9410  -57.2640 C   0  0  0  0  0  0  0  0  0  0  0  0
  -58.7570   81.6290  -44.5850 C   0  0  2  0  0  0  0  0  0  0  0  0
  -59.3100   82.7470  -43.6970 C   0  0  1  0  0  0  0  0  0  0  0  0
  -60.8200   82.9260  -43.8920 C   0  0  1  0  0  0  0  0  0  0  0  0
  -61.6370   81.6630  -43.6320 C   0  0  2  0  0  0  0  0  0  0  0  0
  -60.9740   80.5060  -44.3800 C   0  0  2  0  0  0  0  0  0  0  0  0
  -61.4510   79.2020  -43.7690 C   0  0  0  0  0  0  0  0  0  0  0  0
  -58.0900   83.7960  -47.2290 O   0  0  0  0  0  0  0  0  0  0  0  0
  -58.8400   82.0760  -45.9420 O   0  0  0  0  0  0  0  0  0  0  0  0
  -56.3710   81.8530  -46.6810 O   0  0  0  0  0  0  0  0  0  0  0  0
  -58.6570   83.5430  -51.4300 O   0  0  0  0  0  0  0  0  0  0  0  0
  -54.9480   79.3860  -52.1840 O   0  0  0  0  0  0  0  0  0  0  0  0
  -56.2670   84.5600  -49.0510 O   0  0  0  0  0  0  0  0  0  0  0  0
  -53.9290   79.1650  -56.3590 O   0  0  0  0  0  0  0  0  0  0  0  0
  -54.4730   80.1460  -58.4360 O   0  0  0  0  0  0  0  0  0  0  0  0
  -58.9880   82.5010  -42.3190 O   0  0  0  0  0  0  0  0  0  0  0  0
  -61.2360   84.0780  -43.1280 O   0  0  0  0  0  0  0  0  0  0  0  0
  -62.9740   81.9160  -44.1100 O   0  0  0  0  0  0  0  0  0  0  0  0
  -59.5210   80.4380  -44.3680 O   0  0  0  0  0  0  0  0  0  0  0  0
  -58.6610   83.7495  -49.2069 H   0  0  0  0  0  0  0  0  0  0  0  0
  -59.8180   81.5569  -49.0439 H   0  0  0  0  0  0  0  0  0  0  0  0
  -60.4469   82.7431  -47.8721 H   0  0  0  0  0  0  0  0  0  0  0  0
  -60.0873   80.5962  -46.7234 H   0  0  0  0  0  0  0  0  0  0  0  0
  -58.3751   79.7164  -48.2863 H   0  0  0  0  0  0  0  0  0  0  0  0
  -57.7939   79.6690  -46.6080 H   0  0  0  0  0  0  0  0  0  0  0  0
  -54.8155   80.7457  -48.3625 H   0  0  0  0  0  0  0  0  0  0  0  0
  -55.6275   79.4442  -47.4592 H   0  0  0  0  0  0  0  0  0  0  0  0
  -55.3384   78.8245  -49.8324 H   0  0  0  0  0  0  0  0  0  0  0  0
  -57.0645   78.9881  -49.4235 H   0  0  0  0  0  0  0  0  0  0  0  0
  -55.3547   81.1752  -50.5650 H   0  0  0  0  0  0  0  0  0  0  0  0
  -58.3239   81.0679  -50.2496 H   0  0  0  0  0  0  0  0  0  0  0  0
  -56.6413   83.1962  -51.5881 H   0  0  0  0  0  0  0  0  0  0  0  0
  -58.6241   81.2253  -52.7369 H   0  0  0  0  0  0  0  0  0  0  0  0
  -57.8927   82.5770  -53.6240 H   0  0  0  0  0  0  0  0  0  0  0  0
  -56.8045   77.8904  -51.8748 H   0  0  0  0  0  0  0  0  0  0  0  0
  -58.1683   79.0377  -51.7429 H   0  0  0  0  0  0  0  0  0  0  0  0
  -58.4962   78.6067  -53.9707 H   0  0  0  0  0  0  0  0  0  0  0  0
  -56.8553   77.9313  -54.1670 H   0  0  0  0  0  0  0  0  0  0  0  0
  -57.8002   80.5516  -54.8247 H   0  0  0  0  0  0  0  0  0  0  0  0
  -55.2700   82.9948  -48.1477 H   0  0  0  0  0  0  0  0  0  0  0  0
  -55.3607   82.9177  -49.9187 H   0  0  0  0  0  0  0  0  0  0  0  0
  -54.0520   79.3527  -54.2833 H   0  0  0  0  0  0  0  0  0  0  0  0
  -54.9026   77.9409  -54.9874 H   0  0  0  0  0  0  0  0  0  0  0  0
  -56.6833   81.1098  -56.9078 H   0  0  0  0  0  0  0  0  0  0  0  0
  -57.7143   81.4432  -44.3273 H   0  0  0  0  0  0  0  0  0  0  0  0
  -58.8239   83.6771  -43.9914 H   0  0  0  0  0  0  0  0  0  0  0  0
  -60.9687   83.1803  -44.9414 H   0  0  0  0  0  0  0  0  0  0  0  0
  -61.6595   81.4493  -42.5634 H   0  0  0  0  0  0  0  0  0  0  0  0
  -61.3051   80.5371  -45.4180 H   0  0  0  0  0  0  0  0  0  0  0  0
  -57.5912   84.5831  -47.4598 H   0  0  0  0  0  0  0  0  0  0  0  0
  -56.9746   82.5654  -46.4579 H   0  0  0  0  0  0  0  0  0  0  0  0
  -55.5102   85.0914  -48.7930 H   0  0  0  0  0  0  0  0  0  0  0  0
  -60.9876   78.3647  -44.2908 H   0  0  0  0  0  0  0  0  0  0  0  0
  -62.5348   79.1326  -43.8617 H   0  0  0  0  0  0  0  0  0  0  0  0
  -61.1738   79.1717  -42.7153 H   0  0  0  0  0  0  0  0  0  0  0  0
  -54.4724   81.3126  -53.6873 H   0  0  0  0  0  0  0  0  0  0  0  0
  -55.1414   82.5188  -52.5625 H   0  0  0  0  0  0  0  0  0  0  0  0
  -55.5923   82.5608  -54.2839 H   0  0  0  0  0  0  0  0  0  0  0  0
  -58.3586   84.3564  -51.0165 H   0  0  0  0  0  0  0  0  0  0  0  0
  -54.5393   79.2808  -51.3217 H   0  0  0  0  0  0  0  0  0  0  0  0
  -58.0344   82.4634  -42.2152 H   0  0  0  0  0  0  0  0  0  0  0  0
  -62.1808   84.2096  -43.2355 H   0  0  0  0  0  0  0  0  0  0  0  0
  -63.5193   81.1398  -43.9625 H   0  0  0  0  0  0  0  0  0  0  0  0
  1  2  1  0  0  0  0
  1 10  1  0  0  0  0
  1 30  1  0  0  0  0
  1 42  1  6  0  0  0
  2  3  1  0  0  0  0
  3  4  1  0  0  0  0
  3 31  1  0  0  0  0
  3 45  1  1  0  0  0
  4  5  1  0  0  0  0
  5  6  1  0  0  0  0
  5 10  1  0  0  0  0
  5 32  1  1  0  0  0
  6  7  1  0  0  0  0
  7  8  1  0  0  0  0
  8  9  1  0  0  0  0
  8 14  1  0  0  0  0
  8 52  1  1  0  0  0
  9 10  1  0  0  0  0
  9 11  1  0  0  0  0
  9 53  1  1  0  0  0
 10 19  1  6  0  0  0
 11 12  1  0  0  0  0
 11 33  1  0  0  0  0
 11 54  1  6  0  0  0
 12 13  1  0  0  0  0
 13 14  1  0  0  0  0
 13 17  1  0  0  0  0
 13 18  1  6  0  0  0
 14 15  1  0  0  0  0
 14 34  1  6  0  0  0
 15 16  1  0  0  0  0
 16 17  1  0  0  0  0
 17 20  1  0  0  0  0
 17 61  1  6  0  0  0
 19 35  1  0  0  0  0
 20 21  1  0  0  0  0
 20 22  2  0  0  0  0
 21 36  1  0  0  0  0
 22 23  2  0  0  0  0
 23 36  1  0  0  0  0
 23 37  2  0  0  0  0
 24 25  1  0  0  0  0
 24 31  1  0  0  0  0
 24 41  1  0  0  0  0
 24 67  1  1  0  0  0
 25 26  1  0  0  0  0
 25 38  1  0  0  0  0
 25 68  1  6  0  0  0
 26 27  1  0  0  0  0
 26 39  1  0  0  0  0
 26 69  1  6  0  0  0
 27 28  1  0  0  0  0
 27 40  1  0  0  0  0
 27 70  1  1  0  0  0
 28 29  1  0  0  0  0
 28 41  1  0  0  0  0
 28 71  1  6  0  0  0
 43  2  1  0  0  0  0
 44  2  1  0  0  0  0
 46  4  1  0  0  0  0
 47  4  1  0  0  0  0
 48  6  1  0  0  0  0
 49  6  1  0  0  0  0
 50  7  1  0  0  0  0
 51  7  1  0  0  0  0
 55 12  1  0  0  0  0
 56 12  1  0  0  0  0
 57 15  1  0  0  0  0
 58 15  1  0  0  0  0
 59 16  1  0  0  0  0
 60 16  1  0  0  0  0
 62 19  1  0  0  0  0
 63 19  1  0  0  0  0
 64 21  1  0  0  0  0
 65 21  1  0  0  0  0
 66 22  1  0  0  0  0
 72 30  1  0  0  0  0
 73 32  1  0  0  0  0
 74 35  1  0  0  0  0
 75 29  1  0  0  0  0
 76 29  1  0  0  0  0
 77 29  1  0  0  0  0
 78 18  1  0  0  0  0
 79 18  1  0  0  0  0
 80 18  1  0  0  0  0
 81 33  1  0  0  0  0
 82 34  1  0  0  0  0
 83 38  1  0  0  0  0
 84 39  1  0  0  0  0
 85 40  1  0  0  0  0
M  END
$$$$
