@<TRIPOS>MOLECULE
mol_389_akc_jparint201506011
>374.sdf
 47 51 0 0 0
SMALL
GASTEIGER

@<TRIPOS>ATOM
      1 C           4.6315    2.0736   -2.7695 C.3     1  UNL1       -0.0613
      2 C           4.0965    0.9129   -1.9317 C.3     1  UNL1       -0.0305
      3 C           3.1302    1.4444   -0.9028 C.ar    1  UNL1       -0.0472
      4 C           1.8019    1.7300   -1.2558 C.ar    1  UNL1       -0.0531
      5 C           1.0154    2.5582   -0.4460 C.ar    1  UNL1       -0.0185
      6 C           1.6099    3.1339    0.6968 C.ar    1  UNL1        0.0314
      7 N           1.0414    4.2455    1.3591 N.pl3   1  UNL1       -0.3350
      8 C           0.1760    5.0079    0.4451 C.3     1  UNL1        0.0668
      9 C          -0.9699    4.1248   -0.0430 C.3     1  UNL1       -0.0022
     10 C          -1.8342    3.4659    1.0546 C.3     1  UNL1       -0.0217
     11 C          -2.2896    2.2310    0.3465 C.ar    1  UNL1       -0.0432
     12 C          -3.3779    1.4279    0.6665 C.ar    1  UNL1       -0.0583
     13 C          -3.6656    0.3449   -0.1639 C.ar    1  UNL1       -0.0615
     14 C          -2.8668    0.0724   -1.2831 C.ar    1  UNL1       -0.0615
     15 C          -1.7532    0.8652   -1.5788 C.ar    1  UNL1       -0.0577
     16 C          -1.4643    1.9429   -0.7499 C.ar    1  UNL1       -0.0364
     17 C          -0.3741    2.9743   -0.9000 C.3     1  UNL1        0.0164
     18 C          -0.2080    6.3850    0.9664 C.ar    1  UNL1        0.0617
     19 N          -1.3287    6.9543    0.4491 N.ar    1  UNL1       -0.2580
     20 C          -1.5213    8.2740    0.6633 C.ar    1  UNL1        0.0279
     21 C          -0.6508    9.0726    1.3815 C.ar    1  UNL1       -0.0436
     22 C           0.4785    8.4812    1.9301 C.ar    1  UNL1       -0.0586
     23 C           0.7091    7.1242    1.7170 C.ar    1  UNL1       -0.0386
     24 C           2.8410    2.6676    1.1597 C.ar    1  UNL1       -0.0403
     25 C           3.6104    1.8373    0.3508 C.ar    1  UNL1       -0.0568
     26 H           5.0518    2.8659   -2.1374 H       1  UNL1        0.0233
     27 H           3.8340    2.5273   -3.3700 H       1  UNL1        0.0233
     28 H           5.4161    1.7338   -3.4506 H       1  UNL1        0.0233
     29 H           3.6043    0.1755   -2.5754 H       1  UNL1        0.0311
     30 H           4.9302    0.4003   -1.4373 H       1  UNL1        0.0311
     31 H           1.4175    1.3923   -2.2143 H       1  UNL1        0.0624
     32 H           0.5920    3.9614    2.2259 H       1  UNL1        0.1467
     33 H           0.7821    5.2706   -0.4386 H       1  UNL1        0.0566
     34 H          -1.6455    4.6982   -0.6940 H       1  UNL1        0.0335
     35 H          -2.6712    4.1127    1.3351 H       1  UNL1        0.0317
     36 H          -1.2844    3.1785    1.9522 H       1  UNL1        0.0317
     37 H          -4.0011    1.6476    1.5264 H       1  UNL1        0.0620
     38 H          -4.5249   -0.2863    0.0528 H       1  UNL1        0.0618
     39 H          -3.1231   -0.7610   -1.9338 H       1  UNL1        0.0618
     40 H          -1.1498    0.6570   -2.4546 H       1  UNL1        0.0621
     41 H          -0.3184    3.3181   -1.9416 H       1  UNL1        0.0401
     42 H          -2.4121    8.6903    0.2015 H       1  UNL1        0.0829
     43 H          -0.8392   10.1337    1.4959 H       1  UNL1        0.0633
     44 H           1.1984    9.0760    2.4844 H       1  UNL1        0.0619
     45 H           1.6256    6.6669    2.0787 H       1  UNL1        0.0636
     46 H           3.2631    3.0593    2.0804 H       1  UNL1        0.0636
     47 H           4.6239    1.5932    0.6588 H       1  UNL1        0.0621
@<TRIPOS>BOND
     1     1    26    1
     2     1    27    1
     3     1    28    1
     4     2     1    1
     5     2    29    1
     6     2    30    1
     7     3     2    1
     8     4     3   ar
     9     4    31    1
    10     5     4   ar
    11     6     5   ar
    12     7     6    1
    13     7    32    1
    14     8     7    1
    15     8    33    1
    16     9     8    1
    17     9    34    1
    18    10     9    1
    19    10    35    1
    20    10    36    1
    21    11    10    1
    22    12    11   ar
    23    12    37    1
    24    13    12   ar
    25    13    38    1
    26    14    13   ar
    27    14    39    1
    28    15    14   ar
    29    15    40    1
    30    16    15   ar
    31    16    11   ar
    32    17    16    1
    33    17     5    1
    34    17     9    1
    35    17    41    1
    36    18     8    1
    37    19    18   ar
    38    20    19   ar
    39    20    42    1
    40    21    20   ar
    41    21    43    1
    42    22    21   ar
    43    22    44    1
    44    23    22   ar
    45    23    18   ar
    46    23    45    1
    47    24     6   ar
    48    24    46    1
    49    25    24   ar
    50    25     3   ar
    51    25    47    1
@<TRIPOS>MOLECULE
mol_38_akc_molecules21060802
>38.sdf
 48 50 0 0 0
SMALL
GASTEIGER

@<TRIPOS>ATOM
      1 C           3.4100    1.8729   -0.9089 C.3     1  UNL1        0.0790
      2 O           4.0820    0.7145   -0.4211 O.3     1  UNL1       -0.4913
      3 C           3.9507   -0.4397   -1.1515 C.ar    1  UNL1        0.1672
      4 C           3.6359   -0.4155   -2.5159 C.ar    1  UNL1        0.0094
      5 C           3.5472   -1.5974   -3.2611 C.ar    1  UNL1        0.0742
      6 C           3.7855   -2.8262   -2.6398 C.ar    1  UNL1        0.0094
      7 C           4.1599   -2.8639   -1.2916 C.ar    1  UNL1        0.1672
      8 O           4.4397   -4.0413   -0.6370 O.3     1  UNL1       -0.4913
      9 C           5.0363   -5.0580   -1.4371 C.3     1  UNL1        0.0790
     10 C           4.2181   -1.6746   -0.5306 C.ar    1  UNL1        0.2036
     11 O           4.6139   -1.8419    0.7761 O.3     1  UNL1       -0.4885
     12 C           4.0907   -0.9315    1.7331 C.3     1  UNL1        0.0791
     13 N           3.2537   -1.5495   -4.6433 N.ar    1  UNL1       -0.2193
     14 C           3.0776   -0.4372   -5.4352 C.ar    1  UNL1        0.0591
     15 C           2.8944   -0.9326   -6.7026 C.ar    1  UNL1        0.1131
     16 N           2.9412   -2.2968   -6.6634 N.ar    1  UNL1       -0.1292
     17 N           3.1487   -2.6658   -5.4050 N.ar    1  UNL1       -0.0602
     18 C           2.7511   -0.1435   -7.9076 C.ar    1  UNL1        0.0073
     19 C           3.1346   -0.6949   -9.1383 C.ar    1  UNL1       -0.0070
     20 C           3.0516    0.0430  -10.3306 C.ar    1  UNL1        0.1621
     21 O           3.4197   -0.4740  -11.5448 O.3     1  UNL1       -0.4914
     22 C           3.9238   -1.8037  -11.5862 C.3     1  UNL1        0.0790
     23 C           2.5745    1.3660  -10.2793 C.ar    1  UNL1        0.1615
     24 O           2.4250    2.2677  -11.2991 O.3     1  UNL1       -0.4915
     25 C           2.7837    1.8813  -12.6162 C.3     1  UNL1        0.0790
     26 C           2.1825    1.9075   -9.0466 C.ar    1  UNL1       -0.0157
     27 C           2.2652    1.1642   -7.8713 C.ar    1  UNL1       -0.0488
     28 H           3.9202    2.2815   -1.7877 H       1  UNL1        0.0660
     29 H           2.3574    1.6627   -1.1261 H       1  UNL1        0.0660
     30 H           3.4433    2.6366   -0.1264 H       1  UNL1        0.0660
     31 H           3.4830    0.5386   -3.0025 H       1  UNL1        0.0677
     32 H           3.6890   -3.7480   -3.2068 H       1  UNL1        0.0677
     33 H           4.2753   -5.5836   -2.0224 H       1  UNL1        0.0660
     34 H           5.8220   -4.6572   -2.0876 H       1  UNL1        0.0660
     35 H           5.5008   -5.7857   -0.7649 H       1  UNL1        0.0660
     36 H           4.6945   -0.0199    1.7692 H       1  UNL1        0.0660
     37 H           3.0327   -0.7077    1.5584 H       1  UNL1        0.0660
     38 H           4.1690   -1.4038    2.7172 H       1  UNL1        0.0660
     39 H           3.1437    0.5709   -5.0651 H       1  UNL1        0.0853
     40 H           3.5150   -1.7117   -9.1345 H       1  UNL1        0.0662
     41 H           4.8655   -1.8835  -11.0327 H       1  UNL1        0.0660
     42 H           3.1832   -2.5220  -11.2196 H       1  UNL1        0.0660
     43 H           4.1305   -2.0482  -12.6319 H       1  UNL1        0.0660
     44 H           3.8449    1.6233  -12.6826 H       1  UNL1        0.0660
     45 H           2.1368    1.0772  -12.9794 H       1  UNL1        0.0660
     46 H           2.6233    2.7464  -13.2664 H       1  UNL1        0.0660
     47 H           1.8072    2.9278   -9.0084 H       1  UNL1        0.0655
     48 H           1.9417    1.6242   -6.9418 H       1  UNL1        0.0625
@<TRIPOS>BOND
     1     1    28    1
     2     1    29    1
     3     1    30    1
     4     2     1    1
     5     3     2    1
     6     4     3   ar
     7     4    31    1
     8     5     4   ar
     9     6     5   ar
    10     6    32    1
    11     7     6   ar
    12     8     7    1
    13     9     8    1
    14     9    33    1
    15     9    34    1
    16     9    35    1
    17    10     7   ar
    18    10     3   ar
    19    11    10    1
    20    12    11    1
    21    12    36    1
    22    12    37    1
    23    12    38    1
    24    13     5    1
    25    14    13   ar
    26    14    39    1
    27    15    14   ar
    28    16    15   ar
    29    17    16   ar
    30    17    13   ar
    31    18    15    1
    32    19    18   ar
    33    19    40    1
    34    20    19   ar
    35    21    20    1
    36    22    21    1
    37    22    41    1
    38    22    42    1
    39    22    43    1
    40    23    20   ar
    41    24    23    1
    42    25    24    1
    43    25    44    1
    44    25    45    1
    45    25    46    1
    46    26    23   ar
    47    26    47    1
    48    27    26   ar
    49    27    18   ar
    50    27    48    1
@<TRIPOS>MOLECULE
mol_390_akc_s00436_015_4708_4
>375.sdf
 67 72 0 0 0
SMALL
GASTEIGER

@<TRIPOS>ATOM
      1 C           5.6879    1.2133   -8.9002 C.3     1  UNL1        0.0791
      2 O           6.0105   -0.1729   -8.8466 O.3     1  UNL1       -0.4883
      3 C           5.6878   -0.8330   -7.6672 C.ar    1  UNL1        0.2107
      4 C           6.4299   -1.8684   -7.2395 C.ar    1  UNL1        0.1810
      5 O           6.1731   -2.6252   -6.1133 O.2     1  UNL1       -0.4502
      6 C           5.2326   -2.1916   -5.2050 C.ar    1  UNL1        0.1509
      7 C           5.2438   -2.7904   -3.9140 C.ar    1  UNL1        0.0296
      8 C           4.2775   -2.3095   -3.0101 C.ar    1  UNL1       -0.0469
      9 C           3.3078   -1.3723   -3.3680 C.ar    1  UNL1       -0.0187
     10 C           3.3413   -0.7940   -4.6283 C.ar    1  UNL1        0.1314
     11 O           2.4221    0.1699   -4.9211 O.3     1  UNL1       -0.5059
     12 C           4.3250   -1.1740   -5.5481 C.ar    1  UNL1        0.1095
     13 C           4.4706   -0.4991   -6.8635 C.ar    1  UNL1        0.2381
     14 O           3.6451    0.3088   -7.2702 O.2     1  UNL1       -0.2830
     15 C           6.2303   -3.8464   -3.4703 C.ar    1  UNL1        0.0415
     16 C           7.6106   -3.7699   -3.7821 C.ar    1  UNL1        0.1669
     17 O           8.2217   -2.7118   -4.4171 O.3     1  UNL1       -0.5029
     18 C           8.5154   -4.7778   -3.4237 C.ar    1  UNL1        0.1589
     19 O           9.8199   -4.6875   -3.8274 O.3     1  UNL1       -0.5033
     20 C           8.1247   -5.8660   -2.6743 C.ar    1  UNL1       -0.0158
     21 C           6.7934   -5.9600   -2.2885 C.ar    1  UNL1       -0.0467
     22 C           5.8432   -4.9866   -2.6838 C.ar    1  UNL1        0.0326
     23 C           4.4495   -5.2679   -2.2521 C.ar    1  UNL1        0.1815
     24 C           3.5960   -5.9405   -3.0445 C.ar    1  UNL1        0.2107
     25 O           4.0611   -6.4783   -4.2373 O.3     1  UNL1       -0.4883
     26 C           3.1209   -6.6737   -5.2821 C.3     1  UNL1        0.0791
     27 C           2.1911   -6.1112   -2.5515 C.ar    1  UNL1        0.2381
     28 O           1.3543   -6.7407   -3.1960 O.2     1  UNL1       -0.2830
     29 C           1.8456   -5.4768   -1.2561 C.ar    1  UNL1        0.1092
     30 C           0.5434   -5.4648   -0.7218 C.ar    1  UNL1        0.1348
     31 O          -0.4964   -6.0413   -1.3954 O.3     1  UNL1       -0.5058
     32 C           0.2749   -4.8457    0.5038 C.ar    1  UNL1        0.0223
     33 C           1.3129   -4.2320    1.1948 C.ar    1  UNL1        0.1239
     34 O           1.0998   -3.6039    2.3857 O.3     1  UNL1       -0.5065
     35 C           2.6058   -4.2338    0.6851 C.ar    1  UNL1        0.0231
     36 C           2.8686   -4.8568   -0.5394 C.ar    1  UNL1        0.1465
     37 O           4.1650   -4.8010   -0.9823 O.2     1  UNL1       -0.4506
     38 C           7.6108   -2.3415   -7.9835 C.ar    1  UNL1        0.0247
     39 C           7.4602   -3.3585   -8.9409 C.ar    1  UNL1       -0.0473
     40 C           8.5634   -3.8487   -9.6472 C.ar    1  UNL1       -0.0159
     41 C           9.8208   -3.3177   -9.3913 C.ar    1  UNL1        0.1583
     42 O          10.9379   -3.7596  -10.0431 O.3     1  UNL1       -0.5033
     43 C           9.9773   -2.3071   -8.4458 C.ar    1  UNL1        0.1589
     44 O          11.2219   -1.7976   -8.2015 O.3     1  UNL1       -0.5033
     45 C           8.8855   -1.8097   -7.7408 C.ar    1  UNL1       -0.0057
     46 H           4.6231    1.3649   -9.0952 H       1  UNL1        0.0660
     47 H           6.0071    1.7383   -7.9935 H       1  UNL1        0.0660
     48 H           6.2270    1.6478   -9.7479 H       1  UNL1        0.0660
     49 H           4.2669   -2.6472   -1.9790 H       1  UNL1        0.0626
     50 H           2.5594   -1.0854   -2.6340 H       1  UNL1        0.0654
     51 H           1.7757    0.2598   -4.2033 H       1  UNL1        0.2922
     52 H           7.5446   -2.0807   -4.7021 H       1  UNL1        0.2923
     53 H           9.8454   -3.8794   -4.3814 H       1  UNL1        0.2923
     54 H           8.8462   -6.6269   -2.3949 H       1  UNL1        0.0655
     55 H           6.4863   -6.8165   -1.6901 H       1  UNL1        0.0626
     56 H           2.4716   -7.5290   -5.0788 H       1  UNL1        0.0660
     57 H           2.5477   -5.7616   -5.4738 H       1  UNL1        0.0660
     58 H           3.6856   -6.9154   -6.1879 H       1  UNL1        0.0660
     59 H          -1.3077   -6.0273   -0.8644 H       1  UNL1        0.2922
     60 H          -0.7325   -4.8343    0.9057 H       1  UNL1        0.0691
     61 H           0.1681   -3.7074    2.6461 H       1  UNL1        0.2921
     62 H           3.4044   -3.7453    1.2378 H       1  UNL1        0.0691
     63 H           6.4758   -3.7769   -9.1370 H       1  UNL1        0.0626
     64 H           8.4187   -4.6360  -10.3794 H       1  UNL1        0.0655
     65 H          10.6714   -4.4682  -10.6538 H       1  UNL1        0.2923
     66 H          11.8101   -2.2980   -8.8006 H       1  UNL1        0.2923
     67 H           9.0409   -1.0224   -7.0090 H       1  UNL1        0.0662
@<TRIPOS>BOND
     1     1    46    1
     2     1    47    1
     3     1    48    1
     4     2     1    1
     5     3     2    1
     6     4     3   ar
     7     5     4   ar
     8     6     5   ar
     9     7     6   ar
    10     8     7   ar
    11     8    49    1
    12     9     8   ar
    13     9    50    1
    14    10     9   ar
    15    11    10    1
    16    11    51    1
    17    12    10   ar
    18    12     6   ar
    19    13    12   ar
    20    13     3   ar
    21    14    13    2
    22    15     7    1
    23    16    15   ar
    24    17    16    1
    25    17    52    1
    26    18    16   ar
    27    19    18    1
    28    19    53    1
    29    20    18   ar
    30    20    54    1
    31    21    20   ar
    32    21    55    1
    33    22    21   ar
    34    22    15   ar
    35    23    22    1
    36    24    23   ar
    37    25    24    1
    38    26    25    1
    39    26    56    1
    40    26    57    1
    41    26    58    1
    42    27    24   ar
    43    28    27    2
    44    29    27   ar
    45    30    29   ar
    46    31    30    1
    47    31    59    1
    48    32    30   ar
    49    32    60    1
    50    33    32   ar
    51    34    33    1
    52    34    61    1
    53    35    33   ar
    54    35    62    1
    55    36    35   ar
    56    36    29   ar
    57    37    36   ar
    58    37    23   ar
    59    38     4    1
    60    39    38   ar
    61    39    63    1
    62    40    39   ar
    63    40    64    1
    64    41    40   ar
    65    42    41    1
    66    42    65    1
    67    43    41   ar
    68    44    43    1
    69    44    66    1
    70    45    43   ar
    71    45    38   ar
    72    45    67    1
@<TRIPOS>MOLECULE
mol_391_akc_jejmech201509002
>376.sdf
 46 49 0 0 0
SMALL
GASTEIGER

@<TRIPOS>ATOM
      1 F           0.6541   -4.3045   -2.3240 F       1  UNL1       -0.2055
      2 C          -0.4245   -3.5963   -1.9670 C.ar    1  UNL1        0.1234
      3 C          -0.5410   -2.2757   -2.3760 C.ar    1  UNL1       -0.0258
      4 C          -1.6688   -1.5386   -2.0017 C.ar    1  UNL1       -0.0498
      5 C          -2.7098   -2.1271   -1.2641 C.ar    1  UNL1        0.0031
      6 C          -2.5461   -3.4541   -0.8316 C.ar    1  UNL1       -0.0498
      7 C          -1.4045   -4.1866   -1.1822 C.ar    1  UNL1       -0.0258
      8 C          -3.9286   -1.4006   -0.9254 C.ar    1  UNL1        0.1033
      9 C          -4.6385   -0.4833   -1.6948 C.ar    1  UNL1        0.1126
     10 I          -4.3472    0.0924   -3.6513 I       1  UNL1       -0.0212
     11 N          -5.7102   -0.1100   -0.9207 N.ar    1  UNL1       -0.2900
     12 C          -6.7662    0.7615   -1.1218 C.ar    1  UNL1        0.0304
     13 C          -7.7424    0.7937   -0.2050 C.ar    1  UNL1        0.0463
     14 N          -7.7845   -0.0261    0.9110 N.ar    1  UNL1       -0.2354
     15 C          -6.7608   -0.8127    1.1558 C.ar    1  UNL1        0.1623
     16 N          -6.7974   -1.6374    2.2690 N.pl3   1  UNL1       -0.3211
     17 C          -8.0033   -1.7357    3.0781 C.3     1  UNL1        0.0506
     18 C          -9.0149   -2.6450    2.3414 C.3     1  UNL1       -0.0159
     19 N          -8.3474   -3.9620    1.9278 N.4     1  UNL1        0.2396
     20 C          -7.9560   -4.8290    3.1149 C.3     1  UNL1       -0.0078
     21 C          -7.3776   -6.1646    2.6419 C.3     1  UNL1        0.0878
     22 O          -8.3039   -6.8474    1.7945 O.3     1  UNL1       -0.3693
     23 C          -8.5712   -6.0930    0.6082 C.3     1  UNL1        0.0878
     24 C          -9.2148   -4.7428    0.9467 C.3     1  UNL1       -0.0078
     25 C          -5.6533   -0.8615    0.2180 C.ar    1  UNL1        0.1794
     26 N          -4.6033   -1.6512    0.2641 N.ar    1  UNL1       -0.2234
     27 H           0.2412   -1.8257   -2.9782 H       1  UNL1        0.0646
     28 H          -1.7065   -0.4915   -2.2958 H       1  UNL1        0.0625
     29 H          -3.3084   -3.9280   -0.2223 H       1  UNL1        0.0625
     30 H          -1.2771   -5.2129   -0.8522 H       1  UNL1        0.0646
     31 H          -6.7689    1.3906   -2.0026 H       1  UNL1        0.0829
     32 H          -8.5793    1.4830   -0.3191 H       1  UNL1        0.0845
     33 H          -5.9043   -1.6687    2.7609 H       1  UNL1        0.1478
     34 H          -7.7512   -2.1689    4.0513 H       1  UNL1        0.0514
     35 H          -8.4453   -0.7536    3.2814 H       1  UNL1        0.0514
     36 H          -9.8858   -2.8865    2.9590 H       1  UNL1        0.0830
     37 H          -9.3509   -2.1727    1.4126 H       1  UNL1        0.0830
     38 H          -7.4776   -3.6784    1.4420 H       1  UNL1        0.2036
     39 H          -8.8683   -4.9809    3.7010 H       1  UNL1        0.0837
     40 H          -7.2120   -4.2843    3.7009 H       1  UNL1        0.0837
     41 H          -7.1822   -6.8046    3.5082 H       1  UNL1        0.0613
     42 H          -6.4292   -6.0243    2.1104 H       1  UNL1        0.0613
     43 H          -7.6411   -5.9642    0.0428 H       1  UNL1        0.0613
     44 H          -9.2566   -6.6830   -0.0085 H       1  UNL1        0.0613
     45 H          -9.3371   -4.1291    0.0492 H       1  UNL1        0.0837
     46 H         -10.1812   -4.8901    1.4410 H       1  UNL1        0.0837
@<TRIPOS>UNITY_ATOM_ATTR
19 1
charge 1
@<TRIPOS>BOND
     1     2     1    1
     2     3     2   ar
     3     3    27    1
     4     4     3   ar
     5     4    28    1
     6     5     4   ar
     7     6     5   ar
     8     6    29    1
     9     7     6   ar
    10     7     2   ar
    11     7    30    1
    12     8     5    1
    13     9     8   ar
    14    10     9    1
    15    11     9   ar
    16    12    11   ar
    17    12    31    1
    18    13    12   ar
    19    13    32    1
    20    14    13   ar
    21    15    14   ar
    22    16    15    1
    23    16    33    1
    24    17    16    1
    25    17    34    1
    26    17    35    1
    27    18    17    1
    28    18    36    1
    29    18    37    1
    30    19    18    1
    31    19    38    1
    32    20    19    1
    33    20    39    1
    34    20    40    1
    35    21    20    1
    36    21    41    1
    37    21    42    1
    38    22    21    1
    39    23    22    1
    40    23    43    1
    41    23    44    1
    42    24    23    1
    43    24    19    1
    44    24    45    1
    45    24    46    1
    46    25    15   ar
    47    25    11   ar
    48    26    25   ar
    49    26     8   ar
@<TRIPOS>MOLECULE
mol_392_akc_jejmech201509002
>377.sdf
 41 44 0 0 0
SMALL
GASTEIGER

@<TRIPOS>ATOM
      1 C           1.2988    0.8179   -0.7175 C.3     1  UNL1        0.0018
      2 N           2.3918    0.1009   -0.0752 N.pl3   1  UNL1       -0.3184
      3 C           2.5497    0.3486    1.3499 C.3     1  UNL1        0.0018
      4 C           3.0791   -0.9261   -0.7272 C.ar    1  UNL1        0.1642
      5 N           2.7413   -1.2073   -1.9738 N.ar    1  UNL1       -0.2353
      6 C           3.3612   -2.2336   -2.6437 C.ar    1  UNL1        0.0463
      7 C           4.3250   -3.0056   -2.1153 C.ar    1  UNL1        0.0300
      8 N           4.7573   -2.7347   -0.8288 N.ar    1  UNL1       -0.2945
      9 C           4.1610   -1.7245   -0.1160 C.ar    1  UNL1        0.1793
     10 N           4.6625   -1.6105    1.0951 N.ar    1  UNL1       -0.2239
     11 C           5.6521   -2.5677    1.1653 C.ar    1  UNL1        0.0978
     12 C           5.7348   -3.3127   -0.0188 C.ar    1  UNL1        0.0812
     13 C           6.5677   -4.4707   -0.4020 C.ar    1  UNL1        0.0038
     14 C           6.8378   -5.4933    0.5128 C.ar    1  UNL1       -0.0344
     15 C           7.6806   -6.5299    0.1402 C.ar    1  UNL1        0.0282
     16 N           8.2171   -6.6528   -1.0890 N.ar    1  UNL1       -0.2632
     17 C           7.9259   -5.6782   -1.9724 C.ar    1  UNL1        0.0282
     18 C           7.1457   -4.5717   -1.6710 C.ar    1  UNL1       -0.0344
     19 C           6.4266   -2.7496    2.3909 C.ar    1  UNL1        0.0026
     20 C           5.7920   -2.5838    3.6344 C.ar    1  UNL1       -0.0498
     21 C           6.4757   -2.8443    4.8254 C.ar    1  UNL1       -0.0258
     22 C           7.7952   -3.2720    4.7754 C.ar    1  UNL1        0.1234
     23 F           8.4397   -3.5676    5.9126 F       1  UNL1       -0.2055
     24 C           8.4583   -3.4007    3.5622 C.ar    1  UNL1       -0.0258
     25 C           7.7828   -3.1093    2.3726 C.ar    1  UNL1       -0.0498
     26 H           0.3423    0.5337   -0.2659 H       1  UNL1        0.0428
     27 H           1.4347    1.8973   -0.5892 H       1  UNL1        0.0428
     28 H           1.2275    0.6347   -1.7937 H       1  UNL1        0.0428
     29 H           2.3175   -0.5524    1.9272 H       1  UNL1        0.0428
     30 H           3.5669    0.6811    1.5761 H       1  UNL1        0.0428
     31 H           1.8710    1.1362    1.6971 H       1  UNL1        0.0428
     32 H           3.0159   -2.4079   -3.6586 H       1  UNL1        0.0845
     33 H           4.7642   -3.8209   -2.6658 H       1  UNL1        0.0829
     34 H           6.4322   -5.4836    1.5190 H       1  UNL1        0.0639
     35 H           7.9582   -7.3058    0.8485 H       1  UNL1        0.0830
     36 H           8.3549   -5.8075   -2.9620 H       1  UNL1        0.0830
     37 H           7.0140   -3.8074   -2.4286 H       1  UNL1        0.0639
     38 H           4.7509   -2.2643    3.6761 H       1  UNL1        0.0625
     39 H           5.9833   -2.7285    5.7834 H       1  UNL1        0.0646
     40 H           9.4916   -3.7333    3.5438 H       1  UNL1        0.0646
     41 H           8.3240   -3.1946    1.4339 H       1  UNL1        0.0625
@<TRIPOS>BOND
     1     1    26    1
     2     1    27    1
     3     1    28    1
     4     2     1    1
     5     3     2    1
     6     3    29    1
     7     3    30    1
     8     3    31    1
     9     4     2    1
    10     5     4   ar
    11     6     5   ar
    12     6    32    1
    13     7     6   ar
    14     7    33    1
    15     8     7   ar
    16     9     8   ar
    17     9     4   ar
    18    10     9   ar
    19    11    10   ar
    20    12    11   ar
    21    12     8   ar
    22    13    12    1
    23    14    13   ar
    24    14    34    1
    25    15    14   ar
    26    15    35    1
    27    16    15   ar
    28    17    16   ar
    29    17    36    1
    30    18    17   ar
    31    18    13   ar
    32    18    37    1
    33    19    11    1
    34    20    19   ar
    35    20    38    1
    36    21    20   ar
    37    21    39    1
    38    22    21   ar
    39    23    22    1
    40    24    22   ar
    41    24    40    1
    42    25    24   ar
    43    25    19   ar
    44    25    41    1
@<TRIPOS>MOLECULE
mol_393_akc_jejmech201509009
>378.sdf
 25 26 0 0 0
SMALL
GASTEIGER

@<TRIPOS>ATOM
      1 N           3.8946    4.3779    3.2085 N.am    1  UNL1       -0.3120
      2 C           3.1221    3.4205    2.6389 C.2     1  UNL1        0.3165
      3 O           1.9955    3.1558    3.0392 O.2     1  UNL1       -0.2513
      4 N           3.7060    2.7884    1.5690 N.am    1  UNL1       -0.1910
      5 N           5.0358    2.9408    1.2842 N.2     1  UNL1       -0.1864
      6 C           5.4390    2.3097    0.2265 C.2     1  UNL1        0.0542
      7 C           6.8738    2.2818   -0.1462 C.ar    1  UNL1        0.0156
      8 C           7.3018    1.7411   -1.3827 C.ar    1  UNL1        0.0641
      9 C           8.6734    1.6414   -1.6692 C.ar    1  UNL1        0.0019
     10 C           9.5658    2.0380   -0.6967 C.ar    1  UNL1        0.1675
     11 O          10.9189    1.9259   -0.7643 O.3     1  UNL1       -0.4526
     12 C          11.2801    2.2646    0.5924 C.3     1  UNL1        0.2332
     13 O          10.1866    2.8463    1.3326 O.3     1  UNL1       -0.4526
     14 C           9.1475    2.5663    0.5014 C.ar    1  UNL1        0.1669
     15 C           7.8134    2.7273    0.7983 C.ar    1  UNL1       -0.0063
     16 C           6.3709    1.2481   -2.3522 C.1     1  UNL1        0.0999
     17 N           5.6031    0.8271   -3.1156 N.1     1  UNL1       -0.1908
     18 H           3.5960    4.7885    4.0785 H       1  UNL1        0.1465
     19 H           4.8692    4.3718    2.9415 H       1  UNL1        0.1465
     20 H           3.1549    2.0667    1.1172 H       1  UNL1        0.1788
     21 H           4.7258    1.7596   -0.4126 H       1  UNL1        0.0852
     22 H           9.0349    1.2260   -2.6060 H       1  UNL1        0.0668
     23 H          11.5965    1.3469    1.1058 H       1  UNL1        0.1166
     24 H          12.1194    2.9674    0.5783 H       1  UNL1        0.1166
     25 H           7.5140    3.1352    1.7588 H       1  UNL1        0.0662
@<TRIPOS>BOND
     1     1    18    1
     2     1    19    1
     3     2     1   am
     4     3     2    2
     5     4     2   am
     6     4    20    1
     7     5     4    1
     8     6     5    2
     9     6    21    1
    10     7     6    1
    11     8     7   ar
    12     9     8   ar
    13     9    22    1
    14    10     9   ar
    15    11    10    1
    16    12    11    1
    17    12    23    1
    18    12    24    1
    19    13    12    1
    20    14    13    1
    21    14    10   ar
    22    15    14   ar
    23    15     7   ar
    24    15    25    1
    25    16     8    1
    26    17    16    3
@<TRIPOS>MOLECULE
mol_394_akc_jbiopha201508030
>379.sdf
 39 40 0 0 0
SMALL
GASTEIGER

@<TRIPOS>ATOM
      1 C           3.6104    1.2743   -2.0573 C.3     1  UNL1       -0.0596
      2 C           2.6541    0.1245   -1.7413 C.3     1  UNL1       -0.0124
      3 C           2.3657   -0.6841   -3.0067 C.3     1  UNL1       -0.0596
      4 C           3.1920   -0.7748   -0.6173 C.3     1  UNL1        0.0919
      5 O           4.4765   -1.3015   -0.9643 O.3     1  UNL1       -0.4916
      6 C           5.1280   -1.9663    0.0413 C.ar    1  UNL1        0.1240
      7 C           4.4948   -2.6756    1.0637 C.ar    1  UNL1       -0.0190
      8 C           5.2499   -3.3336    2.0404 C.ar    1  UNL1       -0.0439
      9 C           6.6489   -3.3062    1.9900 C.ar    1  UNL1        0.0638
     10 C           7.4713   -4.0072    3.0110 C.2     1  UNL1        0.1966
     11 O           8.5951   -3.5714    3.2619 O.2     1  UNL1       -0.2865
     12 C           6.9912   -5.2218    3.7140 C.ar    1  UNL1        0.0226
     13 C           7.3192   -5.3880    5.0658 C.ar    1  UNL1       -0.0475
     14 C           6.8890   -6.5240    5.7568 C.ar    1  UNL1       -0.0195
     15 C           6.1448   -7.4899    5.0857 C.ar    1  UNL1        0.1169
     16 O           5.7031   -8.6136    5.7176 O.3     1  UNL1       -0.5068
     17 C           5.8324   -7.3449    3.7380 C.ar    1  UNL1       -0.0195
     18 C           6.2649   -6.2139    3.0440 C.ar    1  UNL1       -0.0475
     19 C           7.2765   -2.5775    0.9707 C.ar    1  UNL1        0.1311
     20 O           8.6385   -2.4558    0.8799 O.3     1  UNL1       -0.5059
     21 C           6.5230   -1.9323   -0.0100 C.ar    1  UNL1        0.0222
     22 H           3.1752    1.9406   -2.8097 H       1  UNL1        0.0233
     23 H           3.8107    1.8695   -1.1603 H       1  UNL1        0.0233
     24 H           4.5676    0.9108   -2.4459 H       1  UNL1        0.0233
     25 H           1.7059    0.5550   -1.3956 H       1  UNL1        0.0328
     26 H           3.2777   -1.1218   -3.4242 H       1  UNL1        0.0233
     27 H           1.6641   -1.4987   -2.7944 H       1  UNL1        0.0233
     28 H           1.9131   -0.0488   -3.7757 H       1  UNL1        0.0233
     29 H           3.2710   -0.1849    0.3052 H       1  UNL1        0.0699
     30 H           2.4806   -1.5935   -0.4603 H       1  UNL1        0.0699
     31 H           3.4132   -2.7464    1.1198 H       1  UNL1        0.0654
     32 H           4.7230   -3.8553    2.8358 H       1  UNL1        0.0627
     33 H           7.9092   -4.6327    5.5820 H       1  UNL1        0.0626
     34 H           7.1456   -6.6369    6.8054 H       1  UNL1        0.0654
     35 H           6.0294   -8.6077    6.6330 H       1  UNL1        0.2921
     36 H           5.2635   -8.1171    3.2274 H       1  UNL1        0.0654
     37 H           6.0411   -6.1304    1.9838 H       1  UNL1        0.0626
     38 H           9.0243   -2.7839    1.7257 H       1  UNL1        0.2922
     39 H           7.0253   -1.3839   -0.8023 H       1  UNL1        0.0691
@<TRIPOS>BOND
     1     1    22    1
     2     1    23    1
     3     1    24    1
     4     2     1    1
     5     2    25    1
     6     3     2    1
     7     3    26    1
     8     3    27    1
     9     3    28    1
    10     4     2    1
    11     4    29    1
    12     4    30    1
    13     5     4    1
    14     6     5    1
    15     7     6   ar
    16     7    31    1
    17     8     7   ar
    18     8    32    1
    19     9     8   ar
    20    10     9    1
    21    11    10    2
    22    12    10    1
    23    13    12   ar
    24    13    33    1
    25    14    13   ar
    26    14    34    1
    27    15    14   ar
    28    16    15    1
    29    16    35    1
    30    17    15   ar
    31    17    36    1
    32    18    17   ar
    33    18    12   ar
    34    18    37    1
    35    19     9   ar
    36    20    19    1
    37    20    38    1
    38    21    19   ar
    39    21     6   ar
    40    21    39    1
@<TRIPOS>MOLECULE
mol_395_akc_cbdd12540
>380.sdf
 31 33 0 0 0
SMALL
GASTEIGER

@<TRIPOS>ATOM
      1 CL          3.2408    0.6765   -0.0014 Cl      1  UNL1       -0.0835
      2 C           1.6234    0.0888   -0.0041 C.ar    1  UNL1        0.0430
      3 C           1.3860   -1.2791    0.0229 C.ar    1  UNL1       -0.0426
      4 C           0.0710   -1.7446    0.0258 C.ar    1  UNL1       -0.0494
      5 C          -1.0184   -0.8428    0.0003 C.ar    1  UNL1        0.0228
      6 C          -2.3770   -1.2466    0.0291 C.ar    1  UNL1        0.0549
      7 N          -2.7318   -2.6372    0.0291 N.pl3   1  UNL1       -0.2659
      8 N          -3.9938   -2.9940    0.4720 N.pl3   1  UNL1       -0.2666
      9 C          -4.4692   -4.3290    0.4766 C.ar    1  UNL1        0.0443
     10 C          -3.6439   -5.4410    0.2888 C.ar    1  UNL1       -0.0394
     11 C          -4.1724   -6.7333    0.3728 C.ar    1  UNL1       -0.0600
     12 C          -5.5280   -6.9250    0.6304 C.ar    1  UNL1       -0.0616
     13 C          -6.3642   -5.8243    0.8006 C.ar    1  UNL1       -0.0600
     14 C          -5.8343   -4.5359    0.7257 C.ar    1  UNL1       -0.0394
     15 C          -3.3749   -0.2695   -0.0164 C.ar    1  UNL1       -0.0206
     16 C          -3.0015    1.0588   -0.0459 C.ar    1  UNL1        0.0301
     17 N          -1.7221    1.4749   -0.0469 N.ar    1  UNL1       -0.2548
     18 C          -0.7529    0.5480   -0.0268 C.ar    1  UNL1        0.0741
     19 C           0.5614    0.9878   -0.0288 C.ar    1  UNL1       -0.0173
     20 H           2.2126   -1.9840    0.0493 H       1  UNL1        0.0632
     21 H          -0.1057   -2.8167    0.0674 H       1  UNL1        0.0625
     22 H          -2.5590   -2.9837   -0.9221 H       1  UNL1        0.1699
     23 H          -4.1832   -2.6164    1.4074 H       1  UNL1        0.1699
     24 H          -2.5797   -5.3136    0.1132 H       1  UNL1        0.0636
     25 H          -3.5193   -7.5943    0.2504 H       1  UNL1        0.0618
     26 H          -5.9350   -7.9308    0.7050 H       1  UNL1        0.0618
     27 H          -7.4243   -5.9657    0.9945 H       1  UNL1        0.0618
     28 H          -6.4957   -3.6826    0.8559 H       1  UNL1        0.0636
     29 H          -4.4264   -0.5315   -0.0407 H       1  UNL1        0.0652
     30 H          -3.7477    1.8469   -0.0734 H       1  UNL1        0.0830
     31 H           0.7535    2.0580   -0.0446 H       1  UNL1        0.0653
@<TRIPOS>BOND
     1     2     1    1
     2     3     2   ar
     3     3    20    1
     4     4     3   ar
     5     4    21    1
     6     5     4   ar
     7     6     5   ar
     8     7     6    1
     9     7    22    1
    10     8     7    1
    11     8    23    1
    12     9     8    1
    13    10     9   ar
    14    10    24    1
    15    11    10   ar
    16    11    25    1
    17    12    11   ar
    18    12    26    1
    19    13    12   ar
    20    13    27    1
    21    14    13   ar
    22    14     9   ar
    23    14    28    1
    24    15     6   ar
    25    15    29    1
    26    16    15   ar
    27    16    30    1
    28    17    16   ar
    29    18    17   ar
    30    18     5   ar
    31    19    18   ar
    32    19     2   ar
    33    19    31    1
@<TRIPOS>MOLECULE
mol_396_akc_aac00997_15
>381.sdf
 29 30 0 0 0
SMALL
GASTEIGER

@<TRIPOS>ATOM
      1 C           1.0241    1.6074    3.2505 C.3     1  UNL1        0.0000
      2 SE          2.2077    2.6563    2.0903 Se      1  UNL1        0.0000
      3 C           3.3903    1.2359    1.3925 C.2     1  UNL1        0.0000
      4 N           2.9464    0.2718    0.4097 N.am    1  UNL1        0.0000
      5 C           1.6635    0.1271   -0.0377 C.2     1  UNL1        0.0000
      6 O           0.7733    0.8416    0.3874 O.2     1  UNL1        0.0000
      7 C           1.2818   -0.8995   -1.0419 C.ar    1  UNL1        0.0000
      8 C           2.0962   -1.7888   -1.7416 C.ar    1  UNL1        0.0000
      9 C           1.3812   -2.6219   -2.6197 C.ar    1  UNL1        0.0000
     10 C           0.0117   -2.3973   -2.6137 C.ar    1  UNL1        0.0000
     11 S          -0.3120   -1.1629   -1.5269 S.2     1  UNL1        0.0000
     12 N           4.6536    1.2385    1.6995 N.am    1  UNL1        0.0000
     13 C           5.2994    2.0653    2.6727 C.2     1  UNL1        0.0000
     14 O           4.6923    2.4529    3.6616 O.2     1  UNL1        0.0000
     15 C           6.7349    2.4064    2.5295 C.ar    1  UNL1        0.0000
     16 C           7.5088    3.0702    3.4811 C.ar    1  UNL1        0.0000
     17 C           8.8304    3.2883    3.0692 C.ar    1  UNL1        0.0000
     18 C           9.1023    2.8082    1.7955 C.ar    1  UNL1        0.0000
     19 S           7.7025    2.0951    1.1834 S.2     1  UNL1        0.0000
     20 H           0.0857    1.3385    2.7215 H       1  UNL1        0.0000
     21 H           1.5243    0.7030    3.6483 H       1  UNL1        0.0000
     22 H           0.7490    2.2407    4.1211 H       1  UNL1        0.0000
     23 H           3.6676   -0.3625    0.0345 H       1  UNL1        0.0000
     24 H           3.1712   -1.8482   -1.6386 H       1  UNL1        0.0000
     25 H           1.8480   -3.3711   -3.2455 H       1  UNL1        0.0000
     26 H          -0.7231   -2.9249   -3.2072 H       1  UNL1        0.0000
     27 H           7.1353    3.3843    4.4440 H       1  UNL1        0.0000
     28 H           9.5679    3.7883    3.6848 H       1  UNL1        0.0000
     29 H          10.0560    2.8840    1.2884 H       1  UNL1        0.0000
@<TRIPOS>BOND
     1     1    20    1
     2     1    21    1
     3     1    22    1
     4     2     1    1
     5     3     2    1
     6     4     3    1
     7     4    23    1
     8     5     4   am
     9     6     5    2
    10     7     5    1
    11     8     7   ar
    12     8    24    1
    13     9     8   ar
    14     9    25    1
    15    10     9   ar
    16    10    26    1
    17    11    10   ar
    18    11     7   ar
    19    12     3    2
    20    13    12    1
    21    14    13    2
    22    15    13    1
    23    16    15   ar
    24    16    27    1
    25    17    16   ar
    26    17    28    1
    27    18    17   ar
    28    18    29    1
    29    19    18   ar
    30    19    15   ar
@<TRIPOS>MOLECULE
mol_397_akc_aac00997_15
>382.sdf
 33 34 0 0 0
SMALL
GASTEIGER

@<TRIPOS>ATOM
      1 C           1.1369   -3.4103    1.4922 C.3     1  UNL1        0.0000
      2 SE          2.2054   -2.2004    2.6102 Se      1  UNL1        0.0000
      3 C           3.4411   -1.3914    1.2909 C.2     1  UNL1        0.0000
      4 N           3.0209   -0.3742    0.3552 N.am    1  UNL1        0.0000
      5 C           1.7274    0.0040    0.1154 C.2     1  UNL1        0.0000
      6 O           0.8112   -0.5221    0.7205 O.2     1  UNL1        0.0000
      7 C           1.3619    1.0381   -0.8914 C.ar    1  UNL1        0.0000
      8 C           2.1842    1.8497   -1.6883 C.ar    1  UNL1        0.0000
      9 C           1.4504    2.7150   -2.5453 C.ar    1  UNL1        0.0000
     10 C           0.0713    2.5762   -2.4217 C.ar    1  UNL1        0.0000
     11 S          -0.2406    1.4089   -1.2660 S.2     1  UNL1        0.0000
     12 N           2.0494    3.6356   -3.4474 N.pl3   1  UNL1        0.0000
     13 O           3.2361    3.7270   -3.5280 O.2     1  UNL1        0.0000
     14 O           1.3654    4.3340   -4.1387 O.2     1  UNL1        0.0000
     15 N           4.7149   -1.6448    1.3531 N.am    1  UNL1        0.0000
     16 C           5.3646   -2.6349    2.1604 C.2     1  UNL1        0.0000
     17 O           4.7785   -3.6599    2.4755 O.2     1  UNL1        0.0000
     18 C           6.7875   -2.4725    2.5455 C.ar    1  UNL1        0.0000
     19 C           7.5917   -3.4451    3.1464 C.ar    1  UNL1        0.0000
     20 C           8.8983   -3.0029    3.4093 C.ar    1  UNL1        0.0000
     21 C           9.1277   -1.6811    3.0304 C.ar    1  UNL1        0.0000
     22 S           7.7063   -1.0762    2.3491 S.2     1  UNL1        0.0000
     23 N           9.9063   -3.8265    4.0022 N.pl3   1  UNL1        0.0000
     24 O           9.6698   -4.9617    4.2791 O.2     1  UNL1        0.0000
     25 O          11.0023   -3.3916    4.2008 O.2     1  UNL1        0.0000
     26 H           0.2375   -2.9025    1.0862 H       1  UNL1        0.0000
     27 H           1.7313   -3.8847    0.6876 H       1  UNL1        0.0000
     28 H           0.7737   -4.2317    2.1483 H       1  UNL1        0.0000
     29 H           3.7626    0.0827   -0.1950 H       1  UNL1        0.0000
     30 H           3.2654    1.8281   -1.6570 H       1  UNL1        0.0000
     31 H          -0.6775    3.1280   -2.9754 H       1  UNL1        0.0000
     32 H           7.2415   -4.4429    3.3789 H       1  UNL1        0.0000
     33 H          10.0541   -1.1353    3.1443 H       1  UNL1        0.0000
@<TRIPOS>BOND
     1     1    26    1
     2     1    27    1
     3     1    28    1
     4     2     1    1
     5     3     2    1
     6     4     3    1
     7     4    29    1
     8     5     4   am
     9     6     5    2
    10     7     5    1
    11     8     7   ar
    12     8    30    1
    13     9     8   ar
    14    10     9   ar
    15    10    31    1
    16    11    10   ar
    17    11     7   ar
    18    12     9    1
    19    13    12    2
    20    14    12    2
    21    15     3    2
    22    16    15    1
    23    17    16    2
    24    18    16    1
    25    19    18   ar
    26    19    32    1
    27    20    19   ar
    28    21    20   ar
    29    21    33    1
    30    22    21   ar
    31    22    18   ar
    32    23    20    1
    33    24    23    2
    34    25    23    2
@<TRIPOS>MOLECULE
mol_398_akc_jactatropica201504028
>383.sdf
 34 36 0 0 0
SMALL
GASTEIGER

@<TRIPOS>ATOM
      1 C          -2.3896   -1.3835   -0.0569 C.3     1  UNL1        0.0310
      2 N          -1.4540   -0.2830   -0.0435 N.ar    1  UNL1       -0.2633
      3 N          -1.9180    0.9801   -0.0469 N.ar    1  UNL1       -0.1326
      4 C          -0.8112    1.7191   -0.0249 C.ar    1  UNL1        0.2420
      5 O          -1.0102    3.0526    0.0329 O.3     1  UNL1       -0.4702
      6 C           0.0941    3.7644    0.5817 C.3     1  UNL1        0.1163
      7 C          -0.3592    5.0965    1.1094 C.ar    1  UNL1       -0.0103
      8 C          -1.3872    5.1510    2.0593 C.ar    1  UNL1       -0.0554
      9 C          -1.7905    6.3734    2.5871 C.ar    1  UNL1       -0.0614
     10 C          -1.1643    7.5484    2.1751 C.ar    1  UNL1       -0.0617
     11 C          -0.1310    7.5028    1.2402 C.ar    1  UNL1       -0.0614
     12 C           0.2757    6.2801    0.7104 C.ar    1  UNL1       -0.0554
     13 C           0.3744    0.9427   -0.0514 C.ar    1  UNL1        0.0650
     14 C           1.7609    1.1887   -0.0745 C.ar    1  UNL1       -0.0172
     15 C           2.6444    0.1035   -0.0389 C.ar    1  UNL1        0.1270
     16 C           2.1712   -1.2114    0.0005 C.ar    1  UNL1       -0.0294
     17 C           0.7940   -1.4737   -0.0019 C.ar    1  UNL1       -0.0338
     18 C          -0.0798   -0.3754   -0.0300 C.ar    1  UNL1        0.0725
     19 N           4.0875    0.3754   -0.0305 N.pl3   1  UNL1        0.0565
     20 O           4.4528    1.5590   -0.0427 O.2     1  UNL1       -0.1261
     21 O           4.8548   -0.5979   -0.0083 O.2     1  UNL1       -0.1261
     22 H          -2.2526   -1.9374   -0.9889 H       1  UNL1        0.0473
     23 H          -2.1858   -2.0231    0.8054 H       1  UNL1        0.0473
     24 H          -3.4119   -1.0002    0.0015 H       1  UNL1        0.0473
     25 H           0.5458    3.2291    1.4283 H       1  UNL1        0.0748
     26 H           0.8434    3.9187   -0.2025 H       1  UNL1        0.0748
     27 H          -1.8765    4.2344    2.3849 H       1  UNL1        0.0621
     28 H          -2.5927    6.4066    3.3184 H       1  UNL1        0.0618
     29 H          -1.4818    8.5021    2.5858 H       1  UNL1        0.0618
     30 H           0.3583    8.4204    0.9254 H       1  UNL1        0.0618
     31 H           1.0896    6.2579   -0.0113 H       1  UNL1        0.0621
     32 H           2.1434    2.2027   -0.1108 H       1  UNL1        0.0648
     33 H           2.8632   -2.0515    0.0312 H       1  UNL1        0.0641
     34 H           0.4241   -2.4945    0.0246 H       1  UNL1        0.0639
@<TRIPOS>BOND
     1     1    22    1
     2     1    23    1
     3     1    24    1
     4     2     1    1
     5     3     2   ar
     6     4     3   ar
     7     5     4    1
     8     6     5    1
     9     6    25    1
    10     6    26    1
    11     7     6    1
    12     8     7   ar
    13     8    27    1
    14     9     8   ar
    15     9    28    1
    16    10     9   ar
    17    10    29    1
    18    11    10   ar
    19    11    30    1
    20    12    11   ar
    21    12     7   ar
    22    12    31    1
    23    13     4   ar
    24    14    13   ar
    25    14    32    1
    26    15    14   ar
    27    16    15   ar
    28    16    33    1
    29    17    16   ar
    30    17    34    1
    31    18    17   ar
    32    18     2   ar
    33    18    13   ar
    34    19    15    1
    35    20    19    2
    36    21    19    2
@<TRIPOS>MOLECULE
mol_399_akc_jactatropica201504028
>384.sdf
 50 52 0 0 0
SMALL
GASTEIGER

@<TRIPOS>ATOM
      1 C           0.9677   -2.1605    5.6616 C.3     1  UNL1       -0.0448
      2 N           2.4437   -2.1112    5.8194 N.4     1  UNL1        0.2264
      3 C           2.9504   -0.8898    6.5302 C.3     1  UNL1       -0.0099
      4 C           4.4773   -0.9521    6.6223 C.3     1  UNL1        0.0875
      5 O           5.0291   -1.0943    5.3039 O.3     1  UNL1       -0.3727
      6 C           6.4705   -1.0315    5.3540 C.3     1  UNL1        0.0674
      7 C           7.0616   -1.0553    3.9498 C.3     1  UNL1        0.0657
      8 N           8.5116   -1.1165    3.9827 N.ar    1  UNL1       -0.2580
      9 N           9.2269    0.0315    4.0591 N.ar    1  UNL1       -0.1322
     10 C          10.4870   -0.4019    4.0139 C.ar    1  UNL1        0.2421
     11 O          11.5387    0.4374    3.9426 O.3     1  UNL1       -0.4702
     12 C          11.3496    1.7119    4.5456 C.3     1  UNL1        0.1163
     13 C          12.6772    2.4361    4.4498 C.ar    1  UNL1       -0.0103
     14 C          13.2380    2.7096    3.1910 C.ar    1  UNL1       -0.0554
     15 C          14.4830    3.3295    3.0818 C.ar    1  UNL1       -0.0614
     16 C          15.1822    3.6927    4.2297 C.ar    1  UNL1       -0.0617
     17 C          14.6350    3.4397    5.4861 C.ar    1  UNL1       -0.0614
     18 C          13.3880    2.8138    5.5973 C.ar    1  UNL1       -0.0554
     19 C          10.5975   -1.8057    3.9684 C.ar    1  UNL1        0.0651
     20 C          11.6627   -2.7239    3.9334 C.ar    1  UNL1       -0.0172
     21 C          11.3557   -4.0914    3.9159 C.ar    1  UNL1        0.1270
     22 C          10.0260   -4.5375    3.9169 C.ar    1  UNL1       -0.0294
     23 C           8.9618   -3.6253    3.9353 C.ar    1  UNL1       -0.0338
     24 C           9.2815   -2.2600    3.9656 C.ar    1  UNL1        0.0729
     25 N          12.4503   -5.0711    3.9097 N.pl3   1  UNL1        0.0565
     26 O          13.6117   -4.6420    3.9098 O.2     1  UNL1       -0.1261
     27 O          12.1411   -6.2718    3.9101 O.2     1  UNL1       -0.1261
     28 H           0.7226   -3.0880    5.1397 H       1  UNL1        0.0777
     29 H           0.5166   -2.1525    6.6572 H       1  UNL1        0.0777
     30 H           0.6526   -1.2935    5.0767 H       1  UNL1        0.0777
     31 H           2.7653   -2.9585    6.3046 H       1  UNL1        0.2011
     32 H           2.9042   -2.1319    4.8954 H       1  UNL1        0.2011
     33 H           2.6297   -0.0304    5.9329 H       1  UNL1        0.0836
     34 H           2.4895   -0.8626    7.5218 H       1  UNL1        0.0836
     35 H           4.8475   -0.0319    7.0872 H       1  UNL1        0.0613
     36 H           4.7845   -1.8110    7.2298 H       1  UNL1        0.0613
     37 H           6.7792   -0.1141    5.8696 H       1  UNL1        0.0578
     38 H           6.8303   -1.8907    5.9326 H       1  UNL1        0.0578
     39 H           6.6891   -1.9176    3.3852 H       1  UNL1        0.0532
     40 H           6.7657   -0.1653    3.3827 H       1  UNL1        0.0532
     41 H          10.5850    2.2982    4.0221 H       1  UNL1        0.0748
     42 H          11.0602    1.5924    5.5978 H       1  UNL1        0.0748
     43 H          12.7091    2.4167    2.2852 H       1  UNL1        0.0621
     44 H          14.9119    3.5187    2.1009 H       1  UNL1        0.0618
     45 H          16.1577    4.1669    4.1445 H       1  UNL1        0.0618
     46 H          15.1851    3.7212    6.3800 H       1  UNL1        0.0618
     47 H          12.9893    2.6130    6.5879 H       1  UNL1        0.0621
     48 H          12.6875   -2.3592    3.9335 H       1  UNL1        0.0648
     49 H           9.7994   -5.6035    3.8990 H       1  UNL1        0.0641
     50 H           7.9358   -3.9786    3.9242 H       1  UNL1        0.0639
@<TRIPOS>UNITY_ATOM_ATTR
2 1
charge 1
@<TRIPOS>BOND
     1     1    28    1
     2     1    29    1
     3     1    30    1
     4     2     1    1
     5     2    31    1
     6     2    32    1
     7     3     2    1
     8     3    33    1
     9     3    34    1
    10     4     3    1
    11     4    35    1
    12     4    36    1
    13     5     4    1
    14     6     5    1
    15     6    37    1
    16     6    38    1
    17     7     6    1
    18     7    39    1
    19     7    40    1
    20     8     7    1
    21     9     8   ar
    22    10     9   ar
    23    11    10    1
    24    12    11    1
    25    12    41    1
    26    12    42    1
    27    13    12    1
    28    14    13   ar
    29    14    43    1
    30    15    14   ar
    31    15    44    1
    32    16    15   ar
    33    16    45    1
    34    17    16   ar
    35    17    46    1
    36    18    17   ar
    37    18    13   ar
    38    18    47    1
    39    19    10   ar
    40    20    19   ar
    41    20    48    1
    42    21    20   ar
    43    22    21   ar
    44    22    49    1
    45    23    22   ar
    46    23    50    1
    47    24    23   ar
    48    24     8   ar
    49    24    19   ar
    50    25    21    1
    51    26    25    2
    52    27    25    2
@<TRIPOS>MOLECULE
mol_39_akc_molecules21060802
>39.sdf
 43 46 0 0 0
SMALL
GASTEIGER

@<TRIPOS>ATOM
      1 C           1.1253   -0.3383    0.0980 C.3     1  UNL1        0.0790
      2 O           2.5030   -0.0428   -0.1052 O.3     1  UNL1       -0.4913
      3 C           3.1736    0.5844    0.9143 C.ar    1  UNL1        0.1672
      4 C           2.7644    0.4749    2.2509 C.ar    1  UNL1        0.0094
      5 C           3.5105    1.0597    3.2831 C.ar    1  UNL1        0.0742
      6 C           4.6808    1.7613    2.9804 C.ar    1  UNL1        0.0094
      7 C           5.1279    1.8366    1.6577 C.ar    1  UNL1        0.1672
      8 O           6.2934    2.4783    1.3081 O.3     1  UNL1       -0.4913
      9 C           7.3391    2.4132    2.2747 C.3     1  UNL1        0.0790
     10 C           4.3620    1.2773    0.6116 C.ar    1  UNL1        0.2036
     11 O           4.9105    1.4062   -0.6436 O.3     1  UNL1       -0.4885
     12 C           4.0061    1.5242   -1.7336 C.3     1  UNL1        0.0791
     13 N           3.1189    0.9024    4.6364 N.ar    1  UNL1       -0.2193
     14 C           2.0914    0.1421    5.1454 C.ar    1  UNL1        0.0591
     15 C           2.2242    0.2352    6.5109 C.ar    1  UNL1        0.1131
     16 N           3.2625    1.0768    6.7993 N.ar    1  UNL1       -0.1292
     17 N           3.7979    1.4814    5.6554 N.ar    1  UNL1       -0.0602
     18 C           1.4564   -0.4870    7.5098 C.ar    1  UNL1        0.0073
     19 C           0.4290   -1.3734    7.1473 C.ar    1  UNL1       -0.0069
     20 C          -0.1862   -2.0981    8.1435 C.ar    1  UNL1        0.1669
     21 C           0.1599   -1.9603    9.4671 C.ar    1  UNL1        0.1663
     22 O          -0.5491   -2.7884   10.2790 O.3     1  UNL1       -0.4526
     23 C          -1.3167   -3.5267    9.3047 C.3     1  UNL1        0.2332
     24 O          -1.1614   -3.0299    7.9586 O.3     1  UNL1       -0.4526
     25 C           1.1354   -1.0766    9.8690 C.ar    1  UNL1       -0.0155
     26 C           1.7905   -0.3383    8.8767 C.ar    1  UNL1       -0.0488
     27 H           0.9925   -1.1329    0.8388 H       1  UNL1        0.0660
     28 H           0.5655    0.5608    0.3769 H       1  UNL1        0.0660
     29 H           0.7195   -0.7084   -0.8483 H       1  UNL1        0.0660
     30 H           1.8741   -0.0925    2.4862 H       1  UNL1        0.0677
     31 H           5.2520    2.2321    3.7760 H       1  UNL1        0.0677
     32 H           7.1929    3.1728    3.0492 H       1  UNL1        0.0660
     33 H           7.4262    1.4149    2.7188 H       1  UNL1        0.0660
     34 H           8.2826    2.6323    1.7657 H       1  UNL1        0.0660
     35 H           3.7189    0.5348   -2.1016 H       1  UNL1        0.0660
     36 H           3.1283    2.1311   -1.4860 H       1  UNL1        0.0660
     37 H           4.5336    2.0277   -2.5499 H       1  UNL1        0.0660
     38 H           1.4200   -0.4259    4.5243 H       1  UNL1        0.0853
     39 H           0.1242   -1.5259    6.1183 H       1  UNL1        0.0662
     40 H          -0.9925   -4.5745    9.3270 H       1  UNL1        0.1166
     41 H          -2.3755   -3.4792    9.5800 H       1  UNL1        0.1166
     42 H           1.4027   -0.9722   10.9140 H       1  UNL1        0.0655
     43 H           2.5839    0.3473    9.1731 H       1  UNL1        0.0625
@<TRIPOS>BOND
     1     1    27    1
     2     1    28    1
     3     1    29    1
     4     2     1    1
     5     3     2    1
     6     4     3   ar
     7     4    30    1
     8     5     4   ar
     9     6     5   ar
    10     6    31    1
    11     7     6   ar
    12     8     7    1
    13     9     8    1
    14     9    32    1
    15     9    33    1
    16     9    34    1
    17    10     7   ar
    18    10     3   ar
    19    11    10    1
    20    12    11    1
    21    12    35    1
    22    12    36    1
    23    12    37    1
    24    13     5    1
    25    14    13   ar
    26    14    38    1
    27    15    14   ar
    28    16    15   ar
    29    17    16   ar
    30    17    13   ar
    31    18    15    1
    32    19    18   ar
    33    19    39    1
    34    20    19   ar
    35    21    20   ar
    36    22    21    1
    37    23    22    1
    38    23    40    1
    39    23    41    1
    40    24    23    1
    41    24    20    1
    42    25    21   ar
    43    25    42    1
    44    26    25   ar
    45    26    18   ar
    46    26    43    1
@<TRIPOS>MOLECULE
mol_3_akc_1573406414666180226163222
>3.sdf
 44 48 0 0 0
SMALL
GASTEIGER

@<TRIPOS>ATOM
      1 C           1.0060    0.0037   -0.0191 C.3     1  UNL1       -0.0396
      2 C           2.5033   -0.0839   -0.0486 C.ar    1  UNL1       -0.0484
      3 C           3.2858    1.0786   -0.0609 C.ar    1  UNL1       -0.0328
      4 C           4.6772    1.0465   -0.0730 C.ar    1  UNL1        0.0725
      5 N           5.3138    2.2281   -0.0985 N.ar    1  UNL1       -0.2459
      6 C           6.6642    2.2501   -0.0946 C.ar    1  UNL1        0.0839
      7 C           7.4171    1.0753   -0.0205 C.ar    1  UNL1        0.0598
      8 C           8.8692    1.2901    0.0814 C.2     1  UNL1        0.2356
      9 O           9.6090    0.6557    0.8201 O.2     1  UNL1       -0.2831
     10 C           9.4171    2.4638   -0.7079 C.2     1  UNL1        0.2336
     11 O          10.3937    2.3537   -1.4245 O.2     1  UNL1       -0.2832
     12 C           8.6569    3.7057   -0.5347 C.ar    1  UNL1        0.0347
     13 C           7.2976    3.5871   -0.1842 C.ar    1  UNL1        0.0120
     14 C           6.6023    4.7836    0.0503 C.ar    1  UNL1       -0.0519
     15 C           7.2419    6.0276   -0.0559 C.ar    1  UNL1       -0.0611
     16 C           8.5845    6.1038   -0.4252 C.ar    1  UNL1       -0.0610
     17 C           9.2975    4.9386   -0.6800 C.ar    1  UNL1       -0.0502
     18 C           6.7885   -0.1945    0.0063 C.ar    1  UNL1        0.0043
     19 C           7.5861   -1.4603    0.1316 C.ar    1  UNL1       -0.0164
     20 C           7.2350   -2.4595    1.0644 C.ar    1  UNL1       -0.0518
     21 C           8.0024   -3.6185    1.2389 C.ar    1  UNL1       -0.0309
     22 C           9.1983   -3.7625    0.5340 C.ar    1  UNL1        0.1262
     23 C           9.5821   -2.7966   -0.3970 C.ar    1  UNL1       -0.0309
     24 C           8.7569   -1.6850   -0.6226 C.ar    1  UNL1       -0.0518
     25 N          10.0654   -4.9171    0.7968 N.pl3   1  UNL1        0.0564
     26 O           9.6378   -5.7956    1.5602 O.2     1  UNL1       -0.1261
     27 O          11.1724   -4.9480    0.2409 O.2     1  UNL1       -0.1261
     28 C           5.3514   -0.1999   -0.0620 C.ar    1  UNL1        0.0088
     29 C           4.5415   -1.3653   -0.1229 C.ar    1  UNL1       -0.0517
     30 C           3.1471   -1.3122   -0.0928 C.ar    1  UNL1       -0.0581
     31 H           0.6737    0.5583    0.8642 H       1  UNL1        0.0278
     32 H           0.6393    0.5043   -0.9206 H       1  UNL1        0.0278
     33 H           0.5479   -0.9906    0.0223 H       1  UNL1        0.0278
     34 H           2.7913    2.0491   -0.0537 H       1  UNL1        0.0642
     35 H           5.5492    4.7582    0.3299 H       1  UNL1        0.0624
     36 H           6.6867    6.9390    0.1534 H       1  UNL1        0.0618
     37 H           9.0755    7.0718   -0.5052 H       1  UNL1        0.0618
     38 H          10.3483    4.9873   -0.9607 H       1  UNL1        0.0625
     39 H           6.3518   -2.3447    1.6918 H       1  UNL1        0.0624
     40 H           7.6694   -4.3729    1.9488 H       1  UNL1        0.0640
     41 H          10.5250   -2.8716   -0.9356 H       1  UNL1        0.0640
     42 H           9.0967   -0.9571   -1.3579 H       1  UNL1        0.0624
     43 H           4.9870   -2.3547   -0.1987 H       1  UNL1        0.0624
     44 H           2.5763   -2.2390   -0.1045 H       1  UNL1        0.0620
@<TRIPOS>BOND
     1     1    31    1
     2     1    32    1
     3     1    33    1
     4     2     1    1
     5     3     2   ar
     6     3    34    1
     7     4     3   ar
     8     5     4   ar
     9     6     5   ar
    10     7     6   ar
    11     8     7    1
    12     9     8    2
    13    10     8    1
    14    11    10    2
    15    12    10    1
    16    13    12   ar
    17    13     6    1
    18    14    13   ar
    19    14    35    1
    20    15    14   ar
    21    15    36    1
    22    16    15   ar
    23    16    37    1
    24    17    16   ar
    25    17    12   ar
    26    17    38    1
    27    18     7   ar
    28    19    18    1
    29    20    19   ar
    30    20    39    1
    31    21    20   ar
    32    21    40    1
    33    22    21   ar
    34    23    22   ar
    35    23    41    1
    36    24    23   ar
    37    24    19   ar
    38    24    42    1
    39    25    22    1
    40    26    25    2
    41    27    25    2
    42    28    18   ar
    43    28     4   ar
    44    29    28   ar
    45    29    43    1
    46    30    29   ar
    47    30     2   ar
    48    30    44    1
@<TRIPOS>MOLECULE
mol_400_akc_c5md00119f
>385.sdf
 35 37 0 0 0
SMALL
GASTEIGER

@<TRIPOS>ATOM
      1 CL         -1.8358   -0.6538   -1.8644 Cl      1  UNL1       -0.0835
      2 C          -0.1221   -0.5029   -1.8009 C.ar    1  UNL1        0.0427
      3 C           0.4766    0.6721   -2.2431 C.ar    1  UNL1       -0.0433
      4 C           1.8608    0.7912   -2.1883 C.ar    1  UNL1       -0.0586
      5 C           2.6388   -0.2643   -1.6988 C.ar    1  UNL1       -0.0403
      6 C           2.0487   -1.4544   -1.2582 C.ar    1  UNL1        0.0379
      7 N           2.7893   -2.5592   -0.7653 N.am    1  UNL1       -0.2479
      8 C           4.1545   -2.6229   -0.6202 C.2     1  UNL1        0.4495
      9 O           4.9889   -1.7627   -0.8878 O.2     1  UNL1       -0.2218
     10 O           4.5791   -3.8351   -0.0780 O.3     1  UNL1       -0.2411
     11 N           5.9622   -3.7306    0.2669 N.3     1  UNL1       -0.0812
     12 C           6.7409   -4.8309    0.0922 C.2     1  UNL1        0.2801
     13 N           6.1678   -5.8964    0.3881 N.2     1  UNL1       -0.4057
     14 C           8.1945   -4.7749   -0.2669 C.ar    1  UNL1        0.0651
     15 C           9.0572   -5.7928    0.1994 C.ar    1  UNL1       -0.0160
     16 C          10.4218   -5.6061   -0.1148 C.ar    1  UNL1        0.1350
     17 N          11.4655   -6.3722    0.2086 N.ar    1  UNL1       -0.0489
     18 O          12.5787   -5.7353   -0.3252 O.2     1  UNL1       -0.2416
     19 N          12.2279   -4.5752   -0.9979 N.ar    1  UNL1       -0.0489
     20 C          10.9035   -4.4682   -0.8791 C.ar    1  UNL1        0.1342
     21 C          10.0336   -3.4766   -1.3659 C.ar    1  UNL1       -0.0300
     22 C           8.6717   -3.6684   -1.0341 C.ar    1  UNL1       -0.0446
     23 C           0.6517   -1.5620   -1.3086 C.ar    1  UNL1       -0.0220
     24 H          -0.1223    1.4941   -2.6292 H       1  UNL1        0.0632
     25 H           2.3422    1.7060   -2.5285 H       1  UNL1        0.0619
     26 H           3.7126   -0.1081   -1.6821 H       1  UNL1        0.0636
     27 H           2.2571   -3.3631   -0.4600 H       1  UNL1        0.1583
     28 H           6.3356   -2.8099   -0.0221 H       1  UNL1        0.3613
     29 H           6.3630   -6.6279   -0.2777 H       1  UNL1        0.2553
     30 H           8.7597   -6.6467    0.7882 H       1  UNL1        0.0649
     31 H          10.3889   -2.6304   -1.9429 H       1  UNL1        0.0641
     32 H           7.9760   -2.9166   -1.4096 H       1  UNL1        0.0627
     33 H           0.1436   -2.4608   -0.9709 H       1  UNL1        0.0651
     34 H           5.1872   -5.6825    0.4829 H       1  UNL1        0.2553
     35 H           6.5029   -6.2054    1.2902 H       1  UNL1        0.2553
@<TRIPOS>BOND
     1     2     1    1
     2     3     2   ar
     3     3    24    1
     4     4     3   ar
     5     4    25    1
     6     5     4   ar
     7     5    26    1
     8     6     5   ar
     9     7     6    1
    10     7    27    1
    11     8     7   am
    12     9     8    2
    13    10     8    1
    14    11    10    1
    15    11    28    1
    16    12    11    1
    17    13    12    2
    18    13    29    1
    19    13    34    1
    20    14    12    1
    21    15    14   ar
    22    15    30    1
    23    16    15   ar
    24    17    16   ar
    25    18    17   ar
    26    19    18   ar
    27    20    19   ar
    28    20    16   ar
    29    21    20   ar
    30    21    31    1
    31    22    21   ar
    32    22    14   ar
    33    22    32    1
    34    23     6   ar
    35    23     2   ar
    36    23    33    1
    37    13    35    1
@<TRIPOS>MOLECULE
mol_401_akc_np5008697
>386.sdf
 44 44 0 0 0
SMALL
GASTEIGER

@<TRIPOS>ATOM
      1 C           0.9605    3.6050    2.2918 C.3     1  UNL1       -0.0440
      2 C           2.4526    3.5126    2.4461 C.2     1  UNL1       -0.0796
      3 C           3.0043    4.0335    3.7453 C.3     1  UNL1       -0.0440
      4 C           3.2287    2.9894    1.4764 C.2     1  UNL1       -0.0852
      5 C           4.7337    2.9324    1.4981 C.3     1  UNL1       -0.0319
      6 C           5.2682    1.6165    2.0935 C.3     1  UNL1       -0.0203
      7 C           6.8211    1.5477    2.1962 C.3     1  UNL1        0.0689
      8 C           7.3293    2.6847    3.1105 C.3     1  UNL1       -0.0356
      9 O           7.3165    1.8167    0.8721 O.3     1  UNL1       -0.3883
     10 C           7.3601    0.1117    2.6646 C.3     1  UNL1       -0.0035
     11 C           6.8039   -0.2422    4.0659 C.3     1  UNL1       -0.0570
     12 C           6.9238   -0.9950    1.6550 C.3     1  UNL1       -0.0450
     13 C           7.5830   -2.3612    1.8761 C.3     1  UNL1       -0.0525
     14 C           9.1011   -2.2656    1.9245 C.3     1  UNL1       -0.0530
     15 C           9.5569   -1.2557    2.9654 C.3     1  UNL1       -0.0525
     16 C           8.9220    0.1133    2.7324 C.3     1  UNL1       -0.0450
     17 H           0.4633    2.9703    3.0325 H       1  UNL1        0.0274
     18 H           0.6289    4.6382    2.4393 H       1  UNL1        0.0274
     19 H           0.6258    3.2894    1.2983 H       1  UNL1        0.0274
     20 H           3.7375    3.3418    4.1714 H       1  UNL1        0.0274
     21 H           3.4773    5.0091    3.5978 H       1  UNL1        0.0274
     22 H           2.2121    4.1517    4.4915 H       1  UNL1        0.0274
     23 H           2.7659    2.6149    0.5647 H       1  UNL1        0.0571
     24 H           5.0926    3.0552    0.4695 H       1  UNL1        0.0308
     25 H           5.1088    3.7975    2.0518 H       1  UNL1        0.0308
     26 H           4.8240    1.4684    3.0835 H       1  UNL1        0.0296
     27 H           4.9015    0.8087    1.4516 H       1  UNL1        0.0296
     28 H           8.4203    2.6947    3.1830 H       1  UNL1        0.0257
     29 H           7.0845    3.6717    2.7043 H       1  UNL1        0.0257
     30 H           6.9105    2.6181    4.1188 H       1  UNL1        0.0257
     31 H           8.2500    2.0710    0.9337 H       1  UNL1        0.2102
     32 H           7.1444   -1.2217    4.4136 H       1  UNL1        0.0236
     33 H           7.1216    0.4833    4.8205 H       1  UNL1        0.0236
     34 H           5.7101   -0.2797    4.0701 H       1  UNL1        0.0236
     35 H           5.8381   -1.1425    1.6965 H       1  UNL1        0.0271
     36 H           7.1561   -0.6755    0.6315 H       1  UNL1        0.0271
     37 H           7.2127   -2.8137    2.8031 H       1  UNL1        0.0265
     38 H           7.2906   -3.0394    1.0655 H       1  UNL1        0.0265
     39 H           9.5289   -3.2486    2.1513 H       1  UNL1        0.0265
     40 H           9.4815   -1.9719    0.9392 H       1  UNL1        0.0265
     41 H           9.3189   -1.6207    3.9716 H       1  UNL1        0.0265
     42 H          10.6482   -1.1590    2.9240 H       1  UNL1        0.0265
     43 H           9.3341    0.5079    1.7960 H       1  UNL1        0.0271
     44 H           9.2692    0.7753    3.5324 H       1  UNL1        0.0271
@<TRIPOS>BOND
     1     1    17    1
     2     1    18    1
     3     1    19    1
     4     2     1    1
     5     3     2    1
     6     3    20    1
     7     3    21    1
     8     3    22    1
     9     4     2    2
    10     4    23    1
    11     5     4    1
    12     5    24    1
    13     5    25    1
    14     6     5    1
    15     6    26    1
    16     6    27    1
    17     7     6    1
    18     8     7    1
    19     8    28    1
    20     8    29    1
    21     8    30    1
    22     9     7    1
    23     9    31    1
    24    10     7    1
    25    11    10    1
    26    11    32    1
    27    11    33    1
    28    11    34    1
    29    12    10    1
    30    12    35    1
    31    12    36    1
    32    13    12    1
    33    13    37    1
    34    13    38    1
    35    14    13    1
    36    14    39    1
    37    14    40    1
    38    15    14    1
    39    15    41    1
    40    15    42    1
    41    16    15    1
    42    16    10    1
    43    16    43    1
    44    16    44    1
@<TRIPOS>MOLECULE
mol_402_akc_jejmech201505046
>387.sdf
 30 31 0 0 0
SMALL
GASTEIGER

@<TRIPOS>ATOM
      1 O           1.7258   -0.0991    0.4805 O.co2   1  UNL1       -0.5735
      2 N           2.6167   -0.1499   -0.3778 N.pl3   1  UNL1        0.1186
      3 O           3.1042   -1.1817   -0.8579 O.2     1  UNL1        0.0446
      4 C           3.1154    1.1040   -0.8473 C.ar    1  UNL1        0.4380
      5 C           2.7855    2.3951   -0.5115 C.ar    1  UNL1        0.0595
      6 C           3.6183    3.2107   -1.3125 C.ar    1  UNL1       -0.0078
      7 C           4.3942    2.3631   -2.0873 C.ar    1  UNL1        0.1545
      8 O           4.0861    1.0600   -1.8041 O.2     1  UNL1       -0.3992
      9 C           5.3803    2.6541   -3.0918 C.2     1  UNL1        0.0881
     10 N           5.6736    3.8923   -3.3058 N.2     1  UNL1       -0.1834
     11 N           6.5325    4.2024   -4.3196 N.am    1  UNL1       -0.1904
     12 C           6.6615    5.5568   -4.6357 C.2     1  UNL1        0.3233
     13 O           6.2107    6.4467   -3.9226 O.2     1  UNL1       -0.2507
     14 N           7.2996    5.7473   -5.8501 N.am    1  UNL1       -0.2681
     15 C           7.3608    6.9539   -6.5837 C.ar    1  UNL1        0.0349
     16 C           6.7503    8.1451   -6.1757 C.ar    1  UNL1       -0.0391
     17 C           6.7911    9.2860   -6.9841 C.ar    1  UNL1       -0.0416
     18 C           7.4438    9.2416   -8.2101 C.ar    1  UNL1        0.0411
     19 CL          7.4657   10.6335   -9.2193 Cl      1  UNL1       -0.0835
     20 C           8.0694    8.0695   -8.6267 C.ar    1  UNL1       -0.0416
     21 C           8.0311    6.9303   -7.8137 C.ar    1  UNL1       -0.0391
     22 H           2.0434    2.7090    0.2100 H       1  UNL1        0.0722
     23 H           3.6556    4.2936   -1.3477 H       1  UNL1        0.0658
     24 H           5.8312    1.8182   -3.6533 H       1  UNL1        0.0883
     25 H           6.7848    3.4897   -4.9899 H       1  UNL1        0.1788
     26 H           7.7733    4.9514   -6.2468 H       1  UNL1        0.1564
     27 H           6.2183    8.2258   -5.2328 H       1  UNL1        0.0636
     28 H           6.3004   10.1957   -6.6474 H       1  UNL1        0.0633
     29 H           8.5789    8.0326   -9.5858 H       1  UNL1        0.0633
     30 H           8.5186    6.0258   -8.1673 H       1  UNL1        0.0636
@<TRIPOS>UNITY_ATOM_ATTR
1 1
charge -1
2 1
charge 1
@<TRIPOS>BOND
     1     2     1    1
     2     3     2    2
     3     4     2    1
     4     5     4   ar
     5     5    22    1
     6     6     5   ar
     7     6    23    1
     8     7     6   ar
     9     8     7   ar
    10     8     4   ar
    11     9     7    1
    12     9    24    1
    13    10     9    2
    14    11    10    1
    15    11    25    1
    16    12    11   am
    17    13    12    2
    18    14    12   am
    19    14    26    1
    20    15    14    1
    21    16    15   ar
    22    16    27    1
    23    17    16   ar
    24    17    28    1
    25    18    17   ar
    26    19    18    1
    27    20    18   ar
    28    20    29    1
    29    21    20   ar
    30    21    15   ar
    31    21    30    1
@<TRIPOS>MOLECULE
mol_403_akc_s0031182015000141
>388.sdf
 49 50 0 0 0
SMALL
GASTEIGER

@<TRIPOS>ATOM
      1 C          -3.6137   -4.0648    0.3080 C.3     1  UNL1       -0.0438
      2 C          -2.9552   -2.7407    0.0601 C.2     1  UNL1       -0.0765
      3 C          -1.6207   -2.6287   -0.0701 C.2     1  UNL1       -0.0847
      4 C          -0.9170   -1.3043   -0.1329 C.3     1  UNL1       -0.0297
      5 C          -1.7291   -0.1653    0.5277 C.3     1  UNL1       -0.0165
      6 C          -3.1399   -0.1957   -0.1011 C.3     1  UNL1       -0.0443
      7 C          -3.8680   -1.5334    0.0555 C.3     1  UNL1       -0.0317
      8 C          -1.6361   -0.1035    2.1249 C.3     1  UNL1        0.0312
      9 C          -0.1479    0.1571    2.4746 C.3     1  UNL1       -0.0437
     10 C          -2.4717    1.0916    2.6223 C.3     1  UNL1       -0.0437
     11 N          -2.0927   -1.3706    2.7692 N.am    1  UNL1       -0.3200
     12 C          -1.8907   -1.8695    4.0481 C.2     1  UNL1        0.1503
     13 S          -1.4578   -0.9858    5.4082 S.2     1  UNL1       -0.0172
     14 N          -2.0136   -3.2689    4.0630 N.am    1  UNL1       -0.2184
     15 N          -1.2232   -3.9532    4.9444 N.2     1  UNL1       -0.1885
     16 C          -1.1881   -5.2429    4.9069 C.2     1  UNL1        0.0528
     17 C          -0.2077   -5.9549    5.7653 C.ar    1  UNL1       -0.0050
     18 C           0.7492   -5.2075    6.4791 C.ar    1  UNL1       -0.0467
     19 C           1.7058   -5.8506    7.2615 C.ar    1  UNL1        0.0162
     20 C           1.7155   -7.2494    7.3377 C.ar    1  UNL1        0.2732
     21 C           0.7631   -7.9998    6.6259 C.ar    1  UNL1        0.0162
     22 C          -0.1965   -7.3500    5.8349 C.ar    1  UNL1       -0.0467
     23 N           2.7262   -7.9189    8.1610 N.pl3   1  UNL1        0.0796
     24 O           3.5427   -7.2118    8.7661 O.co2   1  UNL1       -0.5760
     25 O           2.7082   -9.1556    8.1996 O.2     1  UNL1        0.0414
     26 H          -4.0926   -4.0537    1.2939 H       1  UNL1        0.0274
     27 H          -4.3742   -4.2717   -0.4490 H       1  UNL1        0.0274
     28 H          -2.8916   -4.8880    0.3067 H       1  UNL1        0.0274
     29 H          -0.9846   -3.5106   -0.0767 H       1  UNL1        0.0572
     30 H           0.0768   -1.3940    0.3132 H       1  UNL1        0.0311
     31 H          -0.7458   -1.0642   -1.1915 H       1  UNL1        0.0311
     32 H          -1.2761    0.7746    0.1739 H       1  UNL1        0.0324
     33 H          -3.7687    0.6245    0.2583 H       1  UNL1        0.0272
     34 H          -3.0247   -0.0047   -1.1794 H       1  UNL1        0.0272
     35 H          -4.5958   -1.6352   -0.7592 H       1  UNL1        0.0310
     36 H          -4.4471   -1.5124    0.9863 H       1  UNL1        0.0310
     37 H           0.2756    0.9557    1.8567 H       1  UNL1        0.0250
     38 H          -0.0115    0.4782    3.5095 H       1  UNL1        0.0250
     39 H           0.4617   -0.7431    2.3389 H       1  UNL1        0.0250
     40 H          -3.5318    0.9780    2.3775 H       1  UNL1        0.0250
     41 H          -2.4199    1.2159    3.7065 H       1  UNL1        0.0250
     42 H          -2.1153    2.0271    2.1751 H       1  UNL1        0.0250
     43 H          -2.7967   -1.8786    2.2620 H       1  UNL1        0.1483
     44 H          -2.2834   -3.7483    3.2129 H       1  UNL1        0.1762
     45 H          -1.8456   -5.8428    4.2553 H       1  UNL1        0.0851
     46 H           0.7541   -4.1241    6.4219 H       1  UNL1        0.0626
     47 H           2.4385   -5.2461    7.8028 H       1  UNL1        0.0685
     48 H           0.7622   -9.0878    6.6769 H       1  UNL1        0.0685
     49 H          -0.9236   -7.9417    5.2830 H       1  UNL1        0.0626
@<TRIPOS>UNITY_ATOM_ATTR
23 1
charge 1
24 1
charge -1
@<TRIPOS>BOND
     1     1    26    1
     2     1    27    1
     3     1    28    1
     4     2     1    1
     5     3     2    2
     6     3    29    1
     7     4     3    1
     8     4    30    1
     9     4    31    1
    10     5     4    1
    11     6     5    1
    12     6    33    1
    13     6    34    1
    14     7     6    1
    15     7     2    1
    16     7    35    1
    17     7    36    1
    18     9     8    1
    19     9    37    1
    20     9    38    1
    21     9    39    1
    22    10     8    1
    23    10    40    1
    24    10    41    1
    25    10    42    1
    26    11     8    1
    27    11    43    1
    28    12    11    1
    29    13    12    2
    30    14    12    1
    31    14    44    1
    32    15    14    1
    33    16    15    2
    34    16    45    1
    35    17    16    1
    36    18    17   ar
    37    18    46    1
    38    19    18   ar
    39    19    47    1
    40    20    19   ar
    41    21    20   ar
    42    21    48    1
    43    22    21   ar
    44    22    17   ar
    45    22    49    1
    46    23    20    1
    47    24    23    1
    48    25    23    2
    49     5     8    1
    50     5    32    1
@<TRIPOS>MOLECULE
mol_404_akc_jbmcl201504097
>389.sdf
 38 40 0 0 0
SMALL
GASTEIGER

@<TRIPOS>ATOM
      1 C           0.0625   -2.5599   -0.5414 C.3     1  UNL1       -0.0364
      2 C          -0.6161   -1.4677    0.2750 C.3     1  UNL1        0.0874
      3 O          -0.1043   -0.1863   -0.1286 O.3     1  UNL1       -0.3511
      4 C          -1.2005    0.6856   -0.4529 C.3     1  UNL1        0.1419
      5 C          -2.4500    0.0299    0.1174 C.3     1  UNL1        0.0243
      6 C          -2.1304   -1.4467    0.0788 C.3     1  UNL1        0.1593
      7 N          -2.8243   -2.1156    1.1871 N.2     1  UNL1        0.0824
      8 N          -3.0931   -3.3172    1.0245 N.2     1  UNL1       -0.0144
      9 N          -3.3345   -4.4208    0.8722 N.2     1  UNL1       -0.3282
     10 N          -1.2443    0.9534   -1.8964 N.ar    1  UNL1       -0.2733
     11 C          -0.3070    0.4144   -2.7628 C.ar    1  UNL1        0.0263
     12 C          -0.2112    0.7275   -4.0660 C.ar    1  UNL1        0.0843
     13 C           0.7838    0.1518   -4.9295 C.ar    1  UNL1        0.1202
     14 N           1.3191   -1.0670   -4.7337 N.ar    1  UNL1       -0.0777
     15 O           2.2363   -1.2581   -5.7478 O.2     1  UNL1       -0.3567
     16 C           2.2700   -0.1573   -6.5422 C.ar    1  UNL1        0.1630
     17 C           3.1949   -0.1997   -7.6892 C.3     1  UNL1        0.1046
     18 O           3.6257    1.1316   -7.9424 O.3     1  UNL1       -0.3872
     19 C           1.3722    0.7644   -6.0632 C.ar    1  UNL1        0.0107
     20 C          -1.1933    1.7240   -4.5765 C.ar    1  UNL1        0.2633
     21 O          -1.2108    2.1246   -5.7370 O.2     1  UNL1       -0.2670
     22 N          -2.1029    2.1996   -3.6701 N.ar    1  UNL1       -0.2743
     23 C          -2.1510    1.9088   -2.3349 C.ar    1  UNL1        0.3314
     24 O          -2.9522    2.4886   -1.6069 O.2     1  UNL1       -0.2464
     25 H           1.1458   -2.5369   -0.3835 H       1  UNL1        0.0255
     26 H          -0.3112   -3.5520   -0.2742 H       1  UNL1        0.0255
     27 H          -0.0981   -2.4117   -1.6147 H       1  UNL1        0.0255
     28 H          -0.3516   -1.5989    1.3306 H       1  UNL1        0.0617
     29 H          -1.0244    1.6490    0.0406 H       1  UNL1        0.0840
     30 H          -3.3798    0.2653   -0.4081 H       1  UNL1        0.0332
     31 H          -2.5774    0.3567    1.1582 H       1  UNL1        0.0332
     32 H          -2.4235   -1.8622   -0.8944 H       1  UNL1        0.0642
     33 H           0.4093   -0.2820   -2.3365 H       1  UNL1        0.0820
     34 H           4.0705   -0.8188   -7.4767 H       1  UNL1        0.0639
     35 H           2.6842   -0.5817   -8.5784 H       1  UNL1        0.0639
     36 H           4.2325    1.0886   -8.7000 H       1  UNL1        0.2100
     37 H           1.1832    1.7419   -6.4830 H       1  UNL1        0.0675
     38 H          -2.7476    2.8993   -4.0027 H       1  UNL1        0.1734
@<TRIPOS>UNITY_ATOM_ATTR
8 1
charge 1
9 1
charge -1
@<TRIPOS>BOND
     1     1    25    1
     2     1    26    1
     3     1    27    1
     4     2     1    1
     5     2    28    1
     6     3     2    1
     7     4     3    1
     8     5     4    1
     9     5    30    1
    10     5    31    1
    11     6     5    1
    12     6     2    1
    13     6    32    1
    14     7     6    1
    15     8     7    2
    16     9     8    2
    17    11    10   ar
    18    11    33    1
    19    12    11   ar
    20    13    12    1
    21    14    13   ar
    22    15    14   ar
    23    16    15   ar
    24    17    16    1
    25    17    34    1
    26    17    35    1
    27    18    17    1
    28    18    36    1
    29    19    16   ar
    30    19    13   ar
    31    19    37    1
    32    20    12   ar
    33    21    20    2
    34    22    20   ar
    35    22    38    1
    36    23    22   ar
    37    23    10   ar
    38    24    23    2
    39     4    10    1
    40     4    29    1
@<TRIPOS>MOLECULE
mol_405_akc_jejpb201504018
>390.sdf
 40 40 0 0 0
SMALL
GASTEIGER

@<TRIPOS>ATOM
      1 C           1.0332   -0.4967    0.2903 C.3     1  UNL1       -0.0652
      2 C           2.4715   -0.0096    0.1719 C.3     1  UNL1       -0.0545
      3 C           2.8640    0.2224   -1.2924 C.3     1  UNL1       -0.0375
      4 C           4.3104    0.7329   -1.4027 C.3     1  UNL1        0.0124
      5 N           4.8897    0.9851   -2.7624 N.pl3   1  UNL1       -0.3242
      6 C           3.8835    1.3309   -3.8082 C.3     1  UNL1        0.0355
      7 C           3.6728    0.2247   -4.8565 C.3     1  UNL1        0.0599
      8 O           2.8603   -0.8374   -4.3659 O.3     1  UNL1       -0.3935
      9 C           6.2925    1.1477   -2.9482 C.ar    1  UNL1        0.0909
     10 C           7.2781    1.0078   -1.9116 C.ar    1  UNL1        0.1498
     11 C           8.6932    0.9832   -2.1104 C.ar    1  UNL1       -0.0179
     12 C           9.2488    1.1274   -3.3692 C.ar    1  UNL1        0.0592
     13 C           8.3619    1.3435   -4.4125 C.ar    1  UNL1       -0.0179
     14 C           6.9506    1.3835   -4.2005 C.ar    1  UNL1        0.1498
     15 N           6.2920    1.8217   -5.4181 N.pl3   1  UNL1        0.0583
     16 O           5.9433    3.0064   -5.4751 O.2     1  UNL1       -0.1261
     17 O           6.2519    1.0176   -6.3617 O.2     1  UNL1       -0.1261
     18 C          10.7365    1.1029   -3.6117 C.3     1  UNL1        0.4176
     19 F          11.4678    1.0457   -2.4669 F       1  UNL1       -0.1659
     20 F          11.1153    0.0346   -4.3605 F       1  UNL1       -0.1659
     21 F          11.1661    2.2066   -4.2801 F       1  UNL1       -0.1659
     22 N           6.9728    0.9998   -0.4922 N.pl3   1  UNL1        0.0583
     23 O           6.6654    2.0861    0.0234 O.2     1  UNL1       -0.1261
     24 O           7.1440   -0.0665    0.1151 O.2     1  UNL1       -0.1261
     25 H           0.7601   -0.6361    1.3411 H       1  UNL1        0.0230
     26 H           0.3366    0.2273   -0.1447 H       1  UNL1        0.0230
     27 H           0.9014   -1.4533   -0.2258 H       1  UNL1        0.0230
     28 H           2.5748    0.9245    0.7387 H       1  UNL1        0.0263
     29 H           3.1399   -0.7444    0.6362 H       1  UNL1        0.0263
     30 H           2.7559   -0.7142   -1.8478 H       1  UNL1        0.0280
     31 H           2.1502    0.9434   -1.6991 H       1  UNL1        0.0280
     32 H           4.3698    1.6658   -0.8322 H       1  UNL1        0.0464
     33 H           4.8927   -0.0508   -0.9169 H       1  UNL1        0.0464
     34 H           2.9110    1.5494   -3.3664 H       1  UNL1        0.0486
     35 H           4.1362    2.2884   -4.2621 H       1  UNL1        0.0486
     36 H           3.1630    0.6499   -5.7273 H       1  UNL1        0.0573
     37 H           4.6104   -0.2272   -5.1766 H       1  UNL1        0.0573
     38 H           2.8886   -1.5364   -5.0443 H       1  UNL1        0.2095
     39 H           9.3560    0.8659   -1.2482 H       1  UNL1        0.0646
     40 H           8.7640    1.5130   -5.4154 H       1  UNL1        0.0646
@<TRIPOS>BOND
     1     1    25    1
     2     1    26    1
     3     1    27    1
     4     2     1    1
     5     2    28    1
     6     2    29    1
     7     3     2    1
     8     3    30    1
     9     3    31    1
    10     4     3    1
    11     4    32    1
    12     4    33    1
    13     5     4    1
    14     6     5    1
    15     6    34    1
    16     6    35    1
    17     7     6    1
    18     7    36    1
    19     7    37    1
    20     8     7    1
    21     8    38    1
    22     9     5    1
    23    10     9   ar
    24    11    10   ar
    25    11    39    1
    26    12    11   ar
    27    13    12   ar
    28    13    40    1
    29    14    13   ar
    30    14     9   ar
    31    15    14    1
    32    16    15    2
    33    17    15    2
    34    18    12    1
    35    19    18    1
    36    20    18    1
    37    21    18    1
    38    22    10    1
    39    23    22    2
    40    24    22    2
@<TRIPOS>MOLECULE
mol_406_akc_s10719_015_9582_x
>391.sdf
 110 118 0 0 0
SMALL
GASTEIGER

@<TRIPOS>ATOM
      1 C           2.9702   -4.0160    3.9619 C.3     1  UNL1        0.0395
      2 O           2.8176   -2.8499    3.1565 O.3     1  UNL1       -0.3519
      3 C           1.7693   -2.9761    2.1887 C.3     1  UNL1        0.1879
      4 O           2.0344   -4.0740    1.3094 O.3     1  UNL1       -0.3412
      5 C           2.9528   -3.5896    0.3019 C.3     1  UNL1        0.1076
      6 C           4.4243   -3.6470    0.7635 C.3     1  UNL1        0.0580
      7 N           4.8363   -4.9856    1.1569 N.pl3   1  UNL1       -0.2542
      8 N           6.1815   -5.2618    1.5506 N.3     1  UNL1       -0.1610
      9 N           6.2694   -6.6991    1.5383 N.pl3   1  UNL1       -0.2640
     10 C           5.0276   -7.1803    1.0905 C.2     1  UNL1        0.0723
     11 C           4.7533   -8.6204    0.9096 C.3     1  UNL1        0.1295
     12 O           5.7208   -9.1799    0.0164 O.3     1  UNL1       -0.4851
     13 C           5.9513  -10.5119    0.2175 C.ar    1  UNL1        0.1385
     14 C           4.9468  -11.3764    0.6801 C.ar    1  UNL1        0.0228
     15 C           5.2068  -12.7251    0.8861 C.ar    1  UNL1        0.1280
     16 O           4.1680  -13.4652    1.3699 O.3     1  UNL1       -0.4871
     17 C           4.2855  -14.8618    1.1124 C.3     1  UNL1        0.1146
     18 C           2.9252  -15.4770    1.2318 C.ar    1  UNL1       -0.0104
     19 C           2.0666  -15.4763    0.1243 C.ar    1  UNL1       -0.0554
     20 C           0.8138  -16.0716    0.2107 C.ar    1  UNL1       -0.0614
     21 C           0.4063  -16.6589    1.4077 C.ar    1  UNL1       -0.0617
     22 C           1.2449  -16.6363    2.5219 C.ar    1  UNL1       -0.0614
     23 C           2.4999  -16.0420    2.4385 C.ar    1  UNL1       -0.0554
     24 C           6.4643  -13.2315    0.6025 C.ar    1  UNL1        0.0228
     25 C           7.4467  -12.3994    0.0934 C.ar    1  UNL1        0.1389
     26 C           7.2106  -11.0356   -0.0883 C.ar    1  UNL1        0.1009
     27 C           8.3554  -10.2268   -0.5691 C.2     1  UNL1        0.1740
     28 O           8.4608   -9.0252   -0.3600 O.2     1  UNL1       -0.2917
     29 C           9.4209  -11.0187   -1.2788 C.3     1  UNL1        0.0520
     30 C           9.7299  -12.1927   -0.3601 C.3     1  UNL1        0.1323
     31 O           8.6050  -13.0492   -0.2113 O.3     1  UNL1       -0.4828
     32 C          10.8649  -13.0349   -0.8900 C.ar    1  UNL1       -0.0033
     33 C          10.6860  -14.1263   -1.7419 C.ar    1  UNL1       -0.0514
     34 C          11.7888  -14.8352   -2.2284 C.ar    1  UNL1       -0.0159
     35 C          13.0930  -14.4327   -1.9150 C.ar    1  UNL1        0.1624
     36 O          14.2132  -15.0493   -2.4057 O.3     1  UNL1       -0.4837
     37 C          14.1049  -16.4498   -2.6877 C.3     1  UNL1        0.1148
     38 C          15.4178  -16.9755   -3.2275 C.ar    1  UNL1       -0.0104
     39 C          15.8072  -18.3033   -2.9909 C.ar    1  UNL1       -0.0554
     40 C          16.9850  -18.8065   -3.5500 C.ar    1  UNL1       -0.0614
     41 C          17.7788  -17.9942   -4.3582 C.ar    1  UNL1       -0.0617
     42 C          17.3986  -16.6777   -4.6062 C.ar    1  UNL1       -0.0614
     43 C          16.2229  -16.1747   -4.0502 C.ar    1  UNL1       -0.0554
     44 C          13.2757  -13.2890   -1.1202 C.ar    1  UNL1        0.1628
     45 O          14.5491  -12.7816   -0.9506 O.3     1  UNL1       -0.4837
     46 C          14.5503  -11.3788   -0.6398 C.3     1  UNL1        0.1148
     47 C          15.8424  -10.6811   -0.9634 C.ar    1  UNL1       -0.0104
     48 C          15.8050   -9.3354   -1.3667 C.ar    1  UNL1       -0.0554
     49 C          16.9807   -8.6289   -1.5881 C.ar    1  UNL1       -0.0614
     50 C          18.2071   -9.2592   -1.3977 C.ar    1  UNL1       -0.0617
     51 C          18.2569  -10.5940   -0.9914 C.ar    1  UNL1       -0.0614
     52 C          17.0753  -11.3034   -0.7697 C.ar    1  UNL1       -0.0554
     53 C          12.1618  -12.6630   -0.5498 C.ar    1  UNL1       -0.0096
     54 C           4.2104   -6.1676    0.8714 C.2     1  UNL1        0.0310
     55 C           2.5092   -2.1667    0.0385 C.3     1  UNL1        0.1205
     56 O           1.5413   -2.1550   -1.0191 O.3     1  UNL1       -0.3406
     57 C           0.5145   -1.2780   -0.5748 C.3     1  UNL1        0.1657
     58 C          -0.8152   -1.7062   -1.1787 C.3     1  UNL1       -0.0108
     59 C           0.8715    0.1425   -1.0151 C.3     1  UNL1       -0.0108
     60 O           0.4534   -1.3486    0.8494 O.3     1  UNL1       -0.3383
     61 C           1.7668   -1.7323    1.2875 C.3     1  UNL1        0.1411
     62 H           2.1692   -4.0706    4.7026 H       1  UNL1        0.0525
     63 H           2.9879   -4.9346    3.3686 H       1  UNL1        0.0525
     64 H           3.9292   -3.9425    4.4845 H       1  UNL1        0.0525
     65 H           0.8125   -3.1326    2.6981 H       1  UNL1        0.0937
     66 H           2.8206   -4.2157   -0.5877 H       1  UNL1        0.0640
     67 H           5.0681   -3.2975   -0.0534 H       1  UNL1        0.0506
     68 H           4.6091   -2.9728    1.6039 H       1  UNL1        0.0506
     69 H           6.2934   -4.9603    2.5242 H       1  UNL1        0.1678
     70 H           7.0359   -7.0847    0.9663 H       1  UNL1        0.1676
     71 H           4.8023   -9.0883    1.9047 H       1  UNL1        0.0761
     72 H           3.7521   -8.7639    0.4919 H       1  UNL1        0.0761
     73 H           3.9399  -11.0204    0.8811 H       1  UNL1        0.0691
     74 H           4.6541  -15.0504    0.0945 H       1  UNL1        0.0748
     75 H           4.9782  -15.3231    1.8275 H       1  UNL1        0.0748
     76 H           2.3788  -15.0120   -0.8095 H       1  UNL1        0.0621
     77 H           0.1572  -16.0786   -0.6550 H       1  UNL1        0.0618
     78 H          -0.5704  -17.1297    1.4732 H       1  UNL1        0.0618
     79 H           0.9190  -17.0848    3.4575 H       1  UNL1        0.0618
     80 H           3.1468  -16.0218    3.3134 H       1  UNL1        0.0621
     81 H           6.7218  -14.2721    0.7711 H       1  UNL1        0.0691
     82 H           9.0314  -11.3353   -2.2536 H       1  UNL1        0.0385
     83 H          10.3001  -10.3866   -1.4444 H       1  UNL1        0.0385
     84 H          10.0010  -11.8370    0.6455 H       1  UNL1        0.0789
     85 H           9.6857  -14.4396   -2.0356 H       1  UNL1        0.0623
     86 H          11.5915  -15.6701   -2.8930 H       1  UNL1        0.0655
     87 H          13.8394  -16.9834   -1.7665 H       1  UNL1        0.0748
     88 H          13.3532  -16.6452   -3.4609 H       1  UNL1        0.0748
     89 H          15.1969  -18.9567   -2.3716 H       1  UNL1        0.0621
     90 H          17.2832  -19.8342   -3.3583 H       1  UNL1        0.0618
     91 H          18.6926  -18.3859   -4.7964 H       1  UNL1        0.0618
     92 H          18.0141  -16.0390   -5.2341 H       1  UNL1        0.0618
     93 H          15.9350  -15.1457   -4.2590 H       1  UNL1        0.0621
     94 H          13.7669  -10.8661   -1.2157 H       1  UNL1        0.0748
     95 H          14.3675  -11.2484    0.4348 H       1  UNL1        0.0748
     96 H          14.8491   -8.8270   -1.5047 H       1  UNL1        0.0621
     97 H          16.9401   -7.5884   -1.9004 H       1  UNL1        0.0618
     98 H          19.1299   -8.7086   -1.5627 H       1  UNL1        0.0618
     99 H          19.2131  -11.0822   -0.8391 H       1  UNL1        0.0618
    100 H          17.1200  -12.3393   -0.4413 H       1  UNL1        0.0621
    101 H          12.2808  -11.8357    0.1451 H       1  UNL1        0.0659
    102 H           3.1895   -6.2297    0.5133 H       1  UNL1        0.0812
    103 H           3.3301   -1.5011   -0.2461 H       1  UNL1        0.0651
    104 H          -0.7657   -1.7247   -2.2733 H       1  UNL1        0.0281
    105 H          -1.0845   -2.7163   -0.8504 H       1  UNL1        0.0281
    106 H          -1.6261   -1.0377   -0.8709 H       1  UNL1        0.0281
    107 H           1.8158    0.4703   -0.5656 H       1  UNL1        0.0281
    108 H           1.0040    0.1916   -2.1016 H       1  UNL1        0.0281
    109 H           0.1049    0.8597   -0.7089 H       1  UNL1        0.0281
    110 H           2.2358   -0.8742    1.7792 H       1  UNL1        0.0675
@<TRIPOS>BOND
     1     1    62    1
     2     1    63    1
     3     1    64    1
     4     2     1    1
     5     4     3    1
     6     5     4    1
     7     5    66    1
     8     6     5    1
     9     6    67    1
    10     6    68    1
    11     7     6    1
    12     8     7    1
    13     8    69    1
    14     9     8    1
    15     9    70    1
    16    10     9    1
    17    11    10    1
    18    11    71    1
    19    11    72    1
    20    12    11    1
    21    13    12    1
    22    14    13   ar
    23    14    73    1
    24    15    14   ar
    25    16    15    1
    26    17    16    1
    27    17    74    1
    28    17    75    1
    29    18    17    1
    30    19    18   ar
    31    19    76    1
    32    20    19   ar
    33    20    77    1
    34    21    20   ar
    35    21    78    1
    36    22    21   ar
    37    22    79    1
    38    23    22   ar
    39    23    18   ar
    40    23    80    1
    41    24    15   ar
    42    24    81    1
    43    25    24   ar
    44    26    25   ar
    45    26    13   ar
    46    27    26    1
    47    28    27    2
    48    29    27    1
    49    29    82    1
    50    29    83    1
    51    30    29    1
    52    31    30    1
    53    31    25    1
    54    33    32   ar
    55    33    85    1
    56    34    33   ar
    57    34    86    1
    58    35    34   ar
    59    36    35    1
    60    37    36    1
    61    37    87    1
    62    37    88    1
    63    38    37    1
    64    39    38   ar
    65    39    89    1
    66    40    39   ar
    67    40    90    1
    68    41    40   ar
    69    41    91    1
    70    42    41   ar
    71    42    92    1
    72    43    42   ar
    73    43    38   ar
    74    43    93    1
    75    44    35   ar
    76    45    44    1
    77    46    45    1
    78    46    94    1
    79    46    95    1
    80    47    46    1
    81    48    47   ar
    82    48    96    1
    83    49    48   ar
    84    49    97    1
    85    50    49   ar
    86    50    98    1
    87    51    50   ar
    88    51    99    1
    89    52    51   ar
    90    52    47   ar
    91    52   100    1
    92    53    44   ar
    93    53    32   ar
    94    53   101    1
    95    54    10    2
    96    54     7    1
    97    54   102    1
    98    55     5    1
    99    55   103    1
   100    56    55    1
   101    57    56    1
   102    58    57    1
   103    58   104    1
   104    58   105    1
   105    58   106    1
   106    59    57    1
   107    59   107    1
   108    59   108    1
   109    59   109    1
   110    60    57    1
   111    61    60    1
   112    61     3    1
   113    61    55    1
   114    61   110    1
   115     3    65    1
   116     3     2    1
   117    30    32    1
   118    30    84    1
@<TRIPOS>MOLECULE
mol_407_akc_jbmc201503064
>392.sdf
 33 35 0 0 0
SMALL
GASTEIGER

@<TRIPOS>ATOM
      1 F           3.3357    1.0793   -0.5674 F       1  UNL1       -0.1659
      2 C           2.7084   -0.0720   -0.9397 C.3     1  UNL1        0.4174
      3 F           1.3751    0.2109   -0.9095 F       1  UNL1       -0.1659
      4 F           3.0220   -0.2660   -2.2485 F       1  UNL1       -0.1659
      5 C           3.0606   -1.2555   -0.0700 C.ar    1  UNL1        0.0548
      6 C           4.0666   -1.1574    0.9009 C.ar    1  UNL1       -0.0495
      7 C           4.2623   -2.1893    1.8195 C.ar    1  UNL1       -0.0535
      8 C           3.4501   -3.3333    1.7875 C.ar    1  UNL1       -0.0171
      9 C           2.5288   -3.4879    0.7437 C.ar    1  UNL1       -0.0535
     10 C           2.3345   -2.4533   -0.1772 C.ar    1  UNL1       -0.0495
     11 C           3.4170   -4.1862    2.9940 C.ar    1  UNL1       -0.0036
     12 C           2.3080   -3.9837    3.7405 C.ar    1  UNL1        0.0111
     13 C           2.2076   -4.4216    5.1379 C.ar    1  UNL1        0.2498
     14 O           1.1649   -4.2826    5.7609 O.2     1  UNL1       -0.2679
     15 N           3.3393   -4.9141    5.7054 N.ar    1  UNL1       -0.3202
     16 C           4.5122   -5.2096    4.9867 C.ar    1  UNL1        0.0803
     17 C           4.5296   -4.9446    3.6032 C.ar    1  UNL1        0.0085
     18 C           5.6257   -5.3777    2.8361 C.ar    1  UNL1       -0.0519
     19 C           6.7102   -6.0207    3.4418 C.ar    1  UNL1       -0.0589
     20 C           6.7388   -6.1978    4.8232 C.ar    1  UNL1       -0.0294
     21 C           5.6415   -5.7835    5.5929 C.ar    1  UNL1        0.1500
     22 N           5.7371   -5.9154    7.0475 N.pl3   1  UNL1        0.0585
     23 O           4.6891   -6.1028    7.6829 O.2     1  UNL1       -0.1261
     24 O           6.8633   -5.8153    7.5561 O.2     1  UNL1       -0.1261
     25 H           4.6543   -0.2454    0.9962 H       1  UNL1        0.0623
     26 H           4.9851   -2.0487    2.6209 H       1  UNL1        0.0624
     27 H           1.8940   -4.3706    0.6941 H       1  UNL1        0.0624
     28 H           1.5609   -2.5550   -0.9378 H       1  UNL1        0.0623
     29 H           1.4672   -3.3811    3.4003 H       1  UNL1        0.0678
     30 H           3.2619   -5.1765    6.6873 H       1  UNL1        0.1690
     31 H           5.6373   -5.2283    1.7590 H       1  UNL1        0.0624
     32 H           7.5462   -6.3618    2.8327 H       1  UNL1        0.0618
     33 H           7.6106   -6.6575    5.2860 H       1  UNL1        0.0641
@<TRIPOS>BOND
     1     2     1    1
     2     3     2    1
     3     4     2    1
     4     5     2    1
     5     6     5   ar
     6     6    25    1
     7     7     6   ar
     8     7    26    1
     9     8     7   ar
    10     9     8   ar
    11     9    27    1
    12    10     9   ar
    13    10     5   ar
    14    10    28    1
    15    11     8    1
    16    12    11   ar
    17    12    29    1
    18    13    12   ar
    19    14    13    2
    20    15    13   ar
    21    15    30    1
    22    16    15   ar
    23    17    16   ar
    24    17    11   ar
    25    18    17   ar
    26    18    31    1
    27    19    18   ar
    28    19    32    1
    29    20    19   ar
    30    20    33    1
    31    21    20   ar
    32    21    16   ar
    33    22    21    1
    34    23    22    2
    35    24    22    2
@<TRIPOS>MOLECULE
mol_409_akc_np500809a
>394.sdf
 49 50 0 0 0
SMALL
GASTEIGER

@<TRIPOS>ATOM
      1 C           6.2039    1.1517    1.7701 C.3     1  UNL1        0.0790
      2 O           5.2082    2.0126    2.3154 O.3     1  UNL1       -0.4914
      3 C           4.8496    3.0636    1.5103 C.ar    1  UNL1        0.1624
      4 C           4.6227    4.2638    2.1946 C.ar    1  UNL1       -0.0128
      5 C           4.2360    5.4246    1.5082 C.ar    1  UNL1       -0.0400
      6 C           3.9508    6.7060    2.2533 C.3     1  UNL1       -0.0096
      7 C           5.1404    7.6193    2.2847 C.2     1  UNL1       -0.0868
      8 C           5.1721    8.8389    1.7297 C.2     1  UNL1       -0.1023
      9 C           4.1423    5.3881    0.1140 C.ar    1  UNL1       -0.0546
     10 C           4.3601    4.1933   -0.5736 C.ar    1  UNL1       -0.0154
     11 C           4.6321    3.0090    0.1281 C.ar    1  UNL1        0.1700
     12 O           4.6793    1.7875   -0.5132 O.3     1  UNL1       -0.4485
     13 C           3.7962    1.5467   -1.5492 C.ar    1  UNL1        0.1739
     14 C           2.4624    1.9877   -1.4847 C.ar    1  UNL1       -0.0120
     15 C           1.6087    1.8687   -2.5878 C.ar    1  UNL1       -0.0365
     16 C           0.2071    2.4319   -2.5391 C.3     1  UNL1       -0.0095
     17 C           0.1163    3.8157   -3.1229 C.2     1  UNL1       -0.0868
     18 C          -0.6887    4.1578   -4.1419 C.2     1  UNL1       -0.1023
     19 C           2.0938    1.2568   -3.7505 C.ar    1  UNL1       -0.0126
     20 C           3.4016    0.7545   -3.8045 C.ar    1  UNL1        0.1655
     21 O           3.9061    0.1043   -4.9059 O.3     1  UNL1       -0.4913
     22 C           3.4258    0.5683   -6.1622 C.3     1  UNL1        0.0790
     23 C           4.2497    0.8607   -2.6852 C.ar    1  UNL1        0.2042
     24 O           5.5210    0.3594   -2.8410 O.3     1  UNL1       -0.4885
     25 C           6.0521   -0.3264   -1.7131 C.3     1  UNL1        0.0791
     26 H           5.7292    0.3295    1.2282 H       1  UNL1        0.0660
     27 H           6.9237    1.6814    1.1353 H       1  UNL1        0.0660
     28 H           6.7623    0.7118    2.6025 H       1  UNL1        0.0660
     29 H           4.7484    4.2862    3.2751 H       1  UNL1        0.0658
     30 H           3.0846    7.1993    1.7925 H       1  UNL1        0.0355
     31 H           3.6451    6.4786    3.2823 H       1  UNL1        0.0355
     32 H           6.0281    7.2504    2.7992 H       1  UNL1        0.0570
     33 H           4.3168    9.2510    1.2061 H       1  UNL1        0.0532
     34 H           6.0681    9.4481    1.7882 H       1  UNL1        0.0532
     35 H           3.8804    6.2830   -0.4446 H       1  UNL1        0.0622
     36 H           4.2673    4.1888   -1.6562 H       1  UNL1        0.0655
     37 H           2.0953    2.4677   -0.5794 H       1  UNL1        0.0658
     38 H          -0.4743    1.7414   -3.0510 H       1  UNL1        0.0355
     39 H          -0.1355    2.4729   -1.4979 H       1  UNL1        0.0355
     40 H           0.7351    4.5834   -2.6643 H       1  UNL1        0.0570
     41 H          -1.3338    3.4341   -4.6279 H       1  UNL1        0.0532
     42 H          -0.7200    5.1803   -4.5038 H       1  UNL1        0.0532
     43 H           1.4279    1.1639   -4.6032 H       1  UNL1        0.0658
     44 H           2.4259    0.1727   -6.3657 H       1  UNL1        0.0660
     45 H           3.4343    1.6626   -6.2204 H       1  UNL1        0.0660
     46 H           4.0970    0.1878   -6.9379 H       1  UNL1        0.0660
     47 H           6.6076    0.3711   -1.0809 H       1  UNL1        0.0660
     48 H           5.2865   -0.8592   -1.1373 H       1  UNL1        0.0660
     49 H           6.7703   -1.0685   -2.0757 H       1  UNL1        0.0660
@<TRIPOS>BOND
     1     1    26    1
     2     1    27    1
     3     1    28    1
     4     2     1    1
     5     3     2    1
     6     4     3   ar
     7     4    29    1
     8     5     4   ar
     9     6     5    1
    10     6    30    1
    11     6    31    1
    12     7     6    1
    13     7    32    1
    14     8     7    2
    15     8    33    1
    16     8    34    1
    17     9     5   ar
    18     9    35    1
    19    10     9   ar
    20    10    36    1
    21    11    10   ar
    22    11     3   ar
    23    12    11    1
    24    13    12    1
    25    14    13   ar
    26    14    37    1
    27    15    14   ar
    28    16    15    1
    29    16    38    1
    30    16    39    1
    31    17    16    1
    32    17    40    1
    33    18    17    2
    34    18    41    1
    35    18    42    1
    36    19    15   ar
    37    19    43    1
    38    20    19   ar
    39    21    20    1
    40    22    21    1
    41    22    44    1
    42    22    45    1
    43    22    46    1
    44    23    20   ar
    45    23    13   ar
    46    24    23    1
    47    25    24    1
    48    25    47    1
    49    25    48    1
    50    25    49    1
@<TRIPOS>MOLECULE
mol_410_akc_aac04742_14
>395.sdf
 35 38 0 0 0
SMALL
GASTEIGER

@<TRIPOS>ATOM
      1 C           7.7033   -0.6011   12.8495 C.3     1  UNL1       -0.0252
      2 C           9.0396    0.1781   12.8961 C.3     1  UNL1        0.1051
      3 C           9.8128   -0.1392   14.1942 C.3     1  UNL1       -0.0252
      4 C           8.8228    1.6960   12.7830 C.3     1  UNL1       -0.0096
      5 C           8.1907    2.0520   11.4418 C.3     1  UNL1       -0.0214
      6 C           8.8529    1.2942   10.3348 C.2     1  UNL1        0.0138
      7 C           9.7114    0.2759   10.5471 C.2     1  UNL1        0.1394
      8 O           9.8935   -0.2711   11.8177 O.2     1  UNL1       -0.4871
      9 C          10.5713   -0.2656    9.4571 C.3     1  UNL1        0.1744
     10 C          11.6659   -1.2576    9.8092 C.3     1  UNL1        0.0898
     11 O          11.9799    0.0848    9.4471 O.3     1  UNL1       -0.3551
     12 C           9.9307   -0.1720    8.0803 C.ar    1  UNL1        0.0002
     13 C           8.9791    0.8354    7.8268 C.ar    1  UNL1        0.0014
     14 C           8.4237    1.0219    6.5512 C.ar    1  UNL1       -0.0549
     15 C           8.8069    0.1966    5.4948 C.ar    1  UNL1       -0.0614
     16 C           9.7331   -0.8150    5.7207 C.ar    1  UNL1       -0.0614
     17 C          10.2842   -0.9963    6.9941 C.ar    1  UNL1       -0.0550
     18 C           8.5318    1.7120    8.9401 C.3     1  UNL1        0.1939
     19 O           7.8414    2.7009    8.7235 O.3     1  UNL1       -0.2137
     20 H           6.8444    0.0654   12.9693 H       1  UNL1        0.0268
     21 H           7.5831   -1.1502   11.9109 H       1  UNL1        0.0268
     22 H           7.6230   -1.3382   13.6553 H       1  UNL1        0.0268
     23 H          10.8163   -0.5268   13.9801 H       1  UNL1        0.0268
     24 H           9.9300    0.7469   14.8264 H       1  UNL1        0.0268
     25 H           9.3101   -0.8908   14.8119 H       1  UNL1        0.0268
     26 H           8.2045    2.0748   13.6052 H       1  UNL1        0.0307
     27 H           9.7960    2.2044   12.8491 H       1  UNL1        0.0307
     28 H           8.3001    3.1323   11.2847 H       1  UNL1        0.0313
     29 H           7.1174    1.8334   11.4494 H       1  UNL1        0.0313
     30 H          11.9482   -2.0384    9.1182 H       1  UNL1        0.0597
     31 H          11.8294   -1.5321   10.8446 H       1  UNL1        0.0597
     32 H           7.6935    1.8115    6.3807 H       1  UNL1        0.0621
     33 H           8.3861    0.3470    4.5062 H       1  UNL1        0.0618
     34 H          10.0432   -1.4578    4.9001 H       1  UNL1        0.0618
     35 H          11.0252   -1.7814    7.1198 H       1  UNL1        0.0621
@<TRIPOS>BOND
     1     1    20    1
     2     1    21    1
     3     1    22    1
     4     3    23    1
     5     3    24    1
     6     3    25    1
     7     4     2    1
     8     5     4    1
     9     6     5    1
    10     7     6    2
    11     8     7    1
    12     8     2    1
    13     9     7    1
    14    10     9    1
    15    11    10    1
    16    11     9    1
    17    12     9    1
    18    13    12   ar
    19    14    13   ar
    20    15    14   ar
    21    16    15   ar
    22    17    16   ar
    23    17    12   ar
    24    18    13    1
    25    18     6    1
    26     2     1    1
    27     3     2    1
    28     4    26    1
    29     4    27    1
    30     5    28    1
    31     5    29    1
    32    10    30    1
    33    10    31    1
    34    14    32    1
    35    15    33    1
    36    16    34    1
    37    17    35    1
    38    19    18    2
@<TRIPOS>MOLECULE
mol_411_akc_jjtcme201411004
>396.sdf
 30 32 0 0 0
SMALL
GASTEIGER

@<TRIPOS>ATOM
      1 O           1.6058    1.0117   -0.6375 O.3     1  UNL1       -0.3904
      2 C           2.4626    0.1149    0.0548 C.3     1  UNL1        0.0694
      3 C           2.8573   -1.0229   -0.8487 C.ar    1  UNL1       -0.0180
      4 C           3.5562   -0.7881   -2.0394 C.ar    1  UNL1       -0.0141
      5 C           3.8927   -1.8495   -2.8900 C.ar    1  UNL1        0.1287
      6 O           4.5734   -1.5674   -4.0400 O.3     1  UNL1       -0.5060
      7 C           3.5312   -3.1689   -2.5743 C.ar    1  UNL1        0.0745
      8 C           3.8399   -4.3196   -3.4661 C.2     1  UNL1        0.2015
      9 O           4.4496   -4.1980   -4.5227 O.2     1  UNL1       -0.2864
     10 C           3.3937   -5.6796   -3.0902 C.ar    1  UNL1        0.0745
     11 C           2.6961   -5.8861   -1.9031 C.ar    1  UNL1        0.0366
     12 C           2.2530   -7.1700   -1.5509 C.ar    1  UNL1       -0.0500
     13 C           2.5157   -8.2539   -2.3871 C.ar    1  UNL1       -0.0576
     14 C           3.2219   -8.0579   -3.5719 C.ar    1  UNL1       -0.0194
     15 C           3.6568   -6.7799   -3.9206 C.ar    1  UNL1        0.1283
     16 O           4.3419   -6.6789   -5.1022 O.3     1  UNL1       -0.5060
     17 C           2.4140   -4.7588   -1.0010 C.2     1  UNL1        0.1947
     18 O           1.8182   -4.9447    0.0531 O.2     1  UNL1       -0.2866
     19 C           2.8446   -3.3998   -1.3811 C.ar    1  UNL1        0.0369
     20 C           2.5224   -2.3388   -0.5186 C.ar    1  UNL1       -0.0446
     21 H           0.9056    0.4811   -1.0551 H       1  UNL1        0.2098
     22 H           3.3471    0.6624    0.3945 H       1  UNL1        0.0607
     23 H           1.9312   -0.2482    0.9409 H       1  UNL1        0.0607
     24 H           3.8263    0.2345   -2.2978 H       1  UNL1        0.0658
     25 H           4.7333   -0.6133   -4.1193 H       1  UNL1        0.2922
     26 H           1.7016   -7.3283   -0.6251 H       1  UNL1        0.0625
     27 H           2.1719   -9.2492   -2.1156 H       1  UNL1        0.0619
     28 H           3.4342   -8.8989   -4.2277 H       1  UNL1        0.0654
     29 H           4.5847   -5.7321   -5.2311 H       1  UNL1        0.2922
     30 H           1.9948   -2.5468    0.4125 H       1  UNL1        0.0628
@<TRIPOS>BOND
     1     1    21    1
     2     2     1    1
     3     2    22    1
     4     2    23    1
     5     3     2    1
     6     4     3   ar
     7     4    24    1
     8     5     4   ar
     9     6     5    1
    10     6    25    1
    11     7     5   ar
    12     8     7    1
    13     9     8    2
    14    10     8    1
    15    11    10   ar
    16    12    11   ar
    17    12    26    1
    18    13    12   ar
    19    13    27    1
    20    14    13   ar
    21    14    28    1
    22    15    14   ar
    23    15    10   ar
    24    16    15    1
    25    16    29    1
    26    17    11    1
    27    18    17    2
    28    19    17    1
    29    19     7   ar
    30    20    19   ar
    31    20     3   ar
    32    20    30    1
@<TRIPOS>MOLECULE
mol_412_akc_c4md00441h
>397.sdf
 68 72 0 0 0
SMALL
GASTEIGER

@<TRIPOS>ATOM
      1 C           5.0427    1.3562    0.4263 C.3     1  UNL1       -0.0363
      2 C           4.0973    1.2518   -0.7766 C.3     1  UNL1        0.0616
      3 C           2.6341    1.2943   -0.3219 C.3     1  UNL1       -0.0363
      4 C           4.3569    2.4510   -1.7022 C.3     1  UNL1       -0.0363
      5 O           4.3749    0.0902   -1.5755 O.3     1  UNL1       -0.3696
      6 C           4.1579   -1.1879   -0.9778 C.3     1  UNL1        0.0734
      7 C           4.5428   -2.2816   -1.9532 C.ar    1  UNL1       -0.0219
      8 C           5.7643   -2.2216   -2.6184 C.ar    1  UNL1       -0.0558
      9 C           6.1691   -3.2705   -3.4498 C.ar    1  UNL1       -0.0537
     10 C           5.4040   -4.4495   -3.6252 C.ar    1  UNL1       -0.0178
     11 C           4.1592   -4.4786   -2.9863 C.ar    1  UNL1       -0.0537
     12 C           3.7363   -3.4136   -2.1618 C.ar    1  UNL1       -0.0558
     13 C           5.9806   -5.5949   -4.3868 C.ar    1  UNL1       -0.0171
     14 C           7.3648   -5.8030   -4.3028 C.ar    1  UNL1       -0.0520
     15 C           8.0179   -6.7455   -5.0854 C.ar    1  UNL1       -0.0350
     16 C           7.3315   -7.5651   -5.9484 C.ar    1  UNL1        0.0760
     17 N           8.1001   -8.3561   -6.6942 N.ar    1  UNL1       -0.2353
     18 C           7.4779   -9.1487   -7.5544 C.ar    1  UNL1        0.1187
     19 N           6.1590   -9.2493   -7.6898 N.ar    1  UNL1       -0.2200
     20 C           5.3871   -8.4394   -6.9248 C.ar    1  UNL1        0.1339
     21 N           4.0595   -8.5766   -7.3179 N.pl3   1  UNL1       -0.2988
     22 C           2.7888   -8.5273   -6.7273 C.ar    1  UNL1        0.0340
     23 C           1.8302   -7.7701   -7.4053 C.ar    1  UNL1       -0.0370
     24 C           0.4678   -7.9104   -7.1337 C.ar    1  UNL1       -0.0167
     25 C           0.0034   -8.8391   -6.1965 C.ar    1  UNL1        0.1393
     26 O          -1.3620   -8.8241   -6.1078 O.3     1  UNL1       -0.4859
     27 C          -2.0668   -9.9972   -5.7106 C.3     1  UNL1        0.1148
     28 C          -3.5205   -9.8743   -6.1309 C.ar    1  UNL1       -0.0077
     29 C          -4.1133  -10.8082   -6.9923 C.ar    1  UNL1       -0.0552
     30 C          -5.4675  -10.7143   -7.3317 C.ar    1  UNL1       -0.0587
     31 C          -6.2501   -9.6849   -6.8129 C.ar    1  UNL1       -0.0264
     32 C          -5.6714   -8.7482   -5.9670 C.ar    1  UNL1        0.1238
     33 F          -6.4157   -7.7605   -5.4638 F       1  UNL1       -0.2055
     34 C          -4.3192   -8.8332   -5.6210 C.ar    1  UNL1       -0.0201
     35 C           0.9582   -9.5958   -5.4974 C.ar    1  UNL1        0.0843
     36 CL          0.5581  -10.7570   -4.2795 Cl      1  UNL1       -0.0797
     37 C           2.3399   -9.4443   -5.7720 C.ar    1  UNL1       -0.0186
     38 C           5.9250   -7.5025   -6.0106 C.ar    1  UNL1        0.0410
     39 C           5.2608   -6.4887   -5.2191 C.ar    1  UNL1       -0.0415
     40 H           4.9210    2.3131    0.9488 H       1  UNL1        0.0257
     41 H           4.8611    0.5604    1.1552 H       1  UNL1        0.0257
     42 H           6.0889    1.2675    0.1113 H       1  UNL1        0.0257
     43 H           2.3863    2.2560    0.1412 H       1  UNL1        0.0257
     44 H           1.9584    1.1313   -1.1688 H       1  UNL1        0.0257
     45 H           2.4189    0.5127    0.4142 H       1  UNL1        0.0257
     46 H           5.3936    2.4524   -2.0590 H       1  UNL1        0.0257
     47 H           3.7220    2.3998   -2.5940 H       1  UNL1        0.0257
     48 H           4.1663    3.4046   -1.1970 H       1  UNL1        0.0257
     49 H           4.7779   -1.3005   -0.0816 H       1  UNL1        0.0610
     50 H           3.1056   -1.2968   -0.7007 H       1  UNL1        0.0610
     51 H           6.4196   -1.3618   -2.4845 H       1  UNL1        0.0621
     52 H           7.1304   -3.1567   -3.9501 H       1  UNL1        0.0624
     53 H           3.5119   -5.3490   -3.0811 H       1  UNL1        0.0624
     54 H           2.7717   -3.4884   -1.6626 H       1  UNL1        0.0621
     55 H           7.9811   -5.2035   -3.6336 H       1  UNL1        0.0624
     56 H           9.1031   -6.8159   -5.0308 H       1  UNL1        0.0639
     57 H           8.0956   -9.7541   -8.2073 H       1  UNL1        0.1048
     58 H           4.0851   -9.3445   -7.9925 H       1  UNL1        0.1536
     59 H           2.1466   -7.0997   -8.2020 H       1  UNL1        0.0637
     60 H          -0.2443   -7.3141   -7.7032 H       1  UNL1        0.0655
     61 H          -1.6302  -10.8943   -6.1664 H       1  UNL1        0.0748
     62 H          -2.0543  -10.0839   -4.6183 H       1  UNL1        0.0748
     63 H          -3.5228  -11.6243   -7.4028 H       1  UNL1        0.0621
     64 H          -5.9161  -11.4519   -7.9982 H       1  UNL1        0.0619
     65 H          -7.3022   -9.6031   -7.0632 H       1  UNL1        0.0646
     66 H          -3.9009   -8.0904   -4.9552 H       1  UNL1        0.0650
     67 H           3.0570  -10.0958   -5.2767 H       1  UNL1        0.0652
     68 H           4.1805   -6.3867   -5.3081 H       1  UNL1        0.0631
@<TRIPOS>BOND
     1     1    40    1
     2     1    41    1
     3     1    42    1
     4     2     1    1
     5     3     2    1
     6     3    43    1
     7     3    44    1
     8     3    45    1
     9     4     2    1
    10     4    46    1
    11     4    47    1
    12     4    48    1
    13     5     2    1
    14     6     5    1
    15     6    49    1
    16     6    50    1
    17     7     6    1
    18     8     7   ar
    19     8    51    1
    20     9     8   ar
    21     9    52    1
    22    10     9   ar
    23    11    10   ar
    24    11    53    1
    25    12    11   ar
    26    12     7   ar
    27    12    54    1
    28    13    10    1
    29    14    13   ar
    30    14    55    1
    31    15    14   ar
    32    15    56    1
    33    16    15   ar
    34    17    16   ar
    35    18    17   ar
    36    18    57    1
    37    19    18   ar
    38    20    19   ar
    39    21    20    1
    40    21    58    1
    41    22    21    1
    42    23    22   ar
    43    23    59    1
    44    24    23   ar
    45    24    60    1
    46    25    24   ar
    47    26    25    1
    48    27    26    1
    49    27    61    1
    50    27    62    1
    51    28    27    1
    52    29    28   ar
    53    29    63    1
    54    30    29   ar
    55    30    64    1
    56    31    30   ar
    57    31    65    1
    58    32    31   ar
    59    33    32    1
    60    34    32   ar
    61    34    28   ar
    62    34    66    1
    63    35    25   ar
    64    36    35    1
    65    37    35   ar
    66    37    22   ar
    67    37    67    1
    68    38    20   ar
    69    38    16   ar
    70    39    38   ar
    71    39    13   ar
    72    39    68    1
@<TRIPOS>MOLECULE
mol_413_akc_jacdku422
>398.sdf
 33 35 0 0 0
SMALL
GASTEIGER

@<TRIPOS>ATOM
      1 C           3.1112   -0.0026    1.4097 C.3     1  UNL1       -0.0198
      2 C           2.6044   -0.1247   -0.0294 C.3     1  UNL1        0.1623
      3 C           1.0691   -0.0101   -0.1029 C.3     1  UNL1        0.1306
      4 O           0.6377    1.2016    0.5207 O.3     1  UNL1       -0.4880
      5 C          -0.7107    1.4059    0.6191 C.ar    1  UNL1        0.1207
      6 C          -1.7058    0.5594    0.1284 C.ar    1  UNL1       -0.0199
      7 C          -3.0542    0.8784    0.3147 C.ar    1  UNL1       -0.0583
      8 C          -3.4133    2.0451    0.9870 C.ar    1  UNL1       -0.0615
      9 C          -2.4244    2.8992    1.4688 C.ar    1  UNL1       -0.0583
     10 C          -1.0783    2.5795    1.2827 C.ar    1  UNL1       -0.0199
     11 C           3.0807   -1.4605   -0.6766 C.3     1  UNL1        0.0705
     12 N           3.8406   -0.9640   -1.7899 N.ar    1  UNL1       -0.2948
     13 C           4.5460   -1.4481   -2.8232 C.ar    1  UNL1        0.0586
     14 C           4.9983   -0.2887   -3.4517 C.ar    1  UNL1        0.2357
     15 N           4.5614    0.8645   -2.7950 N.ar    1  UNL1       -0.1709
     16 C           3.8705    0.3834   -1.8020 C.ar    1  UNL1        0.3011
     17 O           3.2036    0.9625   -0.8185 O.3     1  UNL1       -0.4520
     18 N           5.8233   -0.2120   -4.6373 N.pl3   1  UNL1        0.0767
     19 O           6.1642   -1.2939   -5.1438 O.2     1  UNL1       -0.1246
     20 O           6.1291    0.9090   -5.0629 O.2     1  UNL1       -0.1246
     21 H           2.7995    0.9428    1.8659 H       1  UNL1        0.0270
     22 H           2.7398   -0.8257    2.0294 H       1  UNL1        0.0270
     23 H           4.2064   -0.0107    1.4402 H       1  UNL1        0.0270
     24 H           0.7514   -0.0020   -1.1530 H       1  UNL1        0.0737
     25 H           0.6272   -0.8692    0.4179 H       1  UNL1        0.0737
     26 H          -1.4716   -0.3543   -0.4056 H       1  UNL1        0.0654
     27 H          -3.8255    0.2148   -0.0677 H       1  UNL1        0.0619
     28 H          -4.4623    2.2900    1.1312 H       1  UNL1        0.0618
     29 H          -2.6984    3.8135    1.9883 H       1  UNL1        0.0619
     30 H          -0.3095    3.2511    1.6578 H       1  UNL1        0.0654
     31 H           3.7476   -2.0451   -0.0367 H       1  UNL1        0.0534
     32 H           2.2662   -2.0840   -1.0560 H       1  UNL1        0.0534
     33 H           4.6858   -2.4975   -3.0432 H       1  UNL1        0.0850
@<TRIPOS>BOND
     1     1    21    1
     2     1    22    1
     3     1    23    1
     4     3    24    1
     5     3    25    1
     6     4     3    1
     7     5     4    1
     8     6     5   ar
     9     6    26    1
    10     7     6   ar
    11     7    27    1
    12     8     7   ar
    13     8    28    1
    14     9     8   ar
    15     9    29    1
    16    10     9   ar
    17    10     5   ar
    18    10    30    1
    19    11     2    1
    20    11    31    1
    21    11    32    1
    22    12    11    1
    23    13    12   ar
    24    13    33    1
    25    14    13   ar
    26    15    14   ar
    27    16    15   ar
    28    16    12   ar
    29    17    16    1
    30    17     2    1
    31    18    14    1
    32    19    18    2
    33    20    18    2
    34     2     3    1
    35     2     1    1
@<TRIPOS>MOLECULE
mol_414_akc_aac04003_14
>399.sdf
 48 47 0 0 0
SMALL
GASTEIGER

@<TRIPOS>ATOM
      1 C          16.5591    1.0237  -11.4735 C.3     1  UNL1       -0.0653
      2 C          16.2393    2.4412  -11.0302 C.3     1  UNL1       -0.0559
      3 C          14.7318    2.6836  -10.9773 C.3     1  UNL1       -0.0533
      4 C          14.4145    4.1171  -10.5497 C.3     1  UNL1       -0.0531
      5 C          12.9042    4.3514  -10.4899 C.3     1  UNL1       -0.0531
      6 C          12.5815    5.7923  -10.0921 C.3     1  UNL1       -0.0531
      7 C          11.0780    6.0607   -9.9696 C.3     1  UNL1       -0.0531
      8 C          10.3448    5.2471   -8.8942 C.3     1  UNL1       -0.0529
      9 C          10.9617    5.2992   -7.4913 C.3     1  UNL1       -0.0479
     10 C          11.0358    6.7186   -6.9144 C.3     1  UNL1       -0.0076
     11 CA         11.6704    6.7957   -5.5111 C.3     1  UNL1        0.0010
     12 C          11.6248    8.2469   -4.9846 C.3     1  UNL1        0.0868
     13 O          12.6118    9.0092   -5.6831 O.3     1  UNL1       -0.3895
     14 N          13.1270    6.3953   -5.6277 N.4     1  UNL1        0.2306
     15 C          13.8685    6.2020   -4.3481 C.3     1  UNL1       -0.0362
     16 C          15.2271    5.6065   -4.6599 C.3     1  UNL1       -0.0245
     17 H          17.6436    0.8729  -11.5090 H       1  UNL1        0.0230
     18 H          16.1367    0.2891  -10.7789 H       1  UNL1        0.0230
     19 H          16.1562    0.8237  -12.4713 H       1  UNL1        0.0230
     20 H          16.6794    2.6184  -10.0420 H       1  UNL1        0.0263
     21 H          16.7056    3.1491  -11.7248 H       1  UNL1        0.0263
     22 H          14.2925    2.4899  -11.9635 H       1  UNL1        0.0265
     23 H          14.2709    1.9786  -10.2744 H       1  UNL1        0.0265
     24 H          14.8538    4.3119   -9.5634 H       1  UNL1        0.0265
     25 H          14.8717    4.8228  -11.2534 H       1  UNL1        0.0265
     26 H          12.4565    4.1360  -11.4676 H       1  UNL1        0.0265
     27 H          12.4671    3.6501   -9.7714 H       1  UNL1        0.0265
     28 H          13.0884    6.0456   -9.1539 H       1  UNL1        0.0265
     29 H          12.9912    6.4710  -10.8510 H       1  UNL1        0.0265
     30 H          10.9304    7.1297   -9.7750 H       1  UNL1        0.0265
     31 H          10.5999    5.8648  -10.9376 H       1  UNL1        0.0265
     32 H           9.3062    5.5949   -8.8429 H       1  UNL1        0.0265
     33 H          10.2944    4.1979   -9.2098 H       1  UNL1        0.0265
     34 H          10.3554    4.6758   -6.8223 H       1  UNL1        0.0267
     35 H          11.9494    4.8321   -7.5277 H       1  UNL1        0.0267
     36 H          11.5899    7.3739   -7.5962 H       1  UNL1        0.0320
     37 H          10.0144    7.1176   -6.8609 H       1  UNL1        0.0320
     38 HA         11.1761    6.1002   -4.8248 H       1  UNL1        0.0873
     39 H1         10.6392    8.6985   -5.1340 H       1  UNL1        0.0614
     40 H2         11.8661    8.2824   -3.9171 H       1  UNL1        0.0614
     41 H          12.4604    9.9517   -5.4625 H       1  UNL1        0.2097
     42 H1         13.2327    5.5574   -6.2086 H       1  UNL1        0.2017
     43 H2         13.5753    7.1742   -6.1438 H       1  UNL1        0.2017
     44 H          13.9705    7.1792   -3.8696 H       1  UNL1        0.0811
     45 H          13.2798    5.5308   -3.7159 H       1  UNL1        0.0811
     46 H          15.1265    4.5889   -5.0522 H       1  UNL1        0.0281
     47 H          15.7652    6.2054   -5.4021 H       1  UNL1        0.0281
     48 H          15.8367    5.5591   -3.7526 H       1  UNL1        0.0281
@<TRIPOS>UNITY_ATOM_ATTR
14 1
charge 1
@<TRIPOS>BOND
     1     1    17    1
     2     1    18    1
     3     1    19    1
     4     2     1    1
     5     2    20    1
     6     2    21    1
     7     3     2    1
     8     3    22    1
     9     3    23    1
    10     4     3    1
    11     4    24    1
    12     4    25    1
    13     5     4    1
    14     5    26    1
    15     5    27    1
    16     6     5    1
    17     6    28    1
    18     6    29    1
    19     7     6    1
    20     7    30    1
    21     7    31    1
    22     8     7    1
    23     8    32    1
    24     8    33    1
    25     9     8    1
    26     9    34    1
    27     9    35    1
    28    10     9    1
    29    10    36    1
    30    10    37    1
    31    12    11    1
    32    12    39    1
    33    12    40    1
    34    13    12    1
    35    13    41    1
    36    14    11    1
    37    14    42    1
    38    14    43    1
    39    15    14    1
    40    15    44    1
    41    15    45    1
    42    16    15    1
    43    16    46    1
    44    16    47    1
    45    16    48    1
    46    11    38    1
    47    11    10    1
@<TRIPOS>MOLECULE
mol_415_akc_jbmcl201409078
>400.sdf
 109 115 0 0 0
SMALL
GASTEIGER

@<TRIPOS>ATOM
      1 C           1.7802   -0.2096   -1.1099 C.3     1  UNL1        0.0790
      2 O           2.1914    1.1328   -0.8723 O.3     1  UNL1       -0.4914
      3 C           2.9001    1.3195    0.2848 C.ar    1  UNL1        0.1621
      4 C           2.4166    1.0843    1.5805 C.ar    1  UNL1        0.1624
      5 O           1.2421    0.5151    1.9740 O.3     1  UNL1       -0.4837
      6 C           0.0854    0.7797    1.1986 C.3     1  UNL1        0.1148
      7 C          -1.0778    1.2697    2.0211 C.ar    1  UNL1       -0.0104
      8 C          -0.9863    1.5689    3.3859 C.ar    1  UNL1       -0.0554
      9 C          -2.0959    2.0827    4.0618 C.ar    1  UNL1       -0.0614
     10 C          -3.2943    2.2992    3.3829 C.ar    1  UNL1       -0.0617
     11 C          -3.4040    1.9961    2.0277 C.ar    1  UNL1       -0.0614
     12 C          -2.2953    1.4737    1.3552 C.ar    1  UNL1       -0.0554
     13 C           3.2128    1.4432    2.6644 C.ar    1  UNL1       -0.0157
     14 C           4.4542    2.0321    2.4645 C.ar    1  UNL1       -0.0509
     15 C           5.0160    2.1219    1.1969 C.ar    1  UNL1       -0.0209
     16 C           6.4435    2.4548    1.0500 C.2     1  UNL1       -0.0461
     17 C           7.4477    1.8643    1.7425 C.2     1  UNL1        0.0174
     18 C           7.3271    0.7668    2.7705 C.3     1  UNL1        0.0441
     19 N           8.3174    0.9811    3.8131 N.am    1  UNL1       -0.2873
     20 C           9.6701    0.7739    3.3456 C.3     1  UNL1        0.0441
     21 C           9.9697    1.7979    2.2924 C.2     1  UNL1        0.0174
     22 C          11.2000    2.3036    2.0619 C.2     1  UNL1       -0.0461
     23 C          12.4041    1.8186    2.7366 C.ar    1  UNL1       -0.0209
     24 C          12.8658    2.3701    3.9371 C.ar    1  UNL1       -0.0091
     25 C          14.0128    1.8620    4.5743 C.ar    1  UNL1        0.1621
     26 O          14.2982    2.4905    5.7602 O.3     1  UNL1       -0.4914
     27 C          15.6669    2.5798    6.1342 C.3     1  UNL1        0.0790
     28 C          14.6955    0.7744    4.0058 C.ar    1  UNL1        0.1624
     29 O          15.7757    0.2339    4.6600 O.3     1  UNL1       -0.4837
     30 C          16.7659   -0.3522    3.8101 C.3     1  UNL1        0.1148
     31 C          17.9578   -0.8560    4.5886 C.ar    1  UNL1       -0.0104
     32 C          17.8269   -1.3759    5.8828 C.ar    1  UNL1       -0.0554
     33 C          18.9253   -1.9480    6.5264 C.ar    1  UNL1       -0.0614
     34 C          20.1591   -2.0150    5.8810 C.ar    1  UNL1       -0.0617
     35 C          20.2986   -1.5071    4.5909 C.ar    1  UNL1       -0.0614
     36 C          19.2035   -0.9333    3.9476 C.ar    1  UNL1       -0.0554
     37 C          14.1993    0.2064    2.8234 C.ar    1  UNL1       -0.0157
     38 C          13.0750    0.7308    2.1894 C.ar    1  UNL1       -0.0509
     39 C           8.8529    2.2885    1.4089 C.2     1  UNL1        0.1883
     40 O           9.0886    2.9866    0.4232 O.2     1  UNL1       -0.2872
     41 C           8.1435    1.6537    5.0360 C.2     1  UNL1        0.2689
     42 O           9.1171    1.9924    5.7107 O.2     1  UNL1       -0.2682
     43 C           6.8037    2.0122    5.5175 C.ar    1  UNL1        0.1684
     44 N           5.7231    1.2357    5.3675 N.ar    1  UNL1       -0.0730
     45 O           4.6702    1.9283    5.9221 O.2     1  UNL1       -0.3545
     46 C           5.0959    3.1011    6.4995 C.ar    1  UNL1        0.1606
     47 C           4.2498    4.0051    7.1983 C.2     1  UNL1       -0.0200
     48 C           2.9149    3.8392    7.2268 C.2     1  UNL1       -0.0729
     49 C           1.9787    4.7048    8.0549 C.3     1  UNL1        0.0034
     50 C           1.2458    3.8148    9.0628 C.2     1  UNL1       -0.0692
     51 C           2.0819    3.2109   10.1608 C.3     1  UNL1       -0.0432
     52 C          -0.0780    3.5762    8.9981 C.2     1  UNL1       -0.0844
     53 C          -0.9838    4.1228    7.9374 C.3     1  UNL1       -0.0340
     54 C          -0.2289    4.7445    6.7619 C.3     1  UNL1       -0.0436
     55 C           0.9903    5.5879    7.2061 C.3     1  UNL1       -0.0247
     56 C           0.5169    6.7880    8.0664 C.3     1  UNL1       -0.0590
     57 C           1.6646    6.1779    5.9498 C.3     1  UNL1       -0.0590
     58 C           6.4621    3.1575    6.2879 C.ar    1  UNL1        0.0170
     59 C           4.1922    1.8530    0.0999 C.ar    1  UNL1       -0.0091
     60 H           2.4001   -0.6369   -1.9023 H       1  UNL1        0.0660
     61 H           1.8279   -0.8603   -0.2317 H       1  UNL1        0.0660
     62 H           0.7466   -0.1781   -1.4706 H       1  UNL1        0.0660
     63 H           0.2528    1.5394    0.4294 H       1  UNL1        0.0748
     64 H          -0.2169   -0.1671    0.7383 H       1  UNL1        0.0748
     65 H          -0.0559    1.4185    3.9282 H       1  UNL1        0.0621
     66 H          -2.0191    2.3220    5.1171 H       1  UNL1        0.0618
     67 H          -4.1492    2.7127    3.9089 H       1  UNL1        0.0618
     68 H          -4.3285    2.1574    1.4956 H       1  UNL1        0.0618
     69 H          -2.3800    1.2445    0.2949 H       1  UNL1        0.0621
     70 H           2.8689    1.2666    3.6811 H       1  UNL1        0.0655
     71 H           5.0128    2.3739    3.3251 H       1  UNL1        0.0625
     72 H           6.6636    3.1984    0.2846 H       1  UNL1        0.0628
     73 H           6.3415    0.6429    3.1945 H       1  UNL1        0.0515
     74 H           7.5507   -0.1940    2.2883 H       1  UNL1        0.0515
     75 H          10.3725    0.8062    4.1806 H       1  UNL1        0.0515
     76 H           9.7322   -0.2353    2.9169 H       1  UNL1        0.0515
     77 H          11.3755    3.0429    1.2837 H       1  UNL1        0.0628
     78 H          12.3300    3.1977    4.3958 H       1  UNL1        0.0661
     79 H          16.0481    1.6258    6.5069 H       1  UNL1        0.0660
     80 H          16.2819    2.9722    5.3177 H       1  UNL1        0.0660
     81 H          15.7320    3.2857    6.9684 H       1  UNL1        0.0660
     82 H          16.3659   -1.2320    3.2934 H       1  UNL1        0.0748
     83 H          17.0960    0.3981    3.0804 H       1  UNL1        0.0748
     84 H          16.8642   -1.3535    6.3901 H       1  UNL1        0.0621
     85 H          18.8140   -2.3554    7.5283 H       1  UNL1        0.0618
     86 H          21.0095   -2.4725    6.3781 H       1  UNL1        0.0618
     87 H          21.2558   -1.5706    4.0805 H       1  UNL1        0.0618
     88 H          19.3217   -0.5644    2.9309 H       1  UNL1        0.0621
     89 H          14.6432   -0.6738    2.3750 H       1  UNL1        0.0655
     90 H          12.7191    0.2656    1.2737 H       1  UNL1        0.0625
     91 H           4.7129    4.8234    7.7442 H       1  UNL1        0.0652
     92 H           2.4482    3.0261    6.6733 H       1  UNL1        0.0579
     93 H           2.5970    5.4018    8.6401 H       1  UNL1        0.0393
     94 H           2.7413    2.4345    9.7596 H       1  UNL1        0.0275
     95 H           2.6962    3.9784   10.6420 H       1  UNL1        0.0275
     96 H           1.4640    2.7510   10.9396 H       1  UNL1        0.0275
     97 H          -0.5538    2.9517    9.7513 H       1  UNL1        0.0572
     98 H          -1.6304    3.3209    7.5639 H       1  UNL1        0.0308
     99 H          -1.6455    4.8677    8.3954 H       1  UNL1        0.0308
    100 H           0.1078    3.9384    6.0960 H       1  UNL1        0.0274
    101 H          -0.9269    5.3532    6.1731 H       1  UNL1        0.0274
    102 H           1.3702    7.3994    8.3828 H       1  UNL1        0.0235
    103 H          -0.1609    7.4366    7.5000 H       1  UNL1        0.0235
    104 H          -0.0084    6.4772    8.9745 H       1  UNL1        0.0235
    105 H           0.9917    6.8745    5.4353 H       1  UNL1        0.0235
    106 H           2.5752    6.7282    6.2097 H       1  UNL1        0.0235
    107 H           1.9284    5.4000    5.2251 H       1  UNL1        0.0235
    108 H           7.1395    3.9303    6.6295 H       1  UNL1        0.0679
    109 H           4.5526    2.0254   -0.9114 H       1  UNL1        0.0661
@<TRIPOS>BOND
     1     1    60    1
     2     1    61    1
     3     1    62    1
     4     2     1    1
     5     3     2    1
     6     4     3   ar
     7     5     4    1
     8     6     5    1
     9     6    63    1
    10     6    64    1
    11     7     6    1
    12     8     7   ar
    13     8    65    1
    14     9     8   ar
    15     9    66    1
    16    10     9   ar
    17    10    67    1
    18    11    10   ar
    19    11    68    1
    20    12    11   ar
    21    12     7   ar
    22    12    69    1
    23    13     4   ar
    24    13    70    1
    25    14    13   ar
    26    14    71    1
    27    15    14   ar
    28    16    15    1
    29    16    72    1
    30    17    16    2
    31    18    17    1
    32    18    73    1
    33    18    74    1
    34    19    18    1
    35    20    19    1
    36    20    75    1
    37    20    76    1
    38    21    20    1
    39    22    21    2
    40    22    77    1
    41    23    22    1
    42    24    23   ar
    43    24    78    1
    44    25    24   ar
    45    26    25    1
    46    27    26    1
    47    27    79    1
    48    27    80    1
    49    27    81    1
    50    28    25   ar
    51    29    28    1
    52    30    29    1
    53    30    82    1
    54    30    83    1
    55    31    30    1
    56    32    31   ar
    57    32    84    1
    58    33    32   ar
    59    33    85    1
    60    34    33   ar
    61    34    86    1
    62    35    34   ar
    63    35    87    1
    64    36    35   ar
    65    36    31   ar
    66    36    88    1
    67    37    28   ar
    68    37    89    1
    69    38    37   ar
    70    38    23   ar
    71    38    90    1
    72    39    21    1
    73    39    17    1
    74    40    39    2
    75    41    19   am
    76    42    41    2
    77    43    41    1
    78    44    43   ar
    79    45    44   ar
    80    46    45   ar
    81    47    46    1
    82    47    91    1
    83    48    47    2
    84    48    92    1
    85    49    48    1
    86    49    93    1
    87    50    49    1
    88    51    50    1
    89    51    94    1
    90    51    95    1
    91    51    96    1
    92    52    50    2
    93    52    97    1
    94    53    52    1
    95    53    98    1
    96    53    99    1
    97    54    53    1
    98    54   100    1
    99    54   101    1
   100    55    54    1
   101    55    49    1
   102    56    55    1
   103    56   102    1
   104    56   103    1
   105    56   104    1
   106    57    55    1
   107    57   105    1
   108    57   106    1
   109    57   107    1
   110    58    46   ar
   111    58    43   ar
   112    58   108    1
   113    59    15   ar
   114    59     3   ar
   115    59   109    1
@<TRIPOS>MOLECULE
mol_416_akc_jbmcl201411073
>401.sdf
 40 39 0 0 0
SMALL
GASTEIGER

@<TRIPOS>ATOM
      1 C           1.1816   -4.8511    4.4272 C.3     1  UNL1        0.0371
      2 O           2.6004   -4.7319    4.3412 O.3     1  UNL1       -0.3738
      3 C           3.0551   -3.5897    5.0646 C.3     1  UNL1        0.1233
      4 C           4.5728   -3.5279    5.0158 C.2     1  UNL1        0.2388
      5 O           5.2912   -3.5021    6.0182 O.2     1  UNL1       -0.2733
      6 N           5.1038   -3.4767    3.7365 N.am    1  UNL1       -0.3132
      7 C           6.5305   -3.4887    3.5999 C.3     1  UNL1        0.0165
      8 C           7.0305   -3.5443    2.1646 C.3     1  UNL1        0.0030
      9 C           8.5559   -3.4999    2.1059 C.3     1  UNL1       -0.0322
     10 N           9.1506   -4.6989    2.7967 N.4     1  UNL1        0.2270
     11 C          10.6426   -4.7143    2.8095 C.3     1  UNL1       -0.0335
     12 C          11.1295   -5.9520    3.5685 C.3     1  UNL1       -0.0078
     13 C          12.6637   -6.0119    3.6111 C.3     1  UNL1       -0.0078
     14 C          13.1762   -7.2446    4.3542 C.3     1  UNL1       -0.0352
     15 N          14.6581   -7.2420    4.3546 N.4     1  UNL1        0.2185
     16 H           0.8561   -4.8913    5.4718 H       1  UNL1        0.0524
     17 H           0.7073   -4.0078    3.9175 H       1  UNL1        0.0524
     18 H           0.8815   -5.7772    3.9320 H       1  UNL1        0.0524
     19 H           2.6589   -2.6771    4.6063 H       1  UNL1        0.0656
     20 H           2.7400   -3.6448    6.1123 H       1  UNL1        0.0656
     21 H           4.4713   -3.7141    2.9737 H       1  UNL1        0.1487
     22 H           6.9221   -2.5970    4.1035 H       1  UNL1        0.0464
     23 H           6.8866   -4.3606    4.1592 H       1  UNL1        0.0464
     24 H           6.6591   -4.4488    1.6684 H       1  UNL1        0.0332
     25 H           6.6290   -2.6916    1.6038 H       1  UNL1        0.0332
     26 H           8.9062   -3.5248    1.0689 H       1  UNL1        0.0814
     27 H           8.9505   -2.6083    2.6046 H       1  UNL1        0.0814
     28 H           8.8212   -4.7297    3.7721 H       1  UNL1        0.2013
     29 H           8.7826   -5.5496    2.3459 H       1  UNL1        0.2013
     30 H          10.9796   -4.7228    1.7682 H       1  UNL1        0.0814
     31 H          10.9733   -3.7951    3.3039 H       1  UNL1        0.0814
     32 H          10.7363   -5.9378    4.5926 H       1  UNL1        0.0319
     33 H          10.7395   -6.8576    3.0885 H       1  UNL1        0.0319
     34 H          13.0518   -6.0116    2.5855 H       1  UNL1        0.0319
     35 H          13.0447   -5.1047    4.0982 H       1  UNL1        0.0319
     36 H          12.8563   -7.2503    5.4003 H       1  UNL1        0.0813
     37 H          12.8588   -8.1714    3.8673 H       1  UNL1        0.0813
     38 H          15.0595   -7.2735    3.4068 H       1  UNL1        0.1994
     39 H          15.0566   -6.4214    4.8326 H       1  UNL1        0.1994
     40 H          15.0278   -8.0687    4.8501 H       1  UNL1        0.1994
@<TRIPOS>UNITY_ATOM_ATTR
10 1
charge 1
15 1
charge 1
@<TRIPOS>BOND
     1     1    16    1
     2     1    17    1
     3     1    18    1
     4     2     1    1
     5     3     2    1
     6     3    19    1
     7     3    20    1
     8     4     3    1
     9     5     4    2
    10     6     4   am
    11     6    21    1
    12     7     6    1
    13     7    22    1
    14     7    23    1
    15     8     7    1
    16     8    24    1
    17     8    25    1
    18     9     8    1
    19     9    26    1
    20     9    27    1
    21    10     9    1
    22    10    28    1
    23    10    29    1
    24    11    10    1
    25    11    30    1
    26    11    31    1
    27    12    11    1
    28    12    32    1
    29    12    33    1
    30    13    12    1
    31    13    34    1
    32    13    35    1
    33    14    13    1
    34    14    36    1
    35    14    37    1
    36    15    14    1
    37    15    38    1
    38    15    39    1
    39    15    40    1
@<TRIPOS>MOLECULE
mol_417_akc_jejmech201410040
>402.sdf
 60 62 0 0 0
SMALL
GASTEIGER

@<TRIPOS>ATOM
      1 C           0.9177    7.0728   -2.6647 C.3     1  UNL1       -0.0527
      2 C           1.8048    8.0138   -3.5294 C.3     1  UNL1       -0.0473
      3 C           0.9944    9.2624   -3.9644 C.3     1  UNL1        0.0069
      4 C           1.7046   10.3200   -4.8348 C.3     1  UNL1        0.1505
      5 N           2.8405   10.9721   -4.1355 N.ar    1  UNL1       -0.2037
      6 C           4.0210   11.0990   -4.7811 C.ar    1  UNL1        0.1730
      7 C           5.1855   11.2512   -4.0544 C.ar    1  UNL1        0.0229
      8 C           5.1107   11.2131   -2.6684 C.ar    1  UNL1        0.0384
      9 N           6.1833   10.6456   -1.9538 N.pl3   1  UNL1       -0.3435
     10 C           6.1685    9.1602   -2.0209 C.3     1  UNL1        0.0091
     11 C           6.7382    8.6383   -3.3547 C.3     1  UNL1       -0.0374
     12 C           6.9945    7.1294   -3.3876 C.3     1  UNL1       -0.0502
     13 C           5.7467    6.2747   -3.6431 C.3     1  UNL1       -0.0374
     14 C           5.3070    6.1989   -5.1236 C.3     1  UNL1        0.0091
     15 N           5.2562    4.8121   -5.6450 N.pl3   1  UNL1       -0.3435
     16 C           4.2561    4.0010   -5.0659 C.ar    1  UNL1        0.0384
     17 C           4.5691    3.1341   -4.0341 C.ar    1  UNL1        0.0229
     18 C           3.5802    2.8067   -3.1159 C.ar    1  UNL1        0.1730
     19 N           2.3519    3.3658   -3.2465 N.ar    1  UNL1       -0.2037
     20 C           1.6820    3.8851   -2.0229 C.3     1  UNL1        0.1505
     21 C           2.4357    5.1917   -1.6530 C.3     1  UNL1        0.0069
     22 C           1.5770    6.4374   -1.4264 C.3     1  UNL1       -0.0473
     23 C           1.9551    3.8808   -4.4316 C.ar    1  UNL1        0.1730
     24 C           2.9150    4.2616   -5.3504 C.ar    1  UNL1        0.0229
     25 C           3.8820   11.4206   -2.0568 C.ar    1  UNL1        0.0229
     26 C           2.7395   11.3439   -2.8374 C.ar    1  UNL1        0.1730
     27 H           0.4771    6.3010   -3.3035 H       1  UNL1        0.0265
     28 H           0.0721    7.6586   -2.2824 H       1  UNL1        0.0265
     29 H           2.7038    8.3127   -2.9824 H       1  UNL1        0.0267
     30 H           2.1353    7.4696   -4.4215 H       1  UNL1        0.0267
     31 H           0.5975    9.7436   -3.0632 H       1  UNL1        0.0326
     32 H           0.1188    8.9165   -4.5280 H       1  UNL1        0.0326
     33 H           1.0238   11.1235   -5.1284 H       1  UNL1        0.1030
     34 H           2.0975    9.8379   -5.7383 H       1  UNL1        0.1030
     35 H           4.0418   10.9664   -5.8589 H       1  UNL1        0.1377
     36 H           6.1541   11.2223   -4.5500 H       1  UNL1        0.0695
     37 H           6.1835   10.9519   -0.9762 H       1  UNL1        0.1461
     38 H           5.1502    8.7774   -1.8639 H       1  UNL1        0.0461
     39 H           6.7731    8.7820   -1.1904 H       1  UNL1        0.0461
     40 H           7.6902    9.1528   -3.5422 H       1  UNL1        0.0280
     41 H           6.0790    8.8813   -4.1899 H       1  UNL1        0.0280
     42 H           7.4475    6.8250   -2.4360 H       1  UNL1        0.0266
     43 H           7.7337    6.9104   -4.1679 H       1  UNL1        0.0266
     44 H           4.9179    6.6651   -3.0443 H       1  UNL1        0.0280
     45 H           5.9693    5.2772   -3.2528 H       1  UNL1        0.0280
     46 H           5.9885    6.7660   -5.7648 H       1  UNL1        0.0461
     47 H           4.3254    6.6725   -5.2344 H       1  UNL1        0.0461
     48 H           6.1704    4.3765   -5.6248 H       1  UNL1        0.1461
     49 H           5.5983    2.8456   -3.8335 H       1  UNL1        0.0695
     50 H           3.8054    2.2874   -2.1883 H       1  UNL1        0.1377
     51 H           1.7808    3.1214   -1.2415 H       1  UNL1        0.1030
     52 H           0.6221    4.0387   -2.2426 H       1  UNL1        0.1030
     53 H           3.1853    5.4450   -2.4058 H       1  UNL1        0.0326
     54 H           2.9976    4.9937   -0.7336 H       1  UNL1        0.0326
     55 H           2.1983    7.1971   -0.9358 H       1  UNL1        0.0267
     56 H           0.7916    6.1757   -0.7079 H       1  UNL1        0.0267
     57 H           0.9109    4.1578   -4.5374 H       1  UNL1        0.1377
     58 H           2.6371    4.8550   -6.2196 H       1  UNL1        0.0695
     59 H           3.7956   11.5234   -0.9788 H       1  UNL1        0.0695
     60 H           1.7489   11.4459   -2.4080 H       1  UNL1        0.1377
@<TRIPOS>UNITY_ATOM_ATTR
5 1
charge 1
19 1
charge 1
@<TRIPOS>BOND
     1     1    27    1
     2     1    28    1
     3     2     1    1
     4     2    29    1
     5     2    30    1
     6     3     2    1
     7     3    31    1
     8     3    32    1
     9     4     3    1
    10     4    33    1
    11     4    34    1
    12     5     4    1
    13     6     5   ar
    14     6    35    1
    15     7     6   ar
    16     7    36    1
    17     8     7   ar
    18     9     8    1
    19     9    37    1
    20    10     9    1
    21    10    38    1
    22    10    39    1
    23    11    10    1
    24    11    40    1
    25    11    41    1
    26    12    11    1
    27    12    42    1
    28    12    43    1
    29    13    12    1
    30    13    44    1
    31    13    45    1
    32    14    13    1
    33    14    46    1
    34    14    47    1
    35    15    14    1
    36    15    48    1
    37    16    15    1
    38    17    16   ar
    39    17    49    1
    40    18    17   ar
    41    18    50    1
    42    19    18   ar
    43    20    19    1
    44    20    51    1
    45    20    52    1
    46    21    20    1
    47    21    53    1
    48    21    54    1
    49    22    21    1
    50    22     1    1
    51    22    55    1
    52    22    56    1
    53    23    19   ar
    54    23    57    1
    55    24    23   ar
    56    24    16   ar
    57    24    58    1
    58    25     8   ar
    59    25    59    1
    60    26    25   ar
    61    26     5   ar
    62    26    60    1
@<TRIPOS>MOLECULE
mol_418_akc_aac03340_14
>403.sdf
 51 54 0 0 0
SMALL
GASTEIGER

@<TRIPOS>ATOM
      1 C           4.7111    4.1298   -0.7945 C.3     1  UNL1       -0.0652
      2 C           5.8777    3.3718   -0.1793 C.3     1  UNL1       -0.0545
      3 C           5.5752    1.8774   -0.0555 C.3     1  UNL1       -0.0376
      4 C           6.7509    1.0871    0.5230 C.3     1  UNL1        0.0119
      5 N           7.0684    1.4598    1.8806 N.am    1  UNL1       -0.3101
      6 C           6.3998    0.9441    2.9744 C.2     1  UNL1        0.2624
      7 O           5.5057    0.1088    2.8900 O.2     1  UNL1       -0.2685
      8 C           6.8410    1.4861    4.3034 C.ar    1  UNL1        0.1267
      9 N           7.7970    2.4567    4.2761 N.ar    1  UNL1       -0.2400
     10 C           8.2275    3.0031    5.4488 C.ar    1  UNL1        0.0957
     11 C           7.6218    2.5626    6.6372 C.ar    1  UNL1        0.0738
     12 N           7.7718    2.9909    7.9391 N.ar    1  UNL1       -0.3525
     13 C           7.0401    2.2246    8.8094 C.ar    1  UNL1        0.0475
     14 C           6.3233    1.3121    8.0408 C.ar    1  UNL1        0.0075
     15 C           5.4670    0.4084    8.7032 C.ar    1  UNL1       -0.0520
     16 C           5.3680    0.4515   10.0999 C.ar    1  UNL1       -0.0611
     17 C           6.1045    1.3776   10.8375 C.ar    1  UNL1       -0.0598
     18 C           6.9556    2.2849   10.2047 C.ar    1  UNL1       -0.0378
     19 C           6.6663    1.5458    6.6689 C.ar    1  UNL1        0.0117
     20 C           6.2594    0.9763    5.4565 C.ar    1  UNL1       -0.0214
     21 C           9.2920    4.0181    5.3894 C.ar    1  UNL1        0.0026
     22 C           9.3923    4.8975    4.2977 C.ar    1  UNL1       -0.0490
     23 C          10.3965    5.8761    4.2300 C.ar    1  UNL1       -0.0193
     24 C          11.3240    6.0026    5.2610 C.ar    1  UNL1        0.1201
     25 O          12.3457    6.9059    5.3300 O.3     1  UNL1       -0.4951
     26 C          12.5099    7.7742    4.2174 C.3     1  UNL1        0.0788
     27 C          11.2476    5.1347    6.3474 C.ar    1  UNL1       -0.0193
     28 C          10.2638    4.1430    6.3978 C.ar    1  UNL1       -0.0490
     29 H           4.9504    5.1953   -0.8694 H       1  UNL1        0.0230
     30 H           4.4885    3.7611   -1.8014 H       1  UNL1        0.0230
     31 H           3.8093    4.0267   -0.1831 H       1  UNL1        0.0230
     32 H           6.7696    3.5204   -0.7988 H       1  UNL1        0.0263
     33 H           6.0933    3.7965    0.8084 H       1  UNL1        0.0263
     34 H           4.6841    1.7324    0.5679 H       1  UNL1        0.0280
     35 H           5.3392    1.4748   -1.0483 H       1  UNL1        0.0280
     36 H           6.5074    0.0177    0.5027 H       1  UNL1        0.0462
     37 H           7.6522    1.2362   -0.0826 H       1  UNL1        0.0462
     38 H           7.7754    2.1647    2.0760 H       1  UNL1        0.1490
     39 H           8.3504    3.7664    8.2261 H       1  UNL1        0.1660
     40 H           4.8908   -0.3204    8.1404 H       1  UNL1        0.0624
     41 H           4.7108   -0.2447   10.6138 H       1  UNL1        0.0618
     42 H           6.0140    1.3960   11.9213 H       1  UNL1        0.0618
     43 H           7.5277    3.0061   10.7799 H       1  UNL1        0.0638
     44 H           5.5131    0.1885    5.4148 H       1  UNL1        0.0647
     45 H           8.6782    4.8246    3.4785 H       1  UNL1        0.0625
     46 H          10.4221    6.5185    3.3559 H       1  UNL1        0.0654
     47 H          12.6805    7.2104    3.2944 H       1  UNL1        0.0660
     48 H          11.6524    8.4476    4.1187 H       1  UNL1        0.0660
     49 H          13.3982    8.3861    4.4013 H       1  UNL1        0.0660
     50 H          11.9725    5.2162    7.1540 H       1  UNL1        0.0654
     51 H          10.2958    3.4505    7.2350 H       1  UNL1        0.0625
@<TRIPOS>BOND
     1     1    29    1
     2     1    30    1
     3     1    31    1
     4     2     1    1
     5     2    32    1
     6     2    33    1
     7     3     2    1
     8     3    34    1
     9     3    35    1
    10     4     3    1
    11     4    36    1
    12     4    37    1
    13     5     4    1
    14     5    38    1
    15     6     5   am
    16     7     6    2
    17     8     6    1
    18     9     8   ar
    19    10     9   ar
    20    11    10   ar
    21    12    11   ar
    22    12    39    1
    23    13    12   ar
    24    14    13   ar
    25    15    14   ar
    26    15    40    1
    27    16    15   ar
    28    16    41    1
    29    17    16   ar
    30    17    42    1
    31    18    17   ar
    32    18    13   ar
    33    18    43    1
    34    19    14   ar
    35    19    11   ar
    36    20    19   ar
    37    20     8   ar
    38    20    44    1
    39    21    10    1
    40    22    21   ar
    41    22    45    1
    42    23    22   ar
    43    23    46    1
    44    24    23   ar
    45    25    24    1
    46    26    25    1
    47    26    47    1
    48    26    48    1
    49    26    49    1
    50    27    24   ar
    51    27    50    1
    52    28    27   ar
    53    28    21   ar
    54    28    51    1
@<TRIPOS>MOLECULE
mol_419_akc_jejmech201409076
>404.sdf
 38 40 0 0 0
SMALL
GASTEIGER

@<TRIPOS>ATOM
      1 C           1.1766   -0.2403    0.3211 C.3     1  UNL1        0.0788
      2 O           2.5129    0.0719   -0.0657 O.3     1  UNL1       -0.4949
      3 C           3.1137    1.0681    0.6547 C.ar    1  UNL1        0.1271
      4 C           2.7979    1.3935    1.9750 C.ar    1  UNL1        0.0225
      5 C           3.4795    2.4242    2.6263 C.ar    1  UNL1        0.1347
      6 O           3.1374    2.7187    3.9158 O.3     1  UNL1       -0.5058
      7 C           4.4909    3.1361    1.9698 C.ar    1  UNL1        0.1055
      8 C           5.2518    4.2339    2.6093 C.ar    1  UNL1        0.1966
      9 O           5.0862    4.6176    3.7580 O.2     1  UNL1       -0.2869
     10 C           6.2765    4.8928    1.7820 C.ar    1  UNL1        0.0288
     11 C           6.4694    4.4728    0.5247 C.ar    1  UNL1        0.1395
     12 O           5.7788    3.4439   -0.0805 O.2     1  UNL1       -0.4544
     13 C           4.8086    2.7985    0.6499 C.ar    1  UNL1        0.1462
     14 C           4.1310    1.7627    0.0001 C.ar    1  UNL1        0.0233
     15 C           7.4791    5.1127   -0.3264 C.ar    1  UNL1        0.0245
     16 C           7.1316    6.2216   -1.1169 C.ar    1  UNL1       -0.0054
     17 C           8.0910    6.8402   -1.9226 C.ar    1  UNL1        0.1656
     18 O           7.8801    7.9239   -2.7388 O.3     1  UNL1       -0.4913
     19 C           6.5608    8.4571   -2.7665 C.3     1  UNL1        0.0790
     20 C           9.3985    6.3401   -1.9272 C.ar    1  UNL1        0.2008
     21 O          10.3457    6.9446   -2.7149 O.3     1  UNL1       -0.5009
     22 C           9.7486    5.2411   -1.1453 C.ar    1  UNL1        0.1627
     23 O          11.0331    4.7777   -1.1744 O.3     1  UNL1       -0.5032
     24 C           8.7921    4.6251   -0.3414 C.ar    1  UNL1       -0.0056
     25 H           1.1417   -0.6998    1.3140 H       1  UNL1        0.0660
     26 H           0.5432    0.6528    0.2796 H       1  UNL1        0.0660
     27 H           0.7793   -0.9714   -0.3886 H       1  UNL1        0.0660
     28 H           2.0360    0.8421    2.5131 H       1  UNL1        0.0691
     29 H           2.4374    2.1237    4.2303 H       1  UNL1        0.2922
     30 H           6.8328    5.6983    2.2414 H       1  UNL1        0.0693
     31 H           4.3899    1.5034   -1.0251 H       1  UNL1        0.0691
     32 H           6.1064    6.5783   -1.0838 H       1  UNL1        0.0662
     33 H           5.8426    7.7156   -3.1317 H       1  UNL1        0.0660
     34 H           6.2710    8.8395   -1.7824 H       1  UNL1        0.0660
     35 H           6.5545    9.2984   -3.4663 H       1  UNL1        0.0660
     36 H           9.8842    7.6812   -3.1560 H       1  UNL1        0.2924
     37 H          11.1095    3.9990   -0.6026 H       1  UNL1        0.2923
     38 H           9.0577    3.7709    0.2750 H       1  UNL1        0.0662
@<TRIPOS>BOND
     1     1    25    1
     2     1    26    1
     3     1    27    1
     4     2     1    1
     5     3     2    1
     6     4     3   ar
     7     4    28    1
     8     5     4   ar
     9     6     5    1
    10     6    29    1
    11     7     5   ar
    12     8     7   ar
    13     9     8    2
    14    10     8   ar
    15    10    30    1
    16    11    10   ar
    17    12    11   ar
    18    13    12   ar
    19    13     7   ar
    20    14    13   ar
    21    14     3   ar
    22    14    31    1
    23    15    11    1
    24    16    15   ar
    25    16    32    1
    26    17    16   ar
    27    18    17    1
    28    19    18    1
    29    19    33    1
    30    19    34    1
    31    19    35    1
    32    20    17   ar
    33    21    20    1
    34    21    36    1
    35    22    20   ar
    36    23    22    1
    37    23    37    1
    38    24    22   ar
    39    24    15   ar
    40    24    38    1
@<TRIPOS>MOLECULE
mol_41_akc_jactatropica201010011
>41.sdf
 46 49 0 0 0
SMALL
GASTEIGER

@<TRIPOS>ATOM
      1 CL         -1.5988   -0.3182    3.2741 Cl      1  UNL1       -0.0835
      2 C          -0.3690    0.0254    2.1198 C.ar    1  UNL1        0.0413
      3 C           0.2902    1.2558    2.1544 C.ar    1  UNL1       -0.0369
      4 C           1.3082    1.5380    1.2305 C.ar    1  UNL1       -0.0065
      5 C           2.0511    2.8496    1.2809 C.3     1  UNL1        0.1430
      6 O           1.3205    3.8568    0.5750 O.2     1  UNL1       -0.3888
      7 N           2.0833    5.0378    0.5755 N.2     1  UNL1       -0.0884
      8 C           1.3516    6.0878    0.3627 C.2     1  UNL1        0.0922
      9 C          -0.1515    6.1023    0.0858 C.3     1  UNL1        0.0233
     10 C          -0.2869    6.2699   -1.4420 C.3     1  UNL1        0.0325
     11 N          -1.6407    6.3624   -1.9358 N.ar    1  UNL1       -0.3362
     12 C          -2.2057    7.4560   -2.5323 C.ar    1  UNL1        0.0240
     13 C          -3.4769    7.0576   -2.8695 C.ar    1  UNL1        0.0454
     14 N          -3.6882    5.7531   -2.5025 N.ar    1  UNL1       -0.2441
     15 C          -2.5636    5.3578   -1.9541 C.ar    1  UNL1        0.0959
     16 C          -0.8584    7.2245    0.8876 C.3     1  UNL1       -0.0390
     17 C           0.0718    8.0238    1.8044 C.3     1  UNL1       -0.0250
     18 C           1.2835    8.4473    1.0171 C.ar    1  UNL1       -0.0201
     19 C           1.9786    7.4285    0.3451 C.ar    1  UNL1        0.0043
     20 C           3.1051    7.6839   -0.4351 C.ar    1  UNL1       -0.0524
     21 C           3.5381    8.9994   -0.5744 C.ar    1  UNL1       -0.0598
     22 C           2.8621   10.0309    0.0855 C.ar    1  UNL1       -0.0431
     23 C           1.7501    9.7568    0.8916 C.ar    1  UNL1        0.0448
     24 CL          0.9707   11.0849    1.6672 Cl      1  UNL1       -0.0832
     25 C           1.6278    0.5757    0.2616 C.ar    1  UNL1       -0.0552
     26 C           0.9644   -0.6531    0.2315 C.ar    1  UNL1       -0.0600
     27 C          -0.0329   -0.9319    1.1653 C.ar    1  UNL1       -0.0434
     28 H           0.0187    1.9910    2.9081 H       1  UNL1        0.0636
     29 H           2.1814    3.1604    2.3251 H       1  UNL1        0.0775
     30 H           3.0488    2.7362    0.8388 H       1  UNL1        0.0775
     31 H          -0.6051    5.1510    0.3832 H       1  UNL1        0.0383
     32 H           0.2365    7.1722   -1.7837 H       1  UNL1        0.0498
     33 H           0.1855    5.4272   -1.9630 H       1  UNL1        0.0498
     34 H          -1.6809    8.3926   -2.6655 H       1  UNL1        0.0825
     35 H          -4.2477    7.6363   -3.3605 H       1  UNL1        0.0845
     36 H          -2.3660    4.3669   -1.5619 H       1  UNL1        0.1029
     37 H          -1.6572    6.7812    1.4954 H       1  UNL1        0.0275
     38 H          -1.3569    7.9291    0.2119 H       1  UNL1        0.0275
     39 H           0.3959    7.4065    2.6528 H       1  UNL1        0.0314
     40 H          -0.4798    8.8675    2.2276 H       1  UNL1        0.0314
     41 H           3.6071    6.8790   -0.9660 H       1  UNL1        0.0624
     42 H           4.3899    9.2293   -1.2105 H       1  UNL1        0.0618
     43 H           3.2032   11.0565   -0.0415 H       1  UNL1        0.0632
     44 H           2.4059    0.7759   -0.4733 H       1  UNL1        0.0621
     45 H           1.2288   -1.3958   -0.5177 H       1  UNL1        0.0618
     46 H          -0.5426   -1.8914    1.1422 H       1  UNL1        0.0632
@<TRIPOS>BOND
     1     2     1    1
     2     3     2   ar
     3     3    28    1
     4     4     3   ar
     5     5     4    1
     6     5    29    1
     7     5    30    1
     8     6     5    1
     9     7     6    1
    10     8     7    2
    11     9     8    1
    12     9    31    1
    13    10     9    1
    14    10    32    1
    15    10    33    1
    16    11    10    1
    17    12    11   ar
    18    12    34    1
    19    13    12   ar
    20    13    35    1
    21    14    13   ar
    22    15    14   ar
    23    15    11   ar
    24    15    36    1
    25    16     9    1
    26    16    37    1
    27    16    38    1
    28    17    16    1
    29    17    39    1
    30    17    40    1
    31    18    17    1
    32    19    18   ar
    33    19     8    1
    34    20    19   ar
    35    20    41    1
    36    21    20   ar
    37    21    42    1
    38    22    21   ar
    39    22    43    1
    40    23    22   ar
    41    23    18   ar
    42    24    23    1
    43    25     4   ar
    44    25    44    1
    45    26    25   ar
    46    26    45    1
    47    27    26   ar
    48    27     2   ar
    49    27    46    1
@<TRIPOS>MOLECULE
mol_420_akc_jjep201409010
>405.sdf
 37 39 0 0 0
SMALL
GASTEIGER

@<TRIPOS>ATOM
      1 H           0.6679    0.0518   -1.5749 H       1  UNL1        0.0332
      2 C           0.3875   -0.3602   -0.5937 C.3     1  UNL1       -0.0066
      3 C           1.5649   -1.2075   -0.1042 C.3     1  UNL1       -0.0447
      4 C           2.6587   -0.1577    0.0752 C.3     1  UNL1       -0.0236
      5 C           1.9342    1.0519    0.6988 C.3     1  UNL1        0.0667
      6 C           2.5047    2.3721    0.1888 C.3     1  UNL1       -0.0358
      7 O           2.1473    1.0154    2.1185 O.3     1  UNL1       -0.3886
      8 C           0.4211    0.7907    0.4394 C.3     1  UNL1       -0.0039
      9 H           0.0088    0.4430    1.3944 H       1  UNL1        0.0335
     10 C          -0.4069    1.9384   -0.0436 C.3     1  UNL1       -0.0322
     11 C          -1.2922    2.7204    0.8865 C.3     1  UNL1       -0.0465
     12 C          -1.9117    1.7812   -0.1207 C.3     1  UNL1       -0.0375
     13 C          -2.6878    0.5863    0.3590 C.3     1  UNL1       -0.0473
     14 C          -1.9944   -0.7852    0.3684 C.3     1  UNL1       -0.0237
     15 C          -0.9873   -1.0702   -0.7671 C.3     1  UNL1        0.0665
     16 C          -0.8352   -2.5872   -0.9584 C.3     1  UNL1       -0.0358
     17 O          -1.5526   -0.5881   -2.0016 O.3     1  UNL1       -0.3886
     18 H           1.8722   -1.9689   -0.8259 H       1  UNL1        0.0270
     19 H           1.3401   -1.6952    0.8523 H       1  UNL1        0.0270
     20 H           3.4777   -0.5424    0.6935 H       1  UNL1        0.0293
     21 H           3.0667    0.0990   -0.9100 H       1  UNL1        0.0293
     22 H           3.5702    2.4502    0.4320 H       1  UNL1        0.0257
     23 H           2.0170    3.2242    0.6763 H       1  UNL1        0.0257
     24 H           2.3961    2.4736   -0.8952 H       1  UNL1        0.0257
     25 H           3.1073    1.0406    2.2765 H       1  UNL1        0.2102
     26 H           0.0413    2.4551   -0.8858 H       1  UNL1        0.0307
     27 H          -1.4015    3.7847    0.7103 H       1  UNL1        0.0271
     28 H          -1.3051    2.4484    1.9363 H       1  UNL1        0.0271
     29 H          -2.3909    2.2261   -0.9889 H       1  UNL1        0.0304
     30 H          -3.5738    0.5024   -0.2847 H       1  UNL1        0.0269
     31 H          -3.0870    0.7824    1.3625 H       1  UNL1        0.0269
     32 H          -2.8062   -1.5258    0.3187 H       1  UNL1        0.0293
     33 H          -1.5254   -0.9695    1.3433 H       1  UNL1        0.0293
     34 H          -0.4476   -3.0784   -0.0611 H       1  UNL1        0.0257
     35 H          -0.1731   -2.8081   -1.8032 H       1  UNL1        0.0257
     36 H          -1.7986   -3.0488   -1.2065 H       1  UNL1        0.0257
     37 H          -2.4428   -0.9731   -2.0955 H       1  UNL1        0.2102
@<TRIPOS>BOND
     1     3     2    1
     2     4     3    1
     3     5     4    1
     4     6    22    1
     5     6    23    1
     6     6    24    1
     7     7    25    1
     8     8     5    1
     9     8     2    1
    10    10     8    1
    11    11    10    1
    12    12    11    1
    13    12    10    1
    14    13    12    1
    15    14    13    1
    16    15    14    1
    17    15     2    1
    18    16    34    1
    19    16    35    1
    20    16    36    1
    21    17    37    1
    22     2     1    1
    23     3    18    1
    24     3    19    1
    25     4    20    1
    26     4    21    1
    27     5     6    1
    28     7     5    1
    29     8     9    1
    30    10    26    1
    31    11    27    1
    32    11    28    1
    33    12    29    1
    34    13    30    1
    35    13    31    1
    36    14    32    1
    37    14    33    1
    38    15    17    1
    39    15    16    1
@<TRIPOS>MOLECULE
mol_421_akc_journalpone0109672
>406.sdf
 35 39 0 0 0
SMALL
GASTEIGER

@<TRIPOS>ATOM
      1 H           2.5705   -7.8351    0.7494 H       1  UNL1        0.0423
      2 C           1.7740   -7.0852    0.8479 C.3     1  UNL1        0.0631
      3 C           2.2286   -5.9840    1.7754 C.3     1  UNL1        0.1004
      4 O           1.2623   -4.9576    1.9391 O.2     1  UNL1       -0.4868
      5 C           0.5903   -4.5664    0.8024 C.2     1  UNL1        0.1779
      6 C           0.5804   -5.2554   -0.3603 C.2     1  UNL1        0.0859
      7 C          -0.2428   -4.7511   -1.4873 C.2     1  UNL1        0.1970
      8 O          -0.6314   -5.4603   -2.4079 O.2     1  UNL1       -0.2867
      9 C          -0.4987   -3.2957   -1.5070 C.ar    1  UNL1        0.0331
     10 C          -0.3730   -2.5632   -0.3313 C.ar    1  UNL1        0.0362
     11 C          -0.4046   -1.1685   -0.3587 C.ar    1  UNL1       -0.0501
     12 C          -0.5699   -0.5163   -1.5779 C.ar    1  UNL1       -0.0610
     13 C          -0.7664   -1.2566   -2.7497 C.ar    1  UNL1       -0.0610
     14 C          -0.7511   -2.6527   -2.7125 C.ar    1  UNL1       -0.0502
     15 C          -0.1135   -3.2586    0.9351 C.2     1  UNL1        0.2285
     16 O          -0.3610   -2.7366    2.0064 O.2     1  UNL1       -0.2834
     17 C           1.3857   -6.5374   -0.5293 C.3     1  UNL1        0.1422
     18 H           2.2730   -6.3092   -1.1229 H       1  UNL1        0.0794
     19 O           0.6883   -7.6356   -1.1793 O.3     1  UNL1       -0.4830
     20 C           0.0312   -8.2448   -0.1351 C.ar    1  UNL1        0.1251
     21 C          -1.0699   -9.0527   -0.2843 C.ar    1  UNL1       -0.0196
     22 C          -1.8518   -9.2598    0.8488 C.ar    1  UNL1       -0.0583
     23 C          -1.5081   -8.6523    2.0716 C.ar    1  UNL1       -0.0613
     24 C          -0.3099   -7.9415    2.2159 C.ar    1  UNL1       -0.0546
     25 C           0.4889   -7.8007    1.1011 C.ar    1  UNL1        0.0045
     26 H           3.1465   -5.5229    1.3886 H       1  UNL1        0.0704
     27 H           2.4624   -6.3827    2.7664 H       1  UNL1        0.0704
     28 H          -0.2532   -0.5966    0.5539 H       1  UNL1        0.0625
     29 H          -0.5320    0.5705   -1.6202 H       1  UNL1        0.0618
     30 H          -0.9026   -0.7422   -3.6979 H       1  UNL1        0.0618
     31 H          -0.8812   -3.2239   -3.6291 H       1  UNL1        0.0625
     32 H          -1.3505   -9.4445   -1.2543 H       1  UNL1        0.0654
     33 H          -2.7671   -9.8395    0.7691 H       1  UNL1        0.0619
     34 H          -2.1979   -8.7209    2.9105 H       1  UNL1        0.0618
     35 H          -0.0698   -7.4522    3.1544 H       1  UNL1        0.0622
@<TRIPOS>BOND
     1     2     1    1
     2     3     2    1
     3     3    26    1
     4     3    27    1
     5     4     3    1
     6     5     4    1
     7     6     5    2
     8     7     6    1
     9     8     7    2
    10     9     7    1
    11    10     9   ar
    12    11    10   ar
    13    11    28    1
    14    12    11   ar
    15    12    29    1
    16    13    12   ar
    17    13    30    1
    18    14    13   ar
    19    14     9   ar
    20    14    31    1
    21    15    10    1
    22    15     5    1
    23    16    15    2
    24    17     6    1
    25    17     2    1
    26    17    18    1
    27    19    17    1
    28    20    19    1
    29    21    20   ar
    30    21    32    1
    31    22    21   ar
    32    22    33    1
    33    23    22   ar
    34    23    34    1
    35    24    23   ar
    36    24    35    1
    37    25    24   ar
    38    25     2    1
    39    25    20   ar
@<TRIPOS>MOLECULE
mol_422_akc_jbmcl201408060
>407.sdf
 44 46 0 0 0
SMALL
GASTEIGER

@<TRIPOS>ATOM
      1 C           1.0153   -0.4461    0.1074 C.3     1  UNL1        0.0004
      2 N           2.2954    0.2299   -0.0752 N.pl3   1  UNL1       -0.3360
      3 C           3.0662   -0.2017   -1.2443 C.3     1  UNL1        0.0004
      4 C           3.0807    0.4943    1.0558 C.ar    1  UNL1        0.0292
      5 C           2.9093   -0.1500    2.2865 C.ar    1  UNL1       -0.0401
      6 C           3.6976    0.1742    3.4047 C.ar    1  UNL1       -0.0523
      7 C           4.6944    1.1589    3.3425 C.ar    1  UNL1       -0.0178
      8 C           4.8720    1.7944    2.1045 C.ar    1  UNL1       -0.0523
      9 C           4.0817    1.4715    0.9922 C.ar    1  UNL1       -0.0401
     10 C           5.5243    1.5165    4.5165 C.ar    1  UNL1       -0.0179
     11 C           5.9457    0.5514    5.4447 C.ar    1  UNL1       -0.0537
     12 C           6.7566    0.8889    6.5371 C.ar    1  UNL1       -0.0563
     13 C           7.1845    2.2059    6.7363 C.ar    1  UNL1       -0.0277
     14 C           8.0742    2.5699    7.9064 C.3     1  UNL1        0.0489
     15 N           9.5236    2.4798    7.6126 N.ar    1  UNL1       -0.3342
     16 C          10.0947    3.5804    6.9728 C.ar    1  UNL1        0.0061
     17 C          11.4005    3.6538    6.7014 C.ar    1  UNL1       -0.0420
     18 C          12.2797    2.5808    7.0730 C.ar    1  UNL1       -0.0162
     19 C          11.8029    1.4848    7.6722 C.ar    1  UNL1        0.1476
     20 O          12.6687    0.4640    8.0255 O.3     1  UNL1       -0.5041
     21 C          10.3174    1.3686    7.9845 C.ar    1  UNL1        0.1291
     22 S           9.7434   -0.0321    8.7518 S.2     1  UNL1       -0.0288
     23 C           6.7580    3.1810    5.8287 C.ar    1  UNL1       -0.0563
     24 C           5.9376    2.8409    4.7449 C.ar    1  UNL1       -0.0537
     25 H           0.3889   -0.2924   -0.7788 H       1  UNL1        0.0428
     26 H           1.1465   -1.5242    0.2487 H       1  UNL1        0.0428
     27 H           0.4572   -0.0322    0.9551 H       1  UNL1        0.0428
     28 H           3.6815    0.6119   -1.6425 H       1  UNL1        0.0428
     29 H           3.7126   -1.0536   -1.0012 H       1  UNL1        0.0428
     30 H           2.3977   -0.5137   -2.0552 H       1  UNL1        0.0428
     31 H           2.1651   -0.9325    2.4045 H       1  UNL1        0.0636
     32 H           3.5024   -0.3549    4.3345 H       1  UNL1        0.0624
     33 H           5.6363    2.5583    1.9795 H       1  UNL1        0.0624
     34 H           4.2396    2.0260    0.0710 H       1  UNL1        0.0636
     35 H           5.6628   -0.4920    5.3229 H       1  UNL1        0.0624
     36 H           7.0473    0.1024    7.2294 H       1  UNL1        0.0621
     37 H           7.8536    3.5966    8.2292 H       1  UNL1        0.0541
     38 H           7.8140    1.9507    8.7710 H       1  UNL1        0.0541
     39 H           9.4352    4.3981    6.7025 H       1  UNL1        0.0809
     40 H          11.8256    4.5222    6.2046 H       1  UNL1        0.0633
     41 H          13.3364    2.6768    6.8576 H       1  UNL1        0.0655
     42 H          12.1121   -0.2255    8.4396 H       1  UNL1        0.2923
     43 H           7.0515    4.2202    5.9546 H       1  UNL1        0.0621
     44 H           5.6164    3.6379    4.0771 H       1  UNL1        0.0624
@<TRIPOS>BOND
     1     1    25    1
     2     1    26    1
     3     1    27    1
     4     2     1    1
     5     3     2    1
     6     3    28    1
     7     3    29    1
     8     3    30    1
     9     4     2    1
    10     5     4   ar
    11     5    31    1
    12     6     5   ar
    13     6    32    1
    14     7     6   ar
    15     8     7   ar
    16     8    33    1
    17     9     8   ar
    18     9     4   ar
    19     9    34    1
    20    10     7    1
    21    11    10   ar
    22    11    35    1
    23    12    11   ar
    24    12    36    1
    25    13    12   ar
    26    14    13    1
    27    14    37    1
    28    14    38    1
    29    15    14    1
    30    16    15   ar
    31    16    39    1
    32    17    16   ar
    33    17    40    1
    34    18    17   ar
    35    18    41    1
    36    19    18   ar
    37    20    19    1
    38    20    42    1
    39    21    19   ar
    40    21    15   ar
    41    22    21    2
    42    23    13   ar
    43    23    43    1
    44    24    23   ar
    45    24    10   ar
    46    24    44    1
@<TRIPOS>MOLECULE
mol_423_akc_aac02874_14
>408.sdf
 30 32 0 0 0
SMALL
GASTEIGER

@<TRIPOS>ATOM
      1 C           1.4395   -0.9918   -0.6573 C.3     1  UNL1        0.0788
      2 O           2.3813   -0.1337   -0.0268 O.3     1  UNL1       -0.4951
      3 C           3.1058   -0.6637    1.0040 C.ar    1  UNL1        0.1202
      4 C           3.1130   -1.9997    1.4044 C.ar    1  UNL1       -0.0179
      5 C           3.8979   -2.4069    2.4915 C.ar    1  UNL1       -0.0327
      6 C           4.6588   -1.4709    3.2069 C.ar    1  UNL1        0.0676
      7 C           4.6822   -0.1403    2.7772 C.ar    1  UNL1       -0.0327
      8 C           3.9092    0.2549    1.6820 C.ar    1  UNL1       -0.0179
      9 N           5.3999   -1.8949    4.3484 N.ar    1  UNL1       -0.2182
     10 N           5.7421   -3.2115    4.4893 N.ar    1  UNL1       -0.1724
     11 C           6.5241   -3.2425    5.5681 C.ar    1  UNL1        0.0624
     12 C           6.6133   -1.9984    6.2070 C.ar    1  UNL1        0.0796
     13 C           7.2977   -1.6463    7.4702 C.ar    1  UNL1        0.1842
     14 N           7.2674   -0.4684    8.0625 N.ar    1  UNL1       -0.1082
     15 N           8.0087   -0.5973    9.2124 N.ar    1  UNL1       -0.0229
     16 N           8.4894   -1.8267    9.3313 N.ar    1  UNL1       -0.0464
     17 N           8.0498   -2.4775    8.2464 N.ar    1  UNL1       -0.2387
     18 C           5.8544   -1.1398    5.4390 C.ar    1  UNL1        0.1306
     19 N           5.5310    0.1618    5.6824 N.pl3   1  UNL1       -0.3425
     20 H           1.9428   -1.8127   -1.1770 H       1  UNL1        0.0660
     21 H           0.7034   -1.3693    0.0606 H       1  UNL1        0.0660
     22 H           0.9016   -0.4028   -1.4066 H       1  UNL1        0.0660
     23 H           2.5189   -2.7523    0.8959 H       1  UNL1        0.0655
     24 H           3.8778   -3.4532    2.7901 H       1  UNL1        0.0640
     25 H           5.3253    0.6020    3.2424 H       1  UNL1        0.0640
     26 H           3.9360    1.2912    1.3519 H       1  UNL1        0.0655
     27 H           6.9607   -4.1910    5.8515 H       1  UNL1        0.0856
     28 H           8.2940   -3.4500    8.1151 H       1  UNL1        0.1923
     29 H           5.7958    0.5492    6.5927 H       1  UNL1        0.1437
     30 H           4.6286    0.5238    5.3758 H       1  UNL1        0.1437
@<TRIPOS>BOND
     1     1    20    1
     2     1    21    1
     3     1    22    1
     4     2     1    1
     5     3     2    1
     6     4     3   ar
     7     4    23    1
     8     5     4   ar
     9     5    24    1
    10     6     5   ar
    11     7     6   ar
    12     7    25    1
    13     8     7   ar
    14     8     3   ar
    15     8    26    1
    16     9     6    1
    17    10     9   ar
    18    11    10   ar
    19    11    27    1
    20    12    11   ar
    21    13    12    1
    22    14    13   ar
    23    15    14   ar
    24    16    15   ar
    25    17    16   ar
    26    17    13   ar
    27    17    28    1
    28    18    12   ar
    29    18     9   ar
    30    19    18    1
    31    19    29    1
    32    19    30    1
@<TRIPOS>MOLECULE
mol_424_akc_jejmech201407038
>409.sdf
 46 49 0 0 0
SMALL
GASTEIGER

@<TRIPOS>ATOM
      1 C           0.5219    0.4872   -1.0823 C.3     1  UNL1       -0.0560
      2 C           1.8684    0.9150   -1.7090 C.3     1  UNL1       -0.0127
      3 C           1.5458    1.9534   -2.8071 C.3     1  UNL1       -0.0560
      4 C           2.6939    1.5970   -0.5979 C.3     1  UNL1       -0.0560
      5 C           2.6682   -0.2475   -2.3250 C.ar    1  UNL1       -0.0420
      6 C           2.2175   -1.5728   -2.3262 C.ar    1  UNL1       -0.0577
      7 C           2.9486   -2.5906   -2.9576 C.ar    1  UNL1       -0.0555
      8 C           4.1545   -2.3149   -3.6158 C.ar    1  UNL1       -0.0154
      9 C           4.9130   -3.4050   -4.3470 C.3     1  UNL1        0.0911
     10 N           4.4935   -3.5518   -5.7202 N.pl3   1  UNL1       -0.1848
     11 C           3.2745   -4.0890   -6.0989 C.cat   1  UNL1        0.3794
     12 N           2.2941   -4.6224   -5.4240 N.2     1  UNL1       -0.1134
     13 C           1.2093   -4.6393   -6.4735 C.3     1  UNL1        0.1334
     14 C           1.6372   -3.5867   -7.5272 C.3     1  UNL1        0.0998
     15 N           3.0541   -3.8209   -7.4440 N.pl3   1  UNL1       -0.1856
     16 C           4.0774   -3.0025   -7.8917 C.ar    1  UNL1        0.1309
     17 C           4.9759   -2.8084   -6.8100 C.ar    1  UNL1        0.1311
     18 C           6.0958   -2.0217   -6.9712 C.ar    1  UNL1       -0.0218
     19 C           6.3626   -1.5161   -8.2532 C.ar    1  UNL1       -0.0585
     20 C           5.5118   -1.7945   -9.3404 C.ar    1  UNL1       -0.0585
     21 C           4.3365   -2.5270   -9.1590 C.ar    1  UNL1       -0.0218
     22 C           4.6234   -1.0070   -3.6044 C.ar    1  UNL1       -0.0555
     23 C           3.8962    0.0108   -2.9664 C.ar    1  UNL1       -0.0577
     24 H          -0.0171    1.3531   -0.6791 H       1  UNL1        0.0238
     25 H          -0.1361    0.0146   -1.8209 H       1  UNL1        0.0238
     26 H           0.6668   -0.2166   -0.2544 H       1  UNL1        0.0238
     27 H           0.9632    2.7892   -2.4025 H       1  UNL1        0.0238
     28 H           2.4502    2.3819   -3.2524 H       1  UNL1        0.0238
     29 H           0.9625    1.5012   -3.6181 H       1  UNL1        0.0238
     30 H           2.9203    0.8963    0.2141 H       1  UNL1        0.0238
     31 H           3.6466    1.9903   -0.9686 H       1  UNL1        0.0238
     32 H           2.1460    2.4426   -0.1646 H       1  UNL1        0.0238
     33 H           1.2805   -1.8563   -1.8433 H       1  UNL1        0.0621
     34 H           2.5464   -3.6008   -2.9530 H       1  UNL1        0.0621
     35 H           5.9936   -3.2187   -4.2813 H       1  UNL1        0.0689
     36 H           4.7582   -4.3590   -3.8218 H       1  UNL1        0.0689
     37 H           0.2453   -4.3967   -6.0188 H       1  UNL1        0.0723
     38 H           1.1606   -5.6422   -6.9156 H       1  UNL1        0.0723
     39 H           1.1956   -3.7460   -8.5152 H       1  UNL1        0.0671
     40 H           1.3873   -2.5838   -7.1620 H       1  UNL1        0.0671
     41 H           6.7735   -1.8141   -6.1521 H       1  UNL1        0.0651
     42 H           7.2593   -0.9230   -8.4204 H       1  UNL1        0.0619
     43 H           5.7836   -1.4518  -10.3364 H       1  UNL1        0.0619
     44 H           3.6963   -2.7727   -9.9962 H       1  UNL1        0.0651
     45 H           5.5539   -0.7472   -4.0971 H       1  UNL1        0.0621
     46 H           4.3007    1.0190   -2.9961 H       1  UNL1        0.0621
@<TRIPOS>BOND
     1     1    24    1
     2     1    25    1
     3     1    26    1
     4     2     1    1
     5     3     2    1
     6     3    27    1
     7     3    28    1
     8     3    29    1
     9     4     2    1
    10     4    30    1
    11     4    31    1
    12     4    32    1
    13     5     2    1
    14     6     5   ar
    15     6    33    1
    16     7     6   ar
    17     7    34    1
    18     8     7   ar
    19     9     8    1
    20     9    35    1
    21     9    36    1
    22    10     9    1
    23    11    10    1
    24    12    11    2
    25    13    12    1
    26    13    37    1
    27    13    38    1
    28    14    13    1
    29    14    39    1
    30    14    40    1
    31    15    14    1
    32    15    11    1
    33    16    15    1
    34    17    16   ar
    35    17    10    1
    36    18    17   ar
    37    18    41    1
    38    19    18   ar
    39    19    42    1
    40    20    19   ar
    41    20    43    1
    42    21    20   ar
    43    21    16   ar
    44    21    44    1
    45    22     8   ar
    46    22    45    1
    47    23    22   ar
    48    23     5   ar
    49    23    46    1
@<TRIPOS>MOLECULE
mol_425_akc_journalpone0105127
>410.sdf
 43 46 0 0 0
SMALL
GASTEIGER

@<TRIPOS>ATOM
      1 O          -5.5319   -3.6387    0.8413 O.2     1  UNL1       -0.5029
      2 C          -4.7509   -3.0064    1.7977 C.2     1  UNL1        0.1725
      3 C          -3.5214   -2.5102    1.5414 C.2     1  UNL1        0.0625
      4 C          -2.7396   -2.5726    0.2211 C.3     1  UNL1        0.0669
      5 S          -3.8746   -2.3402   -1.2295 S.3     1  UNL1       -0.1121
      6 C          -2.8332   -2.4716   -2.6685 C.ar    1  UNL1        0.0090
      7 C          -3.4126   -3.0250   -3.8248 C.ar    1  UNL1       -0.0456
      8 C          -2.6883   -3.1146   -5.0135 C.ar    1  UNL1       -0.0254
      9 C          -1.3855   -2.6418   -5.0528 C.ar    1  UNL1        0.1235
     10 F          -0.6888   -2.7146   -6.1940 F       1  UNL1       -0.2055
     11 C          -0.7973   -2.0802   -3.9253 C.ar    1  UNL1       -0.0254
     12 C          -1.5233   -1.9886   -2.7329 C.ar    1  UNL1       -0.0456
     13 C          -1.8890   -3.8412    0.1925 C.ar    1  UNL1       -0.0295
     14 C          -0.5707   -3.7818    0.6863 C.ar    1  UNL1       -0.0572
     15 C           0.1906   -4.9391    0.8544 C.ar    1  UNL1       -0.0615
     16 C          -0.3450   -6.1767    0.5148 C.ar    1  UNL1       -0.0617
     17 C          -1.6344   -6.2543   -0.0077 C.ar    1  UNL1       -0.0615
     18 C          -2.4041   -5.0979   -0.1627 C.ar    1  UNL1       -0.0572
     19 C          -2.7542   -1.8605    2.6511 C.2     1  UNL1        0.1949
     20 O          -1.6596   -1.3428    2.4524 O.2     1  UNL1       -0.2868
     21 C          -3.3236   -1.8386    4.0088 C.ar    1  UNL1        0.0330
     22 C          -4.5866   -2.3600    4.2546 C.ar    1  UNL1        0.0362
     23 C          -5.1235   -2.3265    5.5478 C.ar    1  UNL1       -0.0501
     24 C          -4.3924   -1.7679    6.5957 C.ar    1  UNL1       -0.0610
     25 C          -3.1239   -1.2446    6.3541 C.ar    1  UNL1       -0.0610
     26 C          -2.5884   -1.2791    5.0648 C.ar    1  UNL1       -0.0502
     27 C          -5.3679   -2.9459    3.1592 C.2     1  UNL1        0.2282
     28 O          -6.4991   -3.3684    3.3741 O.2     1  UNL1       -0.2834
     29 H          -5.2016   -3.4142   -0.0470 H       1  UNL1        0.2923
     30 H          -2.0797   -1.7007    0.1514 H       1  UNL1        0.0516
     31 H          -4.4393   -3.3851   -3.8101 H       1  UNL1        0.0629
     32 H          -3.1364   -3.5381   -5.9069 H       1  UNL1        0.0646
     33 H           0.2195   -1.7044   -3.9832 H       1  UNL1        0.0646
     34 H          -1.0491   -1.5193   -1.8773 H       1  UNL1        0.0629
     35 H          -0.1368   -2.8290    0.9888 H       1  UNL1        0.0621
     36 H           1.1921   -4.8739    1.2726 H       1  UNL1        0.0618
     37 H           0.2376   -7.0816    0.6666 H       1  UNL1        0.0618
     38 H          -2.0517   -7.2224   -0.2727 H       1  UNL1        0.0618
     39 H          -3.4187   -5.2048   -0.5383 H       1  UNL1        0.0621
     40 H          -6.1164   -2.7330    5.7420 H       1  UNL1        0.0625
     41 H          -4.8136   -1.7411    7.5983 H       1  UNL1        0.0618
     42 H          -2.5526   -0.8062    7.1695 H       1  UNL1        0.0618
     43 H          -1.5959   -0.8681    4.8885 H       1  UNL1        0.0625
@<TRIPOS>BOND
     1     1    29    1
     2     2     1    1
     3     3     2    2
     4     5     4    1
     5     6     5    1
     6     7     6   ar
     7     7    31    1
     8     8     7   ar
     9     8    32    1
    10     9     8   ar
    11    10     9    1
    12    11     9   ar
    13    11    33    1
    14    12    11   ar
    15    12     6   ar
    16    12    34    1
    17    13     4    1
    18    14    13   ar
    19    14    35    1
    20    15    14   ar
    21    15    36    1
    22    16    15   ar
    23    16    37    1
    24    17    16   ar
    25    17    38    1
    26    18    17   ar
    27    18    13   ar
    28    18    39    1
    29    19     3    1
    30    20    19    2
    31    21    19    1
    32    22    21   ar
    33    23    22   ar
    34    23    40    1
    35    24    23   ar
    36    24    41    1
    37    25    24   ar
    38    25    42    1
    39    26    25   ar
    40    26    21   ar
    41    26    43    1
    42    27    22    1
    43    27     2    1
    44    28    27    2
    45     4    30    1
    46     4     3    1
@<TRIPOS>MOLECULE
mol_426_akc_molecules190913251
>411.sdf
 68 71 0 0 0
SMALL
GASTEIGER

@<TRIPOS>ATOM
      1 C           2.0949   -0.9030   -1.5919 C.3     1  UNL1        0.0790
      2 O           3.1593   -0.3852   -0.8088 O.3     1  UNL1       -0.4915
      3 C           3.7398   -1.1899    0.1347 C.ar    1  UNL1        0.1615
      4 C           3.5788   -2.5696    0.3317 C.ar    1  UNL1        0.1620
      5 O           2.7556   -3.2712   -0.5102 O.3     1  UNL1       -0.4914
      6 C           2.9109   -4.6858   -0.5518 C.3     1  UNL1        0.0790
      7 C           4.2589   -3.1832    1.3961 C.ar    1  UNL1       -0.0092
      8 C           5.1120   -2.4650    2.2514 C.ar    1  UNL1       -0.0212
      9 C           5.8507   -3.1290    3.3369 C.2     1  UNL1       -0.0508
     10 C           5.3603   -4.1850    4.0033 C.2     1  UNL1       -0.0138
     11 C           6.1724   -4.8924    5.0276 C.2     1  UNL1        0.1861
     12 O           7.1418   -4.3774    5.5713 O.2     1  UNL1       -0.2873
     13 C           5.7295   -6.2639    5.3900 C.ar    1  UNL1        0.0219
     14 C           5.1361   -7.1174    4.4528 C.ar    1  UNL1       -0.0475
     15 C           4.6934   -8.3855    4.8371 C.ar    1  UNL1       -0.0193
     16 C           4.8786   -8.8197    6.1481 C.ar    1  UNL1        0.1205
     17 O           4.4581  -10.0223    6.6371 O.3     1  UNL1       -0.4918
     18 C           4.5092  -11.1379    5.7452 C.3     1  UNL1        0.0927
     19 C           5.3679  -12.2200    6.3896 C.3     1  UNL1        0.0157
     20 C           4.7157  -12.8434    7.6310 C.3     1  UNL1        0.0928
     21 O           3.4913  -13.5417    7.3575 O.3     1  UNL1       -0.4881
     22 C           3.5517  -14.6057    6.4935 C.ar    1  UNL1        0.1639
     23 C           2.3942  -14.9064    5.7542 C.ar    1  UNL1        0.1700
     24 O           1.2240  -14.2495    6.1009 O.3     1  UNL1       -0.4509
     25 C           0.0176  -14.8166    5.7440 C.ar    1  UNL1        0.1469
     26 C          -0.3909  -16.1231    6.0635 C.ar    1  UNL1        0.0845
     27 CL          0.5254  -17.1703    7.0888 Cl      1  UNL1       -0.0797
     28 C          -1.5973  -16.6199    5.5600 C.ar    1  UNL1       -0.0215
     29 C          -2.4271  -15.7919    4.8074 C.ar    1  UNL1        0.0426
     30 CL         -3.9024  -16.4107    4.1745 Cl      1  UNL1       -0.0835
     31 C          -2.0756  -14.4646    4.5710 C.ar    1  UNL1       -0.0398
     32 C          -0.8534  -13.9775    5.0397 C.ar    1  UNL1       -0.0165
     33 C           2.4764  -15.8207    4.6950 C.ar    1  UNL1       -0.0143
     34 C           3.6509  -16.5416    4.4722 C.ar    1  UNL1       -0.0397
     35 C           4.7495  -16.3368    5.2973 C.ar    1  UNL1        0.0447
     36 CL          6.1891  -17.2443    5.0484 Cl      1  UNL1       -0.0834
     37 C           4.7080  -15.3756    6.3046 C.ar    1  UNL1        0.0021
     38 C           5.4818   -7.9723    7.0807 C.ar    1  UNL1       -0.0193
     39 C           5.9202   -6.7013    6.7051 C.ar    1  UNL1       -0.0475
     40 C           5.3089   -1.1085    2.0075 C.ar    1  UNL1       -0.0509
     41 C           4.6229   -0.4805    0.9651 C.ar    1  UNL1       -0.0157
     42 H           2.4782   -1.5718   -2.3688 H       1  UNL1        0.0660
     43 H           1.3241   -1.3824   -0.9805 H       1  UNL1        0.0660
     44 H           1.6166   -0.0566   -2.0955 H       1  UNL1        0.0660
     45 H           3.9492   -4.9649   -0.7620 H       1  UNL1        0.0660
     46 H           2.5562   -5.1502    0.3746 H       1  UNL1        0.0660
     47 H           2.2898   -5.0689   -1.3665 H       1  UNL1        0.0660
     48 H           4.1365   -4.2456    1.5720 H       1  UNL1        0.0661
     49 H           6.8386   -2.7378    3.5700 H       1  UNL1        0.0625
     50 H           4.3659   -4.5707    3.8157 H       1  UNL1        0.0656
     51 H           5.0129   -6.8165    3.4159 H       1  UNL1        0.0626
     52 H           4.1935   -9.0062    4.1000 H       1  UNL1        0.0654
     53 H           3.4868  -11.4881    5.5692 H       1  UNL1        0.0697
     54 H           4.9566  -10.8999    4.7743 H       1  UNL1        0.0697
     55 H           5.5780  -12.9788    5.6300 H       1  UNL1        0.0331
     56 H           6.3312  -11.7864    6.6863 H       1  UNL1        0.0331
     57 H           5.4176  -13.4989    8.1578 H       1  UNL1        0.0697
     58 H           4.4693  -12.0491    8.3451 H       1  UNL1        0.0697
     59 H          -1.8909  -17.6475    5.7584 H       1  UNL1        0.0648
     60 H          -2.7430  -13.8092    4.0164 H       1  UNL1        0.0633
     61 H          -0.5746  -12.9438    4.8478 H       1  UNL1        0.0655
     62 H           1.6266  -16.0132    4.0445 H       1  UNL1        0.0656
     63 H           3.6928  -17.2750    3.6678 H       1  UNL1        0.0633
     64 H           5.5881  -15.2296    6.9189 H       1  UNL1        0.0670
     65 H           5.6137   -8.3055    8.1071 H       1  UNL1        0.0654
     66 H           6.3936   -6.0525    7.4383 H       1  UNL1        0.0626
     67 H           5.9838   -0.5217    2.6261 H       1  UNL1        0.0625
     68 H           4.7742    0.5836    0.7940 H       1  UNL1        0.0655
@<TRIPOS>BOND
     1     1    42    1
     2     1    43    1
     3     1    44    1
     4     2     1    1
     5     3     2    1
     6     4     3   ar
     7     5     4    1
     8     6     5    1
     9     6    45    1
    10     6    46    1
    11     6    47    1
    12     7     4   ar
    13     7    48    1
    14     8     7   ar
    15     9     8    1
    16     9    49    1
    17    10     9    2
    18    10    50    1
    19    11    10    1
    20    12    11    2
    21    13    11    1
    22    14    13   ar
    23    14    51    1
    24    15    14   ar
    25    15    52    1
    26    16    15   ar
    27    17    16    1
    28    18    17    1
    29    18    53    1
    30    18    54    1
    31    19    18    1
    32    19    55    1
    33    19    56    1
    34    20    19    1
    35    20    57    1
    36    20    58    1
    37    21    20    1
    38    22    21    1
    39    23    22   ar
    40    24    23    1
    41    25    24    1
    42    26    25   ar
    43    27    26    1
    44    28    26   ar
    45    28    59    1
    46    29    28   ar
    47    30    29    1
    48    31    29   ar
    49    31    60    1
    50    32    31   ar
    51    32    25   ar
    52    32    61    1
    53    33    23   ar
    54    33    62    1
    55    34    33   ar
    56    34    63    1
    57    35    34   ar
    58    36    35    1
    59    37    35   ar
    60    37    22   ar
    61    37    64    1
    62    38    16   ar
    63    38    65    1
    64    39    38   ar
    65    39    13   ar
    66    39    66    1
    67    40     8   ar
    68    40    67    1
    69    41    40   ar
    70    41     3   ar
    71    41    68    1
@<TRIPOS>MOLECULE
mol_427_akc_journalpntd0003093
>412.sdf
 51 54 0 0 0
SMALL
GASTEIGER

@<TRIPOS>ATOM
      1 O           0.9232   -0.2017   -0.0902 O.3     1  UNL1       -0.5065
      2 C           2.2842   -0.1057   -0.0995 C.ar    1  UNL1        0.1238
      3 C           3.0085   -1.2871   -0.2084 C.ar    1  UNL1        0.0218
      4 C           4.3978   -1.2253   -0.2610 C.ar    1  UNL1        0.1271
      5 O           5.1356   -2.3717   -0.3570 O.3     1  UNL1       -0.5063
      6 C           5.0675   -0.0006   -0.2126 C.ar    1  UNL1        0.0395
      7 C           6.5683    0.0488   -0.3585 C.3     1  UNL1        0.0204
      8 C           7.0454    1.4839   -0.5685 C.3     1  UNL1        0.1483
      9 O           6.7294    1.9312   -1.9148 O.3     1  UNL1       -0.4534
     10 C           7.5358    1.5355   -2.9187 C.2     1  UNL1        0.3398
     11 O           8.4565    0.7362   -2.8230 O.2     1  UNL1       -0.2449
     12 C           7.2339    2.2868   -4.1673 C.ar    1  UNL1        0.0661
     13 C           7.9568    1.9523   -5.3291 C.ar    1  UNL1       -0.0023
     14 C           7.7942    2.7168   -6.4819 C.ar    1  UNL1        0.1628
     15 O           8.4879    2.4540   -7.6297 O.3     1  UNL1       -0.5032
     16 C           6.9297    3.8045   -6.4849 C.ar    1  UNL1        0.2006
     17 O           6.7919    4.5848   -7.6003 O.3     1  UNL1       -0.5009
     18 C           6.2062    4.1256   -5.3451 C.ar    1  UNL1        0.1628
     19 O           5.3872    5.2168   -5.3404 O.3     1  UNL1       -0.5032
     20 C           6.3371    3.3668   -4.1871 C.ar    1  UNL1       -0.0023
     21 C           6.2892    2.3604    0.4587 C.3     1  UNL1        0.1624
     22 O           4.8890    2.4214    0.1303 O.3     1  UNL1       -0.4800
     23 C           4.3224    1.1759   -0.0216 C.ar    1  UNL1        0.1318
     24 C           2.9264    1.1264    0.0045 C.ar    1  UNL1        0.0221
     25 C           6.8606    3.7650    0.6341 C.ar    1  UNL1        0.0034
     26 C           7.3175    4.5335   -0.4516 C.ar    1  UNL1       -0.0095
     27 C           7.9743    5.7410   -0.2369 C.ar    1  UNL1        0.1623
     28 O           8.5424    6.4404   -1.2650 O.3     1  UNL1       -0.5032
     29 C           8.1127    6.2446    1.0457 C.ar    1  UNL1        0.2006
     30 O           8.7562    7.4321    1.2588 O.3     1  UNL1       -0.5009
     31 C           7.6169    5.5303    2.1255 C.ar    1  UNL1        0.1623
     32 O           7.7661    6.0188    3.3913 O.3     1  UNL1       -0.5032
     33 C           6.9980    4.2981    1.9335 C.ar    1  UNL1       -0.0095
     34 H           0.5503    0.6962   -0.0865 H       1  UNL1        0.2921
     35 H           2.4782   -2.2317   -0.2659 H       1  UNL1        0.0691
     36 H           4.5396   -3.1353   -0.2841 H       1  UNL1        0.2921
     37 H           6.8737   -0.5818   -1.1995 H       1  UNL1        0.0353
     38 H           7.0160   -0.3551    0.5586 H       1  UNL1        0.0353
     39 H           8.1301    1.5541   -0.4109 H       1  UNL1        0.0778
     40 H           8.6460    1.1135   -5.3098 H       1  UNL1        0.0663
     41 H           9.0713    1.6900   -7.4722 H       1  UNL1        0.2923
     42 H           7.3808    4.1696   -8.2641 H       1  UNL1        0.2924
     43 H           5.4826    5.6082   -6.2331 H       1  UNL1        0.2923
     44 H           5.7514    3.6431   -3.3150 H       1  UNL1        0.0663
     45 H           6.3778    1.8797    1.4452 H       1  UNL1        0.0822
     46 H           2.3644    2.0486    0.1133 H       1  UNL1        0.0691
     47 H           7.1770    4.1889   -1.4663 H       1  UNL1        0.0659
     48 H           8.6166    5.8385   -2.0274 H       1  UNL1        0.2923
     49 H           8.9962    7.7348    0.3589 H       1  UNL1        0.2924
     50 H           8.2310    6.8720    3.2699 H       1  UNL1        0.2923
     51 H           6.6454    3.7500    2.8036 H       1  UNL1        0.0659
@<TRIPOS>BOND
     1     1    34    1
     2     2     1    1
     3     3     2   ar
     4     3    35    1
     5     4     3   ar
     6     5     4    1
     7     5    36    1
     8     6     4   ar
     9     7     6    1
    10     7    37    1
    11     7    38    1
    12     8     7    1
    13    10     9    1
    14    11    10    2
    15    12    10    1
    16    13    12   ar
    17    13    40    1
    18    14    13   ar
    19    15    14    1
    20    15    41    1
    21    16    14   ar
    22    17    16    1
    23    17    42    1
    24    18    16   ar
    25    19    18    1
    26    19    43    1
    27    20    18   ar
    28    20    12   ar
    29    20    44    1
    30    21     8    1
    31    21    45    1
    32    22    21    1
    33    23    22    1
    34    23     6   ar
    35    24    23   ar
    36    24     2   ar
    37    24    46    1
    38    25    21    1
    39    26    25   ar
    40    26    47    1
    41    27    26   ar
    42    28    27    1
    43    28    48    1
    44    29    27   ar
    45    30    29    1
    46    30    49    1
    47    31    29   ar
    48    32    31    1
    49    32    50    1
    50    33    31   ar
    51    33    25   ar
    52    33    51    1
    53     8     9    1
    54     8    39    1
@<TRIPOS>MOLECULE
mol_428_akc_jbmcl201406030
>413.sdf
 45 49 0 0 0
SMALL
GASTEIGER

@<TRIPOS>ATOM
      1 C          -1.1625    1.3405    0.2619 C.3     1  UNL1       -0.0055
      2 N           0.3321    1.6325    0.3728 N.4     1  UNL1        0.2430
      3 C           0.9285    2.4222   -0.8111 C.3     1  UNL1       -0.0271
      4 C           0.3604    3.8507   -0.9090 C.3     1  UNL1        0.0152
      5 C           0.2589    4.4661    0.4434 C.ar    1  UNL1       -0.0089
      6 C           0.4215    3.7313    1.6034 C.ar    1  UNL1        0.0658
      7 C           0.7007    2.2842    1.6870 C.3     1  UNL1        0.0099
      8 N           0.2731    4.5783    2.6671 N.ar    1  UNL1       -0.3536
      9 C          -0.0596    5.8385    2.2095 C.ar    1  UNL1        0.0471
     10 C          -0.3549    6.9981    2.9285 C.ar    1  UNL1       -0.0378
     11 C          -0.6824    8.1451    2.1979 C.ar    1  UNL1       -0.0598
     12 C          -0.7059    8.1287    0.8031 C.ar    1  UNL1       -0.0611
     13 C          -0.3970    6.9609    0.0989 C.ar    1  UNL1       -0.0523
     14 C          -0.0741    5.7919    0.8158 C.ar    1  UNL1        0.0035
     15 C          -1.4783    0.6924   -1.0591 C.ar    1  UNL1       -0.0023
     16 C          -0.9016   -0.5503   -1.3664 C.ar    1  UNL1       -0.0458
     17 C          -0.7844   -0.9641   -2.6962 C.ar    1  UNL1       -0.0174
     18 C          -0.0561   -2.1160   -3.0251 C.ar    1  UNL1       -0.0540
     19 C           0.1746   -2.4457   -4.3609 C.ar    1  UNL1       -0.0612
     20 C          -0.3442   -1.6453   -5.3742 C.ar    1  UNL1       -0.0612
     21 C          -1.1137   -0.5242   -5.0601 C.ar    1  UNL1       -0.0540
     22 C          -1.3394   -0.1666   -3.7240 C.ar    1  UNL1       -0.0179
     23 C          -2.0635    0.9854   -3.3878 C.ar    1  UNL1       -0.0536
     24 C          -2.1298    1.4180   -2.0635 C.ar    1  UNL1       -0.0530
     25 H          -1.7099    2.2794    0.3976 H       1  UNL1        0.0867
     26 H          -1.4195    0.6656    1.0864 H       1  UNL1        0.0867
     27 H           0.7959    0.7207    0.3566 H       1  UNL1        0.2041
     28 H           2.0090    2.4464   -0.6311 H       1  UNL1        0.0818
     29 H           0.7706    1.8545   -1.7315 H       1  UNL1        0.0818
     30 H           1.0064    4.4513   -1.5587 H       1  UNL1        0.0366
     31 H          -0.6325    3.8336   -1.3687 H       1  UNL1        0.0366
     32 H           0.1451    1.7807    2.4819 H       1  UNL1        0.0882
     33 H           1.7726    2.1035    1.8304 H       1  UNL1        0.0882
     34 H           0.3592    4.3452    3.6492 H       1  UNL1        0.1658
     35 H          -0.3381    7.0224    4.0122 H       1  UNL1        0.0638
     36 H          -0.9245    9.0652    2.7265 H       1  UNL1        0.0618
     37 H          -0.9672    9.0326    0.2607 H       1  UNL1        0.0618
     38 H          -0.4226    6.9648   -0.9866 H       1  UNL1        0.0624
     39 H          -0.4439   -1.1496   -0.5812 H       1  UNL1        0.0628
     40 H           0.3656   -2.7516   -2.2509 H       1  UNL1        0.0624
     41 H           0.7677   -3.3205   -4.6085 H       1  UNL1        0.0618
     42 H          -0.1471   -1.8935   -6.4151 H       1  UNL1        0.0618
     43 H          -1.5090    0.0846   -5.8707 H       1  UNL1        0.0624
     44 H          -2.5283    1.5883   -4.1666 H       1  UNL1        0.0624
     45 H          -2.6263    2.3629   -1.8480 H       1  UNL1        0.0622
@<TRIPOS>UNITY_ATOM_ATTR
2 1
charge 1
@<TRIPOS>BOND
     1     1    25    1
     2     1    26    1
     3     3     2    1
     4     3    28    1
     5     3    29    1
     6     4     3    1
     7     4    30    1
     8     4    31    1
     9     5     4    1
    10     6     5   ar
    11     7     6    1
    12     7     2    1
    13     7    32    1
    14     7    33    1
    15     8     6   ar
    16     8    34    1
    17     9     8   ar
    18    10     9   ar
    19    10    35    1
    20    11    10   ar
    21    11    36    1
    22    12    11   ar
    23    12    37    1
    24    13    12   ar
    25    13    38    1
    26    14    13   ar
    27    14     5   ar
    28    14     9   ar
    29    15     1    1
    30    16    15   ar
    31    16    39    1
    32    17    16   ar
    33    18    17   ar
    34    18    40    1
    35    19    18   ar
    36    19    41    1
    37    20    19   ar
    38    20    42    1
    39    21    20   ar
    40    21    43    1
    41    22    21   ar
    42    22    17   ar
    43    23    22   ar
    44    23    44    1
    45    24    23   ar
    46    24    15   ar
    47    24    45    1
    48     2    27    1
    49     2     1    1
@<TRIPOS>MOLECULE
mol_429_akc_molecules191220374
>414.sdf
 40 41 0 0 0
SMALL
GASTEIGER

@<TRIPOS>ATOM
      1 C           1.0492   -0.0892    0.1115 C.3     1  UNL1        0.0790
      2 O           2.4740   -0.0993    0.0838 O.3     1  UNL1       -0.4914
      3 C           3.1027    1.1201    0.0542 C.ar    1  UNL1        0.1642
      4 C           2.4725    2.3637    0.0570 C.ar    1  UNL1       -0.0075
      5 C           3.2274    3.5520    0.0323 C.ar    1  UNL1        0.0004
      6 C           2.5262    4.8583    0.0422 C.2     1  UNL1        0.0530
      7 N           1.2348    4.8718    0.0792 N.2     1  UNL1       -0.1875
      8 N           0.6016    6.0726    0.0846 N.am    1  UNL1       -0.2034
      9 C          -0.7785    6.1623    0.1235 C.2     1  UNL1        0.2561
     10 O          -1.3573    7.2424    0.1270 O.2     1  UNL1       -0.2691
     11 C          -1.4996    4.8563    0.1761 C.2     1  UNL1        0.0024
     12 C          -2.8360    4.7843    0.2578 C.2     1  UNL1       -0.0496
     13 C          -3.5819    3.5182    0.3672 C.ar    1  UNL1       -0.0249
     14 C          -3.0514    2.3783    0.9925 C.ar    1  UNL1       -0.0546
     15 C          -3.8171    1.2173    1.1360 C.ar    1  UNL1       -0.0612
     16 C          -5.1270    1.1840    0.6654 C.ar    1  UNL1       -0.0617
     17 C          -5.6694    2.3087    0.0483 C.ar    1  UNL1       -0.0612
     18 C          -4.9022    3.4685   -0.0983 C.ar    1  UNL1       -0.0546
     19 C           4.6197    3.5041   -0.0008 C.ar    1  UNL1       -0.0190
     20 C           5.2393    2.2458   -0.0088 C.ar    1  UNL1        0.1716
     21 C           4.5006    1.0640    0.0261 C.ar    1  UNL1        0.1893
     22 O           5.1094   -0.1607    0.0593 O.3     1  UNL1       -0.5018
     23 N           6.6859    2.1959   -0.0469 N.pl3   1  UNL1        0.0602
     24 O           7.2847    2.7798    0.8678 O.2     1  UNL1       -0.1260
     25 O           7.2158    1.6553   -1.0264 O.2     1  UNL1       -0.1260
     26 H           0.6784    0.3841    1.0269 H       1  UNL1        0.0660
     27 H           0.6388    0.3966   -0.7801 H       1  UNL1        0.0660
     28 H           0.7073   -1.1286    0.1110 H       1  UNL1        0.0660
     29 H           1.3885    2.4350    0.0816 H       1  UNL1        0.0662
     30 H           3.1336    5.7803    0.0175 H       1  UNL1        0.0851
     31 H           1.1206    6.9440    0.0640 H       1  UNL1        0.1775
     32 H          -0.8947    3.9619    0.1544 H       1  UNL1        0.0670
     33 H          -3.4293    5.6966    0.2516 H       1  UNL1        0.0625
     34 H          -2.0441    2.3836    1.4001 H       1  UNL1        0.0623
     35 H          -3.3962    0.3462    1.6312 H       1  UNL1        0.0618
     36 H          -5.7284    0.2870    0.7895 H       1  UNL1        0.0618
     37 H          -6.6951    2.2892   -0.3109 H       1  UNL1        0.0618
     38 H          -5.3496    4.3366   -0.5774 H       1  UNL1        0.0623
     39 H           5.2148    4.4135   -0.0197 H       1  UNL1        0.0648
     40 H           4.3898   -0.8241    0.0580 H       1  UNL1        0.2924
@<TRIPOS>BOND
     1     1    26    1
     2     1    27    1
     3     1    28    1
     4     2     1    1
     5     3     2    1
     6     4     3   ar
     7     4    29    1
     8     5     4   ar
     9     6     5    1
    10     6    30    1
    11     7     6    2
    12     8     7    1
    13     8    31    1
    14     9     8   am
    15    10     9    2
    16    11     9    1
    17    11    32    1
    18    12    11    2
    19    12    33    1
    20    13    12    1
    21    14    13   ar
    22    14    34    1
    23    15    14   ar
    24    15    35    1
    25    16    15   ar
    26    16    36    1
    27    17    16   ar
    28    17    37    1
    29    18    17   ar
    30    18    13   ar
    31    18    38    1
    32    19     5   ar
    33    19    39    1
    34    20    19   ar
    35    21    20   ar
    36    21     3   ar
    37    22    21    1
    38    22    40    1
    39    23    20    1
    40    24    23    2
    41    25    23    2
@<TRIPOS>MOLECULE
mol_42_akc_s11030_019_09953_4
>42.sdf
 42 44 0 0 0
SMALL
GASTEIGER

@<TRIPOS>ATOM
      1 F           3.2658    0.8146    0.8856 F       1  UNL1       -0.1659
      2 C           2.4209   -0.2213    1.1500 C.3     1  UNL1        0.4174
      3 F           2.2825   -0.2472    2.5054 F       1  UNL1       -0.1659
      4 F           1.2077    0.1484    0.6570 F       1  UNL1       -0.1659
      5 C           2.8987   -1.5440    0.6004 C.ar    1  UNL1        0.0550
      6 C           4.0879   -1.6418   -0.1373 C.ar    1  UNL1       -0.0467
      7 C           4.5726   -2.8889   -0.5492 C.ar    1  UNL1       -0.0194
      8 C           3.8882   -4.0532   -0.2018 C.ar    1  UNL1        0.1214
      9 O           4.3288   -5.3295   -0.4197 O.3     1  UNL1       -0.4842
     10 C           5.7480   -5.5620   -0.4182 C.3     1  UNL1        0.1268
     11 C           6.4146   -5.1691    0.9237 C.3     1  UNL1        0.0065
     12 C           7.9208   -5.4402    0.9294 C.3     1  UNL1        0.0278
     13 N           8.5545   -5.0816    2.1812 N.ar    1  UNL1       -0.3367
     14 C           8.6717   -3.8262    2.7011 C.ar    1  UNL1        0.0240
     15 C           9.3804   -3.9921    3.8716 C.ar    1  UNL1        0.0454
     16 N           9.7024   -5.3106    4.0615 N.ar    1  UNL1       -0.2441
     17 C           9.1960   -5.9420    3.0255 C.ar    1  UNL1        0.0959
     18 C           5.9573   -7.0520   -0.6702 C.ar    1  UNL1       -0.0073
     19 C           6.7381   -7.4856   -1.7528 C.ar    1  UNL1       -0.0551
     20 C           7.0637   -8.8363   -1.8946 C.ar    1  UNL1       -0.0614
     21 C           6.6091   -9.7684   -0.9634 C.ar    1  UNL1       -0.0617
     22 C           5.8032   -9.3576    0.0952 C.ar    1  UNL1       -0.0614
     23 C           5.4688   -8.0105    0.2348 C.ar    1  UNL1       -0.0551
     24 C           2.6563   -3.9557    0.4460 C.ar    1  UNL1       -0.0194
     25 C           2.1656   -2.7124    0.8515 C.ar    1  UNL1       -0.0467
     26 H           4.6595   -0.7451   -0.3751 H       1  UNL1        0.0624
     27 H           5.4981   -2.9204   -1.1147 H       1  UNL1        0.0654
     28 H           6.2020   -5.0046   -1.2470 H       1  UNL1        0.0785
     29 H           6.2489   -4.1061    1.1287 H       1  UNL1        0.0322
     30 H           5.9300   -5.6866    1.7621 H       1  UNL1        0.0322
     31 H           8.1371   -6.5000    0.7577 H       1  UNL1        0.0493
     32 H           8.4222   -4.8656    0.1420 H       1  UNL1        0.0493
     33 H           8.2568   -2.9475    2.2285 H       1  UNL1        0.0825
     34 H           9.6776   -3.2341    4.5817 H       1  UNL1        0.0845
     35 H           9.2713   -7.0072    2.8409 H       1  UNL1        0.1029
     36 H           7.1212   -6.7744   -2.4812 H       1  UNL1        0.0621
     37 H           7.6847   -9.1618   -2.7255 H       1  UNL1        0.0618
     38 H           6.8806  -10.8161   -1.0640 H       1  UNL1        0.0618
     39 H           5.4441  -10.0839    0.8201 H       1  UNL1        0.0618
     40 H           4.8456   -7.7063    1.0738 H       1  UNL1        0.0621
     41 H           2.0938   -4.8582    0.6743 H       1  UNL1        0.0654
     42 H           1.2224   -2.6626    1.3939 H       1  UNL1        0.0624
@<TRIPOS>BOND
     1     2     1    1
     2     3     2    1
     3     4     2    1
     4     5     2    1
     5     6     5   ar
     6     6    26    1
     7     7     6   ar
     8     7    27    1
     9     8     7   ar
    10     9     8    1
    11    10     9    1
    12    10    28    1
    13    11    10    1
    14    11    29    1
    15    11    30    1
    16    12    11    1
    17    12    31    1
    18    12    32    1
    19    13    12    1
    20    14    13   ar
    21    14    33    1
    22    15    14   ar
    23    15    34    1
    24    16    15   ar
    25    17    16   ar
    26    17    13   ar
    27    17    35    1
    28    18    10    1
    29    19    18   ar
    30    19    36    1
    31    20    19   ar
    32    20    37    1
    33    21    20   ar
    34    21    38    1
    35    22    21   ar
    36    22    39    1
    37    23    22   ar
    38    23    18   ar
    39    23    40    1
    40    24     8   ar
    41    24    41    1
    42    25    24   ar
    43    25     5   ar
    44    25    42    1
@<TRIPOS>MOLECULE
mol_430_akc_jijpddr201410005
>415.sdf
 71 73 0 0 0
SMALL
GASTEIGER

@<TRIPOS>ATOM
      1 C           7.4440   -8.0529    4.7573 C.3     1  UNL1       -0.0253
      2 C           7.4954   -6.5391    5.0067 C.3     1  UNL1        0.1068
      3 C           6.3793   -6.0676    5.9430 C.3     1  UNL1       -0.0253
      4 C           8.8543   -6.2007    5.6360 C.3     1  UNL1       -0.0253
      5 O           7.4713   -5.7908    3.7608 O.3     1  UNL1       -0.4447
      6 C           6.4689   -5.9904    2.8818 C.2     1  UNL1        0.4011
      7 O           5.5119   -6.7290    3.0139 O.2     1  UNL1       -0.2265
      8 N           6.7466   -5.2685    1.7553 N.am    1  UNL1       -0.2753
      9 C           6.0162   -5.4785    0.5107 C.3     1  UNL1        0.0611
     10 C           4.4811   -5.2062    0.6327 C.3     1  UNL1       -0.0065
     11 C           4.1250   -3.7377    0.6847 C.ar    1  UNL1       -0.0455
     12 C           3.3887   -3.1462   -0.3510 C.ar    1  UNL1       -0.0585
     13 C           3.1080   -1.7794   -0.3285 C.ar    1  UNL1       -0.0615
     14 C           3.5496   -0.9963    0.7385 C.ar    1  UNL1       -0.0617
     15 C           4.2496   -1.5800    1.7885 C.ar    1  UNL1       -0.0615
     16 C           4.5281   -2.9494    1.7699 C.ar    1  UNL1       -0.0585
     17 C           6.6208   -4.7110   -0.7069 C.3     1  UNL1        0.1134
     18 O           6.0254   -5.2193   -1.9100 O.3     1  UNL1       -0.3847
     19 C           8.1543   -4.8713   -0.8496 C.3     1  UNL1       -0.0031
     20 N           8.7266   -4.0595   -2.0498 N.4     1  UNL1        0.2446
     21 C           8.2097   -4.4479   -3.4399 C.3     1  UNL1        0.0096
     22 C           8.7126   -5.8508   -3.8163 C.3     1  UNL1        0.0098
     23 N          10.2492   -5.8474   -3.8920 N.4     1  UNL1        0.2460
     24 C          10.8149   -5.2218   -5.1723 C.3     1  UNL1       -0.0055
     25 C          10.1678   -5.7951   -6.4027 C.ar    1  UNL1       -0.0029
     26 C           9.2528   -5.0356   -7.1511 C.ar    1  UNL1       -0.0535
     27 C           8.5271   -5.6275   -8.1859 C.ar    1  UNL1       -0.0613
     28 C           8.7155   -6.9734   -8.4907 C.ar    1  UNL1       -0.0617
     29 C           9.6477   -7.7260   -7.7809 C.ar    1  UNL1       -0.0613
     30 C          10.3774   -7.1411   -6.7465 C.ar    1  UNL1       -0.0535
     31 C          10.8957   -5.3349   -2.6060 C.3     1  UNL1        0.0098
     32 C          10.2595   -4.0157   -2.0718 C.3     1  UNL1        0.0096
     33 H           7.6474   -8.6164    5.6732 H       1  UNL1        0.0268
     34 H           6.4657   -8.3805    4.3936 H       1  UNL1        0.0268
     35 H           8.1759   -8.3438    3.9950 H       1  UNL1        0.0268
     36 H           6.4241   -6.5854    6.9069 H       1  UNL1        0.0268
     37 H           6.4564   -4.9895    6.1262 H       1  UNL1        0.0268
     38 H           5.3867   -6.2378    5.5152 H       1  UNL1        0.0268
     39 H           9.6729   -6.4808    4.9624 H       1  UNL1        0.0268
     40 H           8.9501   -5.1220    5.8048 H       1  UNL1        0.0268
     41 H           8.9990   -6.7164    6.5908 H       1  UNL1        0.0268
     42 H           7.6138   -4.7599    1.8450 H       1  UNL1        0.1524
     43 H           6.1099   -6.5542    0.3021 H       1  UNL1        0.0530
     44 H           3.9784   -5.6682   -0.2264 H       1  UNL1        0.0332
     45 H           4.0380   -5.6956    1.5052 H       1  UNL1        0.0332
     46 H           2.9989   -3.7414   -1.1728 H       1  UNL1        0.0620
     47 H           2.5215   -1.3255   -1.1212 H       1  UNL1        0.0618
     48 H           3.3164    0.0653    0.7658 H       1  UNL1        0.0618
     49 H           4.5558   -0.9769    2.6401 H       1  UNL1        0.0618
     50 H           5.0344   -3.3891    2.6222 H       1  UNL1        0.0620
     51 H           6.4100   -3.6379   -0.6451 H       1  UNL1        0.0666
     52 H           5.0768   -4.9719   -1.9003 H       1  UNL1        0.2101
     53 H           8.6710   -4.4768    0.0295 H       1  UNL1        0.0841
     54 H           8.4417   -5.9144   -1.0028 H       1  UNL1        0.0841
     55 H           8.3993   -3.0920   -1.8917 H       1  UNL1        0.2039
     56 H           7.1306   -4.3348   -3.4870 H       1  UNL1        0.0868
     57 H           8.6096   -3.6925   -4.1257 H       1  UNL1        0.0868
     58 H           8.4523   -6.6017   -3.0643 H       1  UNL1        0.0868
     59 H           8.3032   -6.1943   -4.7668 H       1  UNL1        0.0868
     60 H          10.5177   -6.8400   -3.9797 H       1  UNL1        0.2041
     61 H          10.6656   -4.1394   -5.0990 H       1  UNL1        0.0867
     62 H          11.8920   -5.4223   -5.1782 H       1  UNL1        0.0867
     63 H           9.0779   -3.9818   -6.9425 H       1  UNL1        0.0622
     64 H           7.8118   -5.0439   -8.7644 H       1  UNL1        0.0618
     65 H           8.1467   -7.4343   -9.2974 H       1  UNL1        0.0618
     66 H           9.8032   -8.7722   -8.0416 H       1  UNL1        0.0618
     67 H          11.0992   -7.7595   -6.2160 H       1  UNL1        0.0622
     68 H          11.9661   -5.2071   -2.7979 H       1  UNL1        0.0868
     69 H          10.7699   -6.1360   -1.8702 H       1  UNL1        0.0868
     70 H          10.5263   -3.1741   -2.7206 H       1  UNL1        0.0868
     71 H          10.5997   -3.7899   -1.0562 H       1  UNL1        0.0868
@<TRIPOS>UNITY_ATOM_ATTR
20 1
charge 1
23 1
charge 1
@<TRIPOS>BOND
     1     1    33    1
     2     1    34    1
     3     1    35    1
     4     2     1    1
     5     3     2    1
     6     3    36    1
     7     3    37    1
     8     3    38    1
     9     4     2    1
    10     4    39    1
    11     4    40    1
    12     4    41    1
    13     5     2    1
    14     6     5    1
    15     7     6    2
    16     8     6   am
    17     8    42    1
    18     9     8    1
    19     9    43    1
    20    10     9    1
    21    10    44    1
    22    10    45    1
    23    11    10    1
    24    12    11   ar
    25    12    46    1
    26    13    12   ar
    27    13    47    1
    28    14    13   ar
    29    14    48    1
    30    15    14   ar
    31    15    49    1
    32    16    15   ar
    33    16    11   ar
    34    16    50    1
    35    18    17    1
    36    18    52    1
    37    19    17    1
    38    19    53    1
    39    19    54    1
    40    20    19    1
    41    20    55    1
    42    21    20    1
    43    21    56    1
    44    21    57    1
    45    22    21    1
    46    22    58    1
    47    22    59    1
    48    23    22    1
    49    24    61    1
    50    24    62    1
    51    25    24    1
    52    26    25   ar
    53    26    63    1
    54    27    26   ar
    55    27    64    1
    56    28    27   ar
    57    28    65    1
    58    29    28   ar
    59    29    66    1
    60    30    29   ar
    61    30    25   ar
    62    30    67    1
    63    31    23    1
    64    31    68    1
    65    31    69    1
    66    32    31    1
    67    32    20    1
    68    32    70    1
    69    32    71    1
    70    17    51    1
    71    17     9    1
    72    23    24    1
    73    23    60    1
@<TRIPOS>MOLECULE
mol_431_akc_journalpone0107994
>416.sdf
 49 51 0 0 0
SMALL
GASTEIGER

@<TRIPOS>ATOM
      1 N          24.7192   -6.5546   -2.9118 N.4     1  UNL1        0.2185
      2 C          23.3918   -6.7019   -3.5544 C.3     1  UNL1       -0.0349
      3 C          22.3294   -7.1367   -2.5455 C.3     1  UNL1       -0.0044
      4 C          22.1541   -6.2238   -1.3344 C.3     1  UNL1        0.0288
      5 C          21.8482   -4.8101   -1.7610 C.2     1  UNL1        0.2135
      6 O          22.7676   -4.0701   -2.1066 O.2     1  UNL1       -0.2758
      7 N          20.5143   -4.5101   -1.8101 N.am    1  UNL1       -0.3112
      8 C          20.0588   -3.1492   -2.0125 C.3     1  UNL1        0.0368
      9 C          18.5596   -3.0662   -2.1111 C.ar    1  UNL1       -0.0302
     10 C          17.7861   -3.0722   -0.9504 C.ar    1  UNL1       -0.0553
     11 C          16.4027   -2.8921   -1.0270 C.ar    1  UNL1       -0.0402
     12 C          15.7517   -2.6724   -2.2552 C.ar    1  UNL1        0.0314
     13 N          14.3439   -2.4098   -2.3529 N.pl3   1  UNL1       -0.3114
     14 C          13.7075   -1.8553   -1.2363 C.2     1  UNL1        0.0829
     15 C          13.9399   -0.6248   -0.7661 C.2     1  UNL1        0.0106
     16 C          13.7366   -0.3475    0.6713 C.2     1  UNL1        0.1886
     17 O          13.6798    0.7836    1.1239 O.2     1  UNL1       -0.2872
     18 C          13.8270   -1.5444    1.5306 C.ar    1  UNL1        0.0326
     19 C          13.3218   -2.7498    1.0476 C.ar    1  UNL1        0.0343
     20 C          13.4918   -3.9375    1.7610 C.ar    1  UNL1       -0.0502
     21 C          14.2839   -3.9233    2.9080 C.ar    1  UNL1       -0.0610
     22 C          14.8632   -2.7286    3.3516 C.ar    1  UNL1       -0.0610
     23 C          14.6073   -1.5262    2.6864 C.ar    1  UNL1       -0.0502
     24 C          12.9399   -2.8177   -0.3736 C.2     1  UNL1        0.2078
     25 O          12.2632   -3.7199   -0.8433 O.2     1  UNL1       -0.2853
     26 C          16.5127   -2.7780   -3.4183 C.ar    1  UNL1       -0.0402
     27 C          17.9046   -2.9636   -3.3476 C.ar    1  UNL1       -0.0553
     28 H          25.4381   -6.3509   -3.6166 H       1  UNL1        0.1994
     29 H          24.7223   -5.7524   -2.2629 H       1  UNL1        0.1994
     30 H          25.0125   -7.3969   -2.4042 H       1  UNL1        0.1994
     31 H          23.1597   -5.7471   -4.0330 H       1  UNL1        0.0813
     32 H          23.5067   -7.4608   -4.3347 H       1  UNL1        0.0813
     33 H          21.3710   -7.2081   -3.0733 H       1  UNL1        0.0321
     34 H          22.5659   -8.1451   -2.1843 H       1  UNL1        0.0321
     35 H          21.3611   -6.6017   -0.6847 H       1  UNL1        0.0360
     36 H          23.0680   -6.1993   -0.7193 H       1  UNL1        0.0360
     37 H          19.8364   -5.1551   -1.4215 H       1  UNL1        0.1490
     38 H          20.4063   -2.5552   -1.1580 H       1  UNL1        0.0512
     39 H          20.5430   -2.7307   -2.9034 H       1  UNL1        0.0512
     40 H          18.2476   -3.1795    0.0300 H       1  UNL1        0.0621
     41 H          15.8589   -2.9026   -0.0898 H       1  UNL1        0.0636
     42 H          13.8809   -3.2967   -2.5863 H       1  UNL1        0.1523
     43 H          14.4886    0.1275   -1.3245 H       1  UNL1        0.0676
     44 H          13.1006   -4.8760    1.3725 H       1  UNL1        0.0625
     45 H          14.4932   -4.8553    3.4293 H       1  UNL1        0.0618
     46 H          15.5380   -2.7404    4.2052 H       1  UNL1        0.0618
     47 H          15.0840   -0.6045    3.0139 H       1  UNL1        0.0625
     48 H          16.0360   -2.6614   -4.3884 H       1  UNL1        0.0636
     49 H          18.4754   -2.9879   -4.2725 H       1  UNL1        0.0621
@<TRIPOS>UNITY_ATOM_ATTR
1 1
charge 1
@<TRIPOS>BOND
     1     1    28    1
     2     1    29    1
     3     1    30    1
     4     2     1    1
     5     2    31    1
     6     2    32    1
     7     3     2    1
     8     3    33    1
     9     3    34    1
    10     4     3    1
    11     4    35    1
    12     4    36    1
    13     5     4    1
    14     6     5    2
    15     7     5   am
    16     7    37    1
    17     8     7    1
    18     8    38    1
    19     8    39    1
    20     9     8    1
    21    10     9   ar
    22    10    40    1
    23    11    10   ar
    24    11    41    1
    25    12    11   ar
    26    13    12    1
    27    13    42    1
    28    14    13    1
    29    15    14    2
    30    15    43    1
    31    16    15    1
    32    17    16    2
    33    18    16    1
    34    19    18   ar
    35    20    19   ar
    36    20    44    1
    37    21    20   ar
    38    21    45    1
    39    22    21   ar
    40    22    46    1
    41    23    22   ar
    42    23    18   ar
    43    23    47    1
    44    24    19    1
    45    24    14    1
    46    25    24    2
    47    26    12   ar
    48    26    48    1
    49    27    26   ar
    50    27     9   ar
    51    27    49    1
@<TRIPOS>MOLECULE
mol_433_akc_journalpone0091259
>418.sdf
 16 16 0 0 0
SMALL
GASTEIGER

@<TRIPOS>ATOM
      1 O           1.4601   -0.9433   -0.4130 O.3     1  UNL1       -0.3873
      2 C           2.4361   -0.0364    0.0824 C.3     1  UNL1        0.1020
      3 C           2.7705    0.9712   -0.9769 C.ar    1  UNL1        0.1339
      4 C           2.5904    2.2910   -0.8102 C.ar    1  UNL1        0.0292
      5 C           2.9332    3.2043   -1.9141 C.ar    1  UNL1        0.2263
      6 O           2.7998    4.4203   -1.8279 O.2     1  UNL1       -0.2838
      7 C           3.4544    2.5890   -3.1587 C.ar    1  UNL1        0.1992
      8 O           3.7715    3.3992   -4.2274 O.3     1  UNL1       -0.5012
      9 C           3.5925    1.2624   -3.1883 C.ar    1  UNL1        0.1372
     10 O           3.2815    0.4193   -2.1472 O.2     1  UNL1       -0.4616
     11 H           1.7765   -1.2488   -1.2816 H       1  UNL1        0.2100
     12 H           2.0324    0.4335    0.9846 H       1  UNL1        0.0638
     13 H           3.3275   -0.6047    0.3663 H       1  UNL1        0.0638
     14 H           2.1934    2.7341    0.0934 H       1  UNL1        0.0691
     15 H           3.5600    4.3086   -3.9269 H       1  UNL1        0.2924
     16 H           3.9642    0.7166   -4.0440 H       1  UNL1        0.1069
@<TRIPOS>BOND
     1     1    11    1
     2     2     1    1
     3     2    12    1
     4     2    13    1
     5     3     2    1
     6     4     3   ar
     7     4    14    1
     8     5     4   ar
     9     6     5    2
    10     7     5   ar
    11     8     7    1
    12     8    15    1
    13     9     7   ar
    14     9    16    1
    15    10     9   ar
    16    10     3   ar
@<TRIPOS>MOLECULE
mol_434_akc_jejmech201312030
>419.sdf
 64 69 0 0 0
SMALL
GASTEIGER

@<TRIPOS>ATOM
      1 O           6.5794   -9.1539    0.6475 O.2     1  UNL1        0.0000
      2 S           6.4425   -9.6863   -0.7840 S.O2    1  UNL1        0.0000
      3 O           7.2792  -10.9688   -0.9195 O.2     1  UNL1        0.0000
      4 N           4.7571  -10.0545   -1.1159 N.pl3   1  UNL1        0.0000
      5 C           3.8822   -9.0368   -1.6774 C.ar    1  UNL1        0.0000
      6 C           3.8337   -8.9927   -3.0130 C.ar    1  UNL1        0.0000
      7 C           2.9881   -8.1259   -3.6605 C.ar    1  UNL1        0.0000
      8 C           2.2281   -7.2297   -2.9640 C.ar    1  UNL1        0.0000
      9 SE          1.1874   -5.8326   -3.8603 Se      1  UNL1        0.0000
     10 SE         -1.1379   -6.1127   -3.3219 Se      1  UNL1        0.0000
     11 C          -1.7316   -7.8721   -3.9331 C.ar    1  UNL1        0.0000
     12 C          -1.0985   -8.9220   -3.4019 C.ar    1  UNL1        0.0000
     13 C          -1.5075  -10.2036   -3.6812 C.ar    1  UNL1        0.0000
     14 C          -2.5225  -10.4467   -4.5665 C.ar    1  UNL1        0.0000
     15 N          -2.8612  -11.7973   -5.0034 N.pl3   1  UNL1        0.0000
     16 S          -4.0466  -12.7466   -4.1104 S.O2    1  UNL1        0.0000
     17 O          -5.2106  -13.1080   -5.0391 O.2     1  UNL1        0.0000
     18 O          -3.3845  -14.0358   -3.6090 O.2     1  UNL1        0.0000
     19 C          -4.7104  -11.8170   -2.7062 C.ar    1  UNL1        0.0000
     20 C          -4.6013  -10.2589   -1.8542 C.ar    1  UNL1        0.0000
     21 N          -4.3268   -6.1536    0.4041 N.ar    1  UNL1        0.0000
     22 C          -4.0509   -6.0730    0.1789 C.ar    1  UNL1        0.0000
     23 C          -4.3083   -7.7025   -0.5328 C.ar    1  UNL1        0.0000
     24 C          -4.3909   -8.5677   -0.9803 C.ar    1  UNL1        0.0000
     25 C          -4.7152  -10.2940   -1.7550 C.ar    1  UNL1        0.0000
     26 C          -5.8125  -10.5626   -0.7537 C.ar    1  UNL1        0.0000
     27 C          -6.3600  -11.4459   -1.0090 C.ar    1  UNL1        0.0000
     28 C          -5.7855  -12.3896   -1.9311 C.ar    1  UNL1        0.0000
     29 C          -3.1834   -9.3784   -5.0167 C.ar    1  UNL1        0.0000
     30 C          -2.7261   -8.0515   -4.8807 C.ar    1  UNL1        0.0000
     31 C           2.2384   -7.3454   -1.6354 C.ar    1  UNL1        0.0000
     32 C           3.1807   -8.1111   -0.9179 C.ar    1  UNL1        0.0000
     33 C           6.9928   -8.4178   -1.9425 C.ar    1  UNL1        0.0000
     34 C           6.7114   -6.7824   -2.5129 C.ar    1  UNL1        0.0000
     35 N           5.9668   -2.3812   -4.0583 N.ar    1  UNL1        0.0000
     36 C           5.6476   -2.3976   -3.8892 C.ar    1  UNL1        0.0000
     37 C           6.1140   -4.0650   -3.4218 C.ar    1  UNL1        0.0000
     38 C           6.2982   -4.9780   -3.1207 C.ar    1  UNL1        0.0000
     39 C           6.8536   -6.7746   -2.5948 C.ar    1  UNL1        0.0000
     40 C           8.1375   -6.6187   -3.3759 C.ar    1  UNL1        0.0000
     41 C           8.7998   -7.4109   -3.1709 C.ar    1  UNL1        0.0000
     42 C           8.2882   -8.6118   -2.5633 C.ar    1  UNL1        0.0000
     43 H           4.3961  -10.9922   -0.9148 H       1  UNL1        0.0000
     44 H           4.4678   -9.6382   -3.5790 H       1  UNL1        0.0000
     45 H           2.9185   -8.1575   -4.7256 H       1  UNL1        0.0000
     46 H          -0.2595   -8.7584   -2.7617 H       1  UNL1        0.0000
     47 H          -1.0293  -11.0246   -3.1940 H       1  UNL1        0.0000
     48 H          -2.4071  -12.2015   -5.8291 H       1  UNL1        0.0000
     49 H          -3.1034   -5.7731   -0.5645 H       1  UNL1        0.0000
     50 H          -5.4433   -8.0232    0.3867 H       1  UNL1        0.0000
     51 H          -3.3196   -8.2594   -1.8427 H       1  UNL1        0.0000
     52 H          -6.0684   -9.7315    0.1698 H       1  UNL1        0.0000
     53 H          -7.2820  -11.6359   -0.5912 H       1  UNL1        0.0000
     54 H          -6.1188  -13.3719   -1.9885 H       1  UNL1        0.0000
     55 H          -4.1147   -9.5471   -5.5032 H       1  UNL1        0.0000
     56 H          -3.1185   -7.2410   -5.4678 H       1  UNL1        0.0000
     57 H           1.4823   -6.8311   -1.0907 H       1  UNL1        0.0000
     58 H           3.3454   -7.9862    0.1367 H       1  UNL1        0.0000
     59 H           4.5457   -2.4252   -3.3162 H       1  UNL1        0.0000
     60 H           7.4347   -3.9866   -4.1258 H       1  UNL1        0.0000
     61 H           5.0576   -5.0452   -2.4632 H       1  UNL1        0.0000
     62 H           8.3591   -5.5669   -4.0758 H       1  UNL1        0.0000
     63 H           9.7981   -7.3464   -3.4123 H       1  UNL1        0.0000
     64 H           8.8052   -9.5099   -2.6037 H       1  UNL1        0.0000
@<TRIPOS>BOND
     1     2     1    2
     2     3     2    2
     3     4     2    1
     4     4    43    1
     5     5     4    1
     6     6     5   ar
     7     6    44    1
     8     7     6   ar
     9     7    45    1
    10     8     7   ar
    11     9     8    1
    12    10     9    1
    13    11    10    1
    14    12    11   ar
    15    12    46    1
    16    13    12   ar
    17    13    47    1
    18    14    13   ar
    19    15    14    1
    20    15    48    1
    21    16    15    1
    22    17    16    2
    23    18    16    2
    24    19    16    1
    25    20    19   ar
    26    21    20   ar
    27    22    21   ar
    28    22    49    1
    29    23    22   ar
    30    23    50    1
    31    24    23   ar
    32    24    51    1
    33    25    24   ar
    34    25    20   ar
    35    26    25   ar
    36    26    52    1
    37    27    26   ar
    38    27    53    1
    39    28    27   ar
    40    28    19   ar
    41    28    54    1
    42    29    14   ar
    43    29    55    1
    44    30    29   ar
    45    30    11   ar
    46    30    56    1
    47    31     8   ar
    48    31    57    1
    49    32    31   ar
    50    32     5   ar
    51    32    58    1
    52    33     2    1
    53    34    33   ar
    54    35    34   ar
    55    36    35   ar
    56    36    59    1
    57    37    36   ar
    58    37    60    1
    59    38    37   ar
    60    38    61    1
    61    39    38   ar
    62    39    34   ar
    63    40    39   ar
    64    40    62    1
    65    41    40   ar
    66    41    63    1
    67    42    41   ar
    68    42    33   ar
    69    42    64    1
@<TRIPOS>MOLECULE
mol_435_akc_s00044_013_0741_y
>420.sdf
 45 45 0 0 0
SMALL
GASTEIGER

@<TRIPOS>ATOM
      1 C           1.0395    0.0936    0.0241 C.3     1  UNL1       -0.0653
      2 C           2.5603    0.0737    0.0208 C.3     1  UNL1       -0.0559
      3 C           3.0985   -1.3439   -0.1752 C.3     1  UNL1       -0.0533
      4 C           4.6285   -1.3705   -0.1791 C.3     1  UNL1       -0.0531
      5 C           5.1592   -2.7935   -0.3729 C.3     1  UNL1       -0.0530
      6 C           6.6891   -2.8260   -0.3757 C.3     1  UNL1       -0.0500
      7 C           7.2195   -4.2454   -0.5707 C.3     1  UNL1       -0.0185
      8 C           8.7468   -4.2774   -0.5936 C.3     1  UNL1        0.0928
      9 O           9.2158   -5.6236   -0.7912 O.3     1  UNL1       -0.4616
     10 C           9.2158   -6.0335   -2.0834 C.2     1  UNL1        0.3319
     11 O           8.8577   -5.3827   -3.0518 O.2     1  UNL1       -0.2456
     12 C           9.7068   -7.4249   -2.1443 C.2     1  UNL1        0.0231
     13 C           9.7559   -8.0548   -3.3312 C.2     1  UNL1       -0.0477
     14 C          10.2109   -9.4399   -3.5246 C.ar    1  UNL1       -0.0211
     15 C          10.0577  -10.4205   -2.5325 C.ar    1  UNL1       -0.0094
     16 C          10.4740  -11.7251   -2.7797 C.ar    1  UNL1        0.1588
     17 O          10.3477  -12.7124   -1.8409 O.3     1  UNL1       -0.5033
     18 C          11.0301  -12.0684   -4.0075 C.ar    1  UNL1        0.1582
     19 O          11.4312  -13.3521   -4.2396 O.3     1  UNL1       -0.5033
     20 C          11.1743  -11.1205   -5.0072 C.ar    1  UNL1       -0.0160
     21 C          10.7585   -9.8068   -4.7672 C.ar    1  UNL1       -0.0509
     22 H           0.6726    1.1151    0.1654 H       1  UNL1        0.0230
     23 H           0.6404   -0.2825   -0.9234 H       1  UNL1        0.0230
     24 H           0.6410   -0.5254    0.8343 H       1  UNL1        0.0230
     25 H           2.9267    0.7265   -0.7801 H       1  UNL1        0.0263
     26 H           2.9272    0.4849    0.9684 H       1  UNL1        0.0263
     27 H           2.7226   -1.9916    0.6262 H       1  UNL1        0.0265
     28 H           2.7222   -1.7502   -1.1220 H       1  UNL1        0.0265
     29 H           5.0048   -0.7248   -0.9818 H       1  UNL1        0.0265
     30 H           5.0053   -0.9634    0.7670 H       1  UNL1        0.0265
     31 H           4.7803   -3.4387    0.4289 H       1  UNL1        0.0265
     32 H           4.7814   -3.1991   -1.3196 H       1  UNL1        0.0265
     33 H           7.0665   -2.1826   -1.1799 H       1  UNL1        0.0266
     34 H           7.0679   -2.4194    0.5695 H       1  UNL1        0.0266
     35 H           6.8549   -4.9059    0.2258 H       1  UNL1        0.0298
     36 H           6.8270   -4.6623   -1.5056 H       1  UNL1        0.0298
     37 H           9.1542   -3.6137   -1.3660 H       1  UNL1        0.0697
     38 H           9.1464   -3.9288    0.3658 H       1  UNL1        0.0697
     39 H          10.0122   -7.8791   -1.2129 H       1  UNL1        0.0689
     40 H           9.4542   -7.5275   -4.2347 H       1  UNL1        0.0626
     41 H           9.6028  -10.1696   -1.5806 H       1  UNL1        0.0661
     42 H           9.9363  -12.3277   -1.0481 H       1  UNL1        0.2923
     43 H          11.2258  -13.8273   -3.4101 H       1  UNL1        0.2923
     44 H          11.6019  -11.4003   -5.9653 H       1  UNL1        0.0655
     45 H          10.8712   -9.0721   -5.5627 H       1  UNL1        0.0625
@<TRIPOS>BOND
     1     1    22    1
     2     1    23    1
     3     1    24    1
     4     2     1    1
     5     2    25    1
     6     2    26    1
     7     3     2    1
     8     3    27    1
     9     3    28    1
    10     4     3    1
    11     4    29    1
    12     4    30    1
    13     5     4    1
    14     5    31    1
    15     5    32    1
    16     6     5    1
    17     6    33    1
    18     6    34    1
    19     7     6    1
    20     7    35    1
    21     7    36    1
    22     8     7    1
    23     8    37    1
    24     8    38    1
    25     9     8    1
    26    10     9    1
    27    11    10    2
    28    12    10    1
    29    12    39    1
    30    13    12    2
    31    13    40    1
    32    14    13    1
    33    15    14   ar
    34    15    41    1
    35    16    15   ar
    36    17    16    1
    37    17    42    1
    38    18    16   ar
    39    19    18    1
    40    19    43    1
    41    20    18   ar
    42    20    44    1
    43    21    20   ar
    44    21    14   ar
    45    21    45    1
@<TRIPOS>MOLECULE
mol_436_akc_molecules19021394
>421.sdf
 47 48 0 0 0
SMALL
GASTEIGER

@<TRIPOS>ATOM
      1 C           0.8983   -0.9707    2.0984 C.3     1  UNL1       -0.0623
      2 C           2.4207   -1.1658    2.0585 C.3     1  UNL1       -0.0405
      3 C           3.0783    0.0416    2.7333 C.3     1  UNL1       -0.0623
      4 C           2.9553   -1.4167    0.6083 C.3     1  UNL1       -0.0015
      5 C           2.3587   -2.6975   -0.0227 C.3     1  UNL1       -0.0464
      6 C           2.8173   -3.9662    0.6961 C.3     1  UNL1       -0.0500
      7 C           4.3376   -4.0538    0.9201 C.3     1  UNL1       -0.0405
      8 C           4.6394   -5.1241    1.9726 C.3     1  UNL1       -0.0623
      9 C           4.9927   -2.7236    1.3339 C.3     1  UNL1       -0.0128
     10 C           4.5042   -1.5300    0.5023 C.3     1  UNL1        0.1067
     11 O           4.8054   -1.7175   -0.9043 O.3     1  UNL1       -0.4580
     12 C           6.0825   -1.6603   -1.3351 C.2     1  UNL1        0.3322
     13 O           7.0685   -1.4100   -0.6562 O.2     1  UNL1       -0.2456
     14 C           6.1718   -2.0278   -2.7732 C.2     1  UNL1        0.0231
     15 C           5.0950   -2.1209   -3.5724 C.2     1  UNL1       -0.0478
     16 C           5.0856   -2.5884   -4.9692 C.ar    1  UNL1       -0.0248
     17 C           3.8967   -3.1518   -5.4585 C.ar    1  UNL1       -0.0546
     18 C           3.8082   -3.6332   -6.7675 C.ar    1  UNL1       -0.0612
     19 C           4.9088   -3.5441   -7.6127 C.ar    1  UNL1       -0.0617
     20 C           6.0905   -2.9631   -7.1526 C.ar    1  UNL1       -0.0612
     21 C           6.1789   -2.4823   -5.8393 C.ar    1  UNL1       -0.0546
     22 H           0.3591   -1.8222    1.6767 H       1  UNL1        0.0232
     23 H           0.5554   -0.8690    3.1345 H       1  UNL1        0.0232
     24 H           0.5990   -0.0684    1.5549 H       1  UNL1        0.0232
     25 H           2.6384   -2.0394    2.6834 H       1  UNL1        0.0299
     26 H           2.9345    0.9531    2.1436 H       1  UNL1        0.0232
     27 H           2.6462    0.2103    3.7260 H       1  UNL1        0.0232
     28 H           4.1513   -0.1114    2.8784 H       1  UNL1        0.0232
     29 H           2.6394   -0.5741   -0.0226 H       1  UNL1        0.0339
     30 H           1.2652   -2.6601   -0.0408 H       1  UNL1        0.0269
     31 H           2.6490   -2.7632   -1.0786 H       1  UNL1        0.0269
     32 H           2.2891   -4.0440    1.6522 H       1  UNL1        0.0268
     33 H           2.4978   -4.8362    0.1069 H       1  UNL1        0.0268
     34 H           4.7965   -4.3704   -0.0256 H       1  UNL1        0.0299
     35 H           4.2604   -4.8235    2.9575 H       1  UNL1        0.0232
     36 H           4.1690   -6.0774    1.7113 H       1  UNL1        0.0232
     37 H           5.7172   -5.2897    2.0665 H       1  UNL1        0.0232
     38 H           4.8089   -2.5275    2.3969 H       1  UNL1        0.0303
     39 H           6.0795   -2.8312    1.2388 H       1  UNL1        0.0303
     40 H           4.9813   -0.5999    0.8315 H       1  UNL1        0.0737
     41 H           7.1755   -2.2583   -3.1101 H       1  UNL1        0.0689
     42 H           4.1109   -1.8835   -3.1746 H       1  UNL1        0.0626
     43 H           3.0230   -3.2371   -4.8151 H       1  UNL1        0.0623
     44 H           2.8821   -4.0787   -7.1202 H       1  UNL1        0.0618
     45 H           4.8450   -3.9243   -8.6293 H       1  UNL1        0.0618
     46 H           6.9461   -2.8836   -7.8186 H       1  UNL1        0.0618
     47 H           7.1093   -2.0214   -5.5184 H       1  UNL1        0.0623
@<TRIPOS>BOND
     1     1    22    1
     2     1    23    1
     3     1    24    1
     4     2     1    1
     5     2    25    1
     6     3     2    1
     7     3    26    1
     8     3    27    1
     9     3    28    1
    10     5     4    1
    11     5    30    1
    12     5    31    1
    13     6     5    1
    14     6    32    1
    15     6    33    1
    16     7     6    1
    17     8    35    1
    18     8    36    1
    19     8    37    1
    20     9     7    1
    21     9    38    1
    22     9    39    1
    23    10     9    1
    24    10     4    1
    25    12    11    1
    26    13    12    2
    27    14    12    1
    28    14    41    1
    29    15    14    2
    30    15    42    1
    31    16    15    1
    32    17    16   ar
    33    17    43    1
    34    18    17   ar
    35    18    44    1
    36    19    18   ar
    37    19    45    1
    38    20    19   ar
    39    20    46    1
    40    21    20   ar
    41    21    16   ar
    42    21    47    1
    43     4    29    1
    44     4     2    1
    45     7     8    1
    46     7    34    1
    47    10    11    1
    48    10    40    1
@<TRIPOS>MOLECULE
mol_437_akc_jbmc201312039
>422.sdf
 55 59 0 0 0
SMALL
GASTEIGER

@<TRIPOS>ATOM
      1 C           2.2945   15.3524    5.8791 C.3     1  UNL1       -0.0397
      2 C           1.1013   15.2689    4.9748 C.ar    1  UNL1       -0.0504
      3 C           0.8986   16.1668    3.9133 C.ar    1  UNL1       -0.0586
      4 C          -0.1878   16.0259    3.0345 C.ar    1  UNL1       -0.0580
      5 C          -1.0916   14.9789    3.2113 C.ar    1  UNL1       -0.0425
      6 C          -0.8946   14.1037    4.3057 C.ar    1  UNL1       -0.0580
      7 C           0.1823   14.2422    5.1719 C.ar    1  UNL1       -0.0586
      8 C          -2.1681   14.5892    2.2156 C.3     1  UNL1        0.0094
      9 C          -1.5405   13.7767    1.0712 C.3     1  UNL1        0.0139
     10 C          -2.5971   13.0189    0.3053 C.2     1  UNL1        0.1346
     11 O          -2.4117   11.8508   -0.0456 O.2     1  UNL1       -0.2974
     12 C          -3.8378   13.7636   -0.1150 C.3     1  UNL1        0.0139
     13 C          -4.4298   14.6315    1.0048 C.3     1  UNL1        0.0094
     14 C          -5.3036   13.8555    2.0109 C.ar    1  UNL1       -0.0425
     15 C          -4.8277   12.7604    2.7444 C.ar    1  UNL1       -0.0580
     16 C          -5.3523   12.4857    4.0091 C.ar    1  UNL1       -0.0586
     17 C          -6.4183   13.2363    4.5071 C.ar    1  UNL1       -0.0504
     18 C          -6.8219   13.1237    5.9464 C.3     1  UNL1       -0.0397
     19 C          -7.0730   14.1252    3.6534 C.ar    1  UNL1       -0.0586
     20 C          -6.5166   14.4366    2.4114 C.ar    1  UNL1       -0.0580
     21 C          -3.3027   15.5311    1.7383 C.3     1  UNL1        0.0880
     22 C          -2.9291   16.6088    0.6835 C.2     1  UNL1        0.2290
     23 O          -2.1492   16.4921   -0.2529 O.2     1  UNL1       -0.2745
     24 N          -3.7525   17.7065    0.9088 N.am    1  UNL1       -0.2845
     25 C          -4.3637   17.6161    2.1509 C.ar    1  UNL1        0.0376
     26 C          -5.2098   18.5294    2.7451 C.ar    1  UNL1       -0.0402
     27 C          -5.6307   18.2561    4.0467 C.ar    1  UNL1       -0.0600
     28 C          -5.1558   17.1212    4.7294 C.ar    1  UNL1       -0.0614
     29 C          -4.3134   16.2016    4.0954 C.ar    1  UNL1       -0.0558
     30 C          -3.9745   16.4271    2.7725 C.ar    1  UNL1       -0.0100
     31 H           1.9719   15.4686    6.9192 H       1  UNL1        0.0278
     32 H           2.8898   14.4356    5.7959 H       1  UNL1        0.0278
     33 H           2.9391   16.1973    5.6238 H       1  UNL1        0.0278
     34 H           1.6125   16.9702    3.7449 H       1  UNL1        0.0620
     35 H          -0.2799   16.7089    2.1925 H       1  UNL1        0.0620
     36 H          -1.5626   13.2575    4.4645 H       1  UNL1        0.0620
     37 H           0.3160   13.5226    5.9765 H       1  UNL1        0.0620
     38 H          -2.7126   13.8546    2.8046 H       1  UNL1        0.0366
     39 H          -0.9633   14.3964    0.3803 H       1  UNL1        0.0348
     40 H          -0.8503   13.0289    1.4819 H       1  UNL1        0.0348
     41 H          -4.5805   13.0466   -0.4805 H       1  UNL1        0.0348
     42 H          -3.5521   14.3905   -0.9694 H       1  UNL1        0.0348
     43 H          -5.1223   15.3087    0.4805 H       1  UNL1        0.0366
     44 H          -3.9563   12.1917    2.4322 H       1  UNL1        0.0620
     45 H          -4.8601   11.7447    4.6364 H       1  UNL1        0.0620
     46 H          -7.2865   14.0562    6.2893 H       1  UNL1        0.0278
     47 H          -7.5151   12.2978    6.0938 H       1  UNL1        0.0278
     48 H          -5.9346   12.9746    6.5774 H       1  UNL1        0.0278
     49 H          -7.9490   14.6727    3.9916 H       1  UNL1        0.0620
     50 H          -6.9641   15.2428    1.8328 H       1  UNL1        0.0620
     51 H          -3.7649   18.5262    0.3179 H       1  UNL1        0.1548
     52 H          -5.5576   19.4133    2.2234 H       1  UNL1        0.0636
     53 H          -6.3273   18.9276    4.5459 H       1  UNL1        0.0618
     54 H          -5.4786   16.9340    5.7512 H       1  UNL1        0.0618
     55 H          -3.9993   15.3024    4.6157 H       1  UNL1        0.0621
@<TRIPOS>BOND
     1     1    31    1
     2     1    32    1
     3     1    33    1
     4     2     1    1
     5     3     2   ar
     6     3    34    1
     7     4     3   ar
     8     4    35    1
     9     5     4   ar
    10     6     5   ar
    11     6    36    1
    12     7     6   ar
    13     7     2   ar
    14     7    37    1
    15     9     8    1
    16    10     9    1
    17    12    10    1
    18    13    12    1
    19    15    14   ar
    20    15    44    1
    21    16    15   ar
    22    16    45    1
    23    17    16   ar
    24    18    17    1
    25    18    46    1
    26    18    47    1
    27    18    48    1
    28    19    17   ar
    29    19    49    1
    30    20    19   ar
    31    20    14   ar
    32    20    50    1
    33    21    13    1
    34    21     8    1
    35    21    22    1
    36    24    22   am
    37    25    24    1
    38    26    25   ar
    39    27    26   ar
    40    28    27   ar
    41    29    28   ar
    42    30    29   ar
    43    30    21    1
    44    30    25   ar
    45     8     5    1
    46     8    38    1
    47     9    39    1
    48     9    40    1
    49    11    10    2
    50    12    41    1
    51    12    42    1
    52    13    43    1
    53    14    13    1
    54    23    22    2
    55    24    51    1
    56    26    52    1
    57    27    53    1
    58    28    54    1
    59    29    55    1
@<TRIPOS>MOLECULE
mol_438_akc_jejmech201311011
>423.sdf
 46 50 0 0 0
SMALL
GASTEIGER

@<TRIPOS>ATOM
      1 O           2.5649    1.3371   -0.2548 O.2     1  UNL1       -0.2873
      2 C           1.3816    1.1108   -0.0961 C.2     1  UNL1        0.1853
      3 C           0.2897    2.1107   -0.0902 C.2     1  UNL1        0.0004
      4 C          -1.0277    1.4172    0.0543 C.3     1  UNL1       -0.0199
      5 C          -0.7150   -0.0638    0.2931 C.3     1  UNL1       -0.0199
      6 C           0.7666   -0.2140    0.1463 C.2     1  UNL1        0.0004
      7 C           1.5296   -1.3109    0.2539 C.2     1  UNL1       -0.0472
      8 C           0.9957   -2.6340    0.6038 C.ar    1  UNL1       -0.0169
      9 C           0.8995   -3.0628    1.9553 C.ar    1  UNL1       -0.0079
     10 C           1.3089   -2.2859    3.0587 C.ar    1  UNL1       -0.0353
     11 C           1.1770   -2.7945    4.3410 C.ar    1  UNL1        0.0282
     12 N           0.6712   -4.0108    4.6159 N.ar    1  UNL1       -0.2626
     13 C           0.2839   -4.7532    3.5538 C.ar    1  UNL1        0.0353
     14 C           0.3692   -4.3439    2.2199 C.ar    1  UNL1        0.0008
     15 C          -0.0507   -5.1687    1.1622 C.ar    1  UNL1       -0.0525
     16 C           0.0564   -4.7370   -0.1581 C.ar    1  UNL1       -0.0606
     17 C           0.5782   -3.4759   -0.4372 C.ar    1  UNL1       -0.0540
     18 C           0.5604    3.4196   -0.1998 C.2     1  UNL1       -0.0472
     19 C          -0.4781    4.4582   -0.2258 C.ar    1  UNL1       -0.0169
     20 C          -1.0743    4.8945   -1.4386 C.ar    1  UNL1       -0.0079
     21 C          -0.7223    4.3999   -2.7111 C.ar    1  UNL1       -0.0353
     22 C          -1.3606    4.8937   -3.8378 C.ar    1  UNL1        0.0282
     23 N          -2.3202    5.8366   -3.8022 N.ar    1  UNL1       -0.2626
     24 C          -2.6510    6.3100   -2.5792 C.ar    1  UNL1        0.0353
     25 C          -2.0755    5.8880   -1.3775 C.ar    1  UNL1        0.0008
     26 C          -2.4651    6.4272   -0.1395 C.ar    1  UNL1       -0.0525
     27 C          -1.8648    5.9961    1.0410 C.ar    1  UNL1       -0.0606
     28 C          -0.8745    5.0175    0.9985 C.ar    1  UNL1       -0.0540
     29 H          -1.6044    1.8209    0.8933 H       1  UNL1        0.0317
     30 H          -1.6235    1.5331   -0.8581 H       1  UNL1        0.0317
     31 H          -1.0387   -0.3604    1.2969 H       1  UNL1        0.0317
     32 H          -1.2496   -0.6827   -0.4362 H       1  UNL1        0.0317
     33 H           2.6105   -1.2570    0.1365 H       1  UNL1        0.0627
     34 H           1.7329   -1.2956    2.9299 H       1  UNL1        0.0639
     35 H           1.4888   -2.2141    5.2053 H       1  UNL1        0.0830
     36 H          -0.1123   -5.7309    3.8167 H       1  UNL1        0.0836
     37 H          -0.4599   -6.1567    1.3635 H       1  UNL1        0.0624
     38 H          -0.2638   -5.3860   -0.9697 H       1  UNL1        0.0618
     39 H           0.6632   -3.1544   -1.4733 H       1  UNL1        0.0624
     40 H           1.5846    3.7760   -0.2957 H       1  UNL1        0.0627
     41 H           0.0452    3.6423   -2.8332 H       1  UNL1        0.0639
     42 H          -1.1027    4.5303   -4.8285 H       1  UNL1        0.0830
     43 H          -3.4241    7.0747   -2.5933 H       1  UNL1        0.0836
     44 H          -3.2375    7.1920   -0.0903 H       1  UNL1        0.0624
     45 H          -2.1662    6.4253    1.9934 H       1  UNL1        0.0618
     46 H          -0.4088    4.6946    1.9277 H       1  UNL1        0.0624
@<TRIPOS>BOND
     1     2     1    2
     2     3     2    1
     3     4     3    1
     4     4    29    1
     5     4    30    1
     6     5     4    1
     7     5    31    1
     8     5    32    1
     9     6     5    1
    10     6     2    1
    11     7     6    2
    12     7    33    1
    13     8     7    1
    14     9     8   ar
    15    10     9   ar
    16    10    34    1
    17    11    10   ar
    18    11    35    1
    19    12    11   ar
    20    13    12   ar
    21    13    36    1
    22    14    13   ar
    23    14     9   ar
    24    15    14   ar
    25    15    37    1
    26    16    15   ar
    27    16    38    1
    28    17    16   ar
    29    17     8   ar
    30    17    39    1
    31    18     3    2
    32    18    40    1
    33    19    18    1
    34    20    19   ar
    35    21    20   ar
    36    21    41    1
    37    22    21   ar
    38    22    42    1
    39    23    22   ar
    40    24    23   ar
    41    24    43    1
    42    25    24   ar
    43    25    20   ar
    44    26    25   ar
    45    26    44    1
    46    27    26   ar
    47    27    45    1
    48    28    27   ar
    49    28    19   ar
    50    28    46    1
@<TRIPOS>MOLECULE
mol_439_akc_1573406410666140507095430
>424.sdf
 38 40 0 0 0
SMALL
GASTEIGER

@<TRIPOS>ATOM
      1 C           2.3622    0.1759   -0.9455 C.3     1  UNL1       -0.0426
      2 N           0.8645    0.1315   -0.8173 N.4     1  UNL1        0.2376
      3 C           0.3183   -1.0520   -0.0326 C.3     1  UNL1       -0.0173
      4 C           0.5554   -0.6347    1.4179 C.3     1  UNL1       -0.0045
      5 C           0.5238    0.8993    1.4073 C.3     1  UNL1       -0.0045
      6 C           0.2739    1.2996   -0.0529 C.3     1  UNL1       -0.0173
      7 C          -1.2042    1.3680   -0.4725 C.3     1  UNL1        0.0277
      8 C          -1.9842    0.0955   -0.1069 C.3     1  UNL1        0.1136
      9 C          -1.1746   -1.1800   -0.3849 C.3     1  UNL1        0.0277
     10 O          -2.2746    0.2511    1.2921 O.3     1  UNL1       -0.4575
     11 C          -3.4587   -0.2073    1.7613 C.2     1  UNL1        0.3395
     12 O          -4.1297   -1.0872    1.2577 O.2     1  UNL1       -0.2450
     13 C          -3.8087    0.5963    2.9629 C.ar    1  UNL1        0.0590
     14 C          -4.6761    0.0722    3.9226 C.ar    1  UNL1       -0.0478
     15 C          -5.0463    0.8536    5.0214 C.ar    1  UNL1       -0.0610
     16 C          -4.5613    2.1577    5.1570 C.ar    1  UNL1       -0.0617
     17 C          -3.7009    2.6869    4.2030 C.ar    1  UNL1       -0.0610
     18 C          -3.3251    1.9093    3.1062 C.ar    1  UNL1       -0.0478
     19 H           2.6727   -0.7016   -1.5157 H       1  UNL1        0.0778
     20 H           2.6200    1.0895   -1.4885 H       1  UNL1        0.0778
     21 H           2.8217    0.1781    0.0456 H       1  UNL1        0.0778
     22 H           0.5029    0.1140   -1.7811 H       1  UNL1        0.2036
     23 H           0.8711   -1.9509   -0.3240 H       1  UNL1        0.0852
     24 H          -0.1778   -1.0690    2.1050 H       1  UNL1        0.0322
     25 H           1.5406   -0.9795    1.7539 H       1  UNL1        0.0322
     26 H           1.4974    1.2783    1.7408 H       1  UNL1        0.0322
     27 H          -0.2145    1.3121    2.1005 H       1  UNL1        0.0322
     28 H           0.7997    2.2169   -0.3371 H       1  UNL1        0.0852
     29 H          -1.6674    2.2397    0.0065 H       1  UNL1        0.0356
     30 H          -1.2633    1.5272   -1.5562 H       1  UNL1        0.0356
     31 H          -2.9264    0.0754   -0.6686 H       1  UNL1        0.0738
     32 H          -1.6019   -2.0272    0.1633 H       1  UNL1        0.0356
     33 H          -1.2542   -1.4128   -1.4552 H       1  UNL1        0.0356
     34 H          -5.0741   -0.9350    3.8206 H       1  UNL1        0.0626
     35 H          -5.7254    0.4537    5.7707 H       1  UNL1        0.0618
     36 H          -4.8665    2.7656    6.0052 H       1  UNL1        0.0618
     37 H          -3.3357    3.7053    4.2979 H       1  UNL1        0.0618
     38 H          -2.6756    2.3543    2.3605 H       1  UNL1        0.0626
@<TRIPOS>UNITY_ATOM_ATTR
2 1
charge 1
@<TRIPOS>BOND
     1     1    19    1
     2     1    20    1
     3     1    21    1
     4     2     1    1
     5     2    22    1
     6     3     2    1
     7     3    23    1
     8     4     3    1
     9     4    24    1
    10     4    25    1
    11     5     4    1
    12     5    26    1
    13     5    27    1
    14     6     5    1
    15     6     2    1
    16     6    28    1
    17     7     6    1
    18     7    29    1
    19     7    30    1
    20     8     7    1
    21     9     8    1
    22     9     3    1
    23     9    32    1
    24     9    33    1
    25    11    10    1
    26    12    11    2
    27    13    11    1
    28    14    13   ar
    29    14    34    1
    30    15    14   ar
    31    15    35    1
    32    16    15   ar
    33    16    36    1
    34    17    16   ar
    35    17    37    1
    36    18    17   ar
    37    18    13   ar
    38    18    38    1
    39     8    10    1
    40     8    31    1
@<TRIPOS>MOLECULE
mol_43_akc_jbmcl201101026
>43.sdf
 45 48 0 0 0
SMALL
GASTEIGER

@<TRIPOS>ATOM
      1 CL         -5.6388    0.9081   -6.2595 Cl      1  UNL1       -0.0835
      2 C          -5.3254    2.4442   -5.5520 C.ar    1  UNL1        0.0413
      3 C          -5.8146    3.5970   -6.1585 C.ar    1  UNL1       -0.0420
      4 C          -5.5636    4.8401   -5.5759 C.ar    1  UNL1       -0.0417
      5 C          -4.8237    4.9288   -4.3916 C.ar    1  UNL1        0.0442
      6 CL         -4.5698    6.5046   -3.7312 Cl      1  UNL1       -0.0833
      7 C          -4.3149    3.7712   -3.7759 C.ar    1  UNL1       -0.0277
      8 C          -3.5108    3.8042   -2.4932 C.3     1  UNL1       -0.0259
      9 C          -4.4061    3.6813   -1.2532 C.3     1  UNL1       -0.0440
     10 C          -3.6252    3.6919    0.0887 C.3     1  UNL1       -0.0154
     11 C          -2.8030    4.9719    0.3075 C.3     1  UNL1       -0.0440
     12 C          -3.6823    6.2167    0.4020 C.3     1  UNL1       -0.0270
     13 C          -4.9135    6.0313    1.2554 C.ar    1  UNL1       -0.0422
     14 C          -5.3765    4.7561    1.6354 C.ar    1  UNL1       -0.0213
     15 C          -6.5530    4.6508    2.4000 C.ar    1  UNL1       -0.0563
     16 C          -7.2583    5.7903    2.7818 C.ar    1  UNL1       -0.0614
     17 C          -6.8029    7.0482    2.4010 C.ar    1  UNL1       -0.0615
     18 C          -5.6422    7.1678    1.6370 C.ar    1  UNL1       -0.0582
     19 C          -4.5999    3.4950    1.2857 C.3     1  UNL1        0.0633
     20 N          -3.9120    2.9551    2.4683 N.ar    1  UNL1       -0.3292
     21 C          -3.3813    3.6390    3.5309 C.ar    1  UNL1        0.0247
     22 C          -2.8924    2.6726    4.3769 C.ar    1  UNL1        0.0454
     23 N          -3.0954    1.4231    3.8542 N.ar    1  UNL1       -0.2440
     24 C          -3.7116    1.6218    2.7115 C.ar    1  UNL1        0.0964
     25 C          -4.5835    2.5251   -4.3719 C.ar    1  UNL1       -0.0388
     26 H          -6.3908    3.5365   -7.0782 H       1  UNL1        0.0633
     27 H          -5.9494    5.7391   -6.0523 H       1  UNL1        0.0633
     28 H          -2.7825    2.9836   -2.5039 H       1  UNL1        0.0314
     29 H          -2.9105    4.7185   -2.4642 H       1  UNL1        0.0314
     30 H          -5.1631    4.4742   -1.2656 H       1  UNL1        0.0272
     31 H          -4.9652    2.7378   -1.3190 H       1  UNL1        0.0272
     32 H          -2.9262    2.8446    0.0573 H       1  UNL1        0.0324
     33 H          -2.2224    4.8735    1.2330 H       1  UNL1        0.0272
     34 H          -2.0570    5.1051   -0.4830 H       1  UNL1        0.0272
     35 H          -3.0774    7.0390    0.8032 H       1  UNL1        0.0313
     36 H          -4.0051    6.5131   -0.6027 H       1  UNL1        0.0313
     37 H          -6.9161    3.6757    2.7201 H       1  UNL1        0.0621
     38 H          -8.1590    5.6963    3.3828 H       1  UNL1        0.0618
     39 H          -7.3501    7.9381    2.6998 H       1  UNL1        0.0618
     40 H          -5.3044    8.1591    1.3410 H       1  UNL1        0.0620
     41 H          -5.3313    2.7223    1.0079 H       1  UNL1        0.0580
     42 H          -3.4069    4.7171    3.6106 H       1  UNL1        0.0825
     43 H          -2.4090    2.8140    5.3350 H       1  UNL1        0.0845
     44 H          -4.0329    0.8444    2.0302 H       1  UNL1        0.1029
     45 H          -4.2106    1.6112   -3.9133 H       1  UNL1        0.0635
@<TRIPOS>BOND
     1     2     1    1
     2     3     2   ar
     3     3    26    1
     4     4     3   ar
     5     4    27    1
     6     5     4   ar
     7     6     5    1
     8     7     5   ar
     9     8     7    1
    10     8    28    1
    11     8    29    1
    12     9     8    1
    13     9    30    1
    14     9    31    1
    15    11    10    1
    16    11    33    1
    17    11    34    1
    18    12    11    1
    19    12    35    1
    20    12    36    1
    21    13    12    1
    22    14    13   ar
    23    15    14   ar
    24    15    37    1
    25    16    15   ar
    26    16    38    1
    27    17    16   ar
    28    17    39    1
    29    18    17   ar
    30    18    13   ar
    31    18    40    1
    32    19    14    1
    33    19    10    1
    34    19    41    1
    35    20    19    1
    36    21    20   ar
    37    21    42    1
    38    22    21   ar
    39    22    43    1
    40    23    22   ar
    41    24    23   ar
    42    24    20   ar
    43    24    44    1
    44    25     7   ar
    45    25     2   ar
    46    25    45    1
    47    10    32    1
    48    10     9    1
@<TRIPOS>MOLECULE
mol_440_akc_s_0034_1382826
>425.sdf
 44 48 0 0 0
SMALL
GASTEIGER

@<TRIPOS>ATOM
      1 C           1.2118    0.2558    0.2216 C.3     1  UNL1        0.0790
      2 O           2.4773   -0.1600   -0.2880 O.3     1  UNL1       -0.4914
      3 C           3.1995    0.7700   -0.9873 C.ar    1  UNL1        0.1623
      4 C           4.2517    0.2979   -1.7862 C.ar    1  UNL1        0.1748
      5 O           4.3707   -1.0646   -1.9639 O.3     1  UNL1       -0.4907
      6 C           5.4919   -1.6529   -1.3036 C.3     1  UNL1        0.0790
      7 C           5.0517    1.1875   -2.5495 C.ar    1  UNL1        0.0915
      8 C           6.0893    0.7315   -3.3523 C.ar    1  UNL1        0.1829
      9 N           6.8918    1.5528   -4.0611 N.ar    1  UNL1       -0.1986
     10 C           8.1909    0.9657   -4.4675 C.3     1  UNL1        0.1410
     11 C           6.6065    2.8864   -4.2074 C.ar    1  UNL1        0.2231
     12 C           7.2199    3.7233   -5.2067 C.ar    1  UNL1        0.0576
     13 C           7.9059    3.2586   -6.3624 C.ar    1  UNL1       -0.0021
     14 C           8.4559    4.1565   -7.2595 C.ar    1  UNL1        0.1670
     15 C           8.3565    5.5040   -7.0755 C.ar    1  UNL1        0.1668
     16 O           8.9452    6.2076   -8.0754 O.3     1  UNL1       -0.4526
     17 C           9.3413    5.1406   -8.9645 C.3     1  UNL1        0.2332
     18 O           9.1058    3.8276   -8.4043 O.3     1  UNL1       -0.4526
     19 C           7.6740    6.0242   -6.0063 C.ar    1  UNL1       -0.0082
     20 C           7.0657    5.1417   -5.0993 C.ar    1  UNL1       -0.0079
     21 C           6.2541    5.6729   -4.1068 C.ar    1  UNL1       -0.0529
     22 C           5.5170    4.8388   -3.2673 C.ar    1  UNL1       -0.0471
     23 C           5.6380    3.4366   -3.3096 C.ar    1  UNL1        0.0548
     24 C           4.8308    2.5731   -2.5022 C.ar    1  UNL1        0.0050
     25 C           3.7644    3.0177   -1.6803 C.ar    1  UNL1       -0.0494
     26 C           2.9682    2.1391   -0.9377 C.ar    1  UNL1       -0.0157
     27 H           1.3201    1.0280    0.9910 H       1  UNL1        0.0660
     28 H           0.5587    0.5981   -0.5887 H       1  UNL1        0.0660
     29 H           0.7372   -0.6094    0.6936 H       1  UNL1        0.0660
     30 H           6.0508   -2.2212   -2.0566 H       1  UNL1        0.0660
     31 H           6.1704   -0.9250   -0.8455 H       1  UNL1        0.0660
     32 H           5.1424   -2.3581   -0.5461 H       1  UNL1        0.0660
     33 H           6.3392   -0.3241   -3.4101 H       1  UNL1        0.1384
     34 H           8.0515    0.4535   -5.4216 H       1  UNL1        0.0993
     35 H           8.9614    1.7376   -4.5000 H       1  UNL1        0.0993
     36 H           8.5008    0.2410   -3.7050 H       1  UNL1        0.0993
     37 H           7.9650    2.2139   -6.6379 H       1  UNL1        0.0663
     38 H           8.7675    5.2303   -9.8948 H       1  UNL1        0.1166
     39 H          10.4082    5.2427   -9.1915 H       1  UNL1        0.1166
     40 H           7.5779    7.1035   -5.9122 H       1  UNL1        0.0661
     41 H           6.1184    6.7510   -4.0161 H       1  UNL1        0.0624
     42 H           4.8496    5.3350   -2.5699 H       1  UNL1        0.0626
     43 H           3.4966    4.0709   -1.6184 H       1  UNL1        0.0625
     44 H           2.1656    2.5672   -0.3423 H       1  UNL1        0.0655
@<TRIPOS>UNITY_ATOM_ATTR
9 1
charge 1
@<TRIPOS>BOND
     1     1    27    1
     2     1    28    1
     3     1    29    1
     4     2     1    1
     5     3     2    1
     6     4     3   ar
     7     5     4    1
     8     6     5    1
     9     6    30    1
    10     6    31    1
    11     6    32    1
    12     7     4   ar
    13     8     7   ar
    14     8    33    1
    15     9     8   ar
    16    10     9    1
    17    10    34    1
    18    10    35    1
    19    10    36    1
    20    11     9   ar
    21    12    11   ar
    22    13    12   ar
    23    13    37    1
    24    14    13   ar
    25    15    14   ar
    26    16    15    1
    27    17    16    1
    28    17    38    1
    29    17    39    1
    30    18    17    1
    31    18    14    1
    32    19    15   ar
    33    19    40    1
    34    20    19   ar
    35    20    12   ar
    36    21    20   ar
    37    21    41    1
    38    22    21   ar
    39    22    42    1
    40    23    22   ar
    41    23    11   ar
    42    24    23   ar
    43    24     7   ar
    44    25    24   ar
    45    25    43    1
    46    26    25   ar
    47    26     3   ar
    48    26    44    1
@<TRIPOS>MOLECULE
mol_441_akc_jacdkt210
>426.sdf
 37 36 0 0 0
SMALL
GASTEIGER

@<TRIPOS>ATOM
      1 N           1.1257    0.4391    0.0942 N.4     1  UNK1        0.2249
      2 C           1.8092    0.7514    1.4129 C.3     1  UNK1        0.0164
      3 C           2.6272   -0.4520    1.8691 C.3     1  UNK1        0.0039
      4 C           1.7730   -1.6971    2.0915 C.3     1  UNK1        0.0294
      5 C           2.6177   -2.8748    2.5206 C.2     1  UNK1        0.2138
      6 O           3.1226   -3.6314    1.6954 O.2     1  UNK1       -0.2758
      7 N           2.7787   -2.9874    3.8807 N.am    1  UNK1       -0.3032
      8 C           3.2276   -4.2626    4.4648 C.3     1  UNK1        0.1101
      9 C           3.9733   -4.0661    5.7894 C.3     1  UNK1        0.0454
     10 S           5.4949   -3.0852    5.5241 S.3     1  UNK1        0.0224
     11 N           5.8380   -3.0621    7.1687 N.2     1  UNK1        0.0049
     12 O           6.8602   -2.4096    7.3946 O.2     1  UNK1       -0.1359
     13 C           1.9452   -5.0736    4.7420 C.2     1  UNK1        0.2345
     14 O           0.8718   -4.5119    4.9710 O.2     1  UNK1       -0.2737
     15 N           2.1133   -6.4278    4.7704 N.am    2  GLY2       -0.3085
     16 CA          1.0127   -7.3928    4.9047 C.3     2  GLY2        0.0512
     17 C           1.4856   -8.8642    4.7670 C.2     2  GLY2        0.0588
     18 O           2.7307   -8.9805    4.5280 O.co2   2  GLY2       -0.5482
     19 OXT         0.5928   -9.7416    4.9014 O.co2   2  GLY2       -0.5482
     20 C           2.6817    2.0338    1.2353 C.2     1  UNK1        0.0894
     21 O           2.5142    2.5163    0.0696 O.co2   1  UNK1       -0.5442
     22 O           3.3506    2.4144    2.2209 O.co2   1  UNK1       -0.5442
     23 H           0.3490   -0.2182    0.1124 H       1  UNK1        0.2001
     24 H           0.8408    1.3761   -0.2498 H       1  UNK1        0.2001
     25 H           1.8518    0.1905   -0.5882 H       1  UNK1        0.2001
     26 H           1.0021    0.9794    2.1183 H       1  UNK1        0.0915
     27 H           3.4142   -0.6693    1.1349 H       1  UNK1        0.0328
     28 H           3.1521   -0.2076    2.8012 H       1  UNK1        0.0328
     29 H           0.9971   -1.5045    2.8421 H       1  UNK1        0.0360
     30 H           1.2531   -1.9960    1.1739 H       1  UNK1        0.0360
     31 H           2.1170   -2.4809    4.4607 H       1  UNK1        0.1495
     32 H           3.8429   -4.8088    3.7397 H       1  UNK1        0.0603
     33 H           3.3248   -3.5466    6.5077 H       1  UNK1        0.0418
     34 H           4.2399   -5.0377    6.2217 H       1  UNK1        0.0418
     35 H           2.9759   -6.8916    4.4821 H       2  GLY2        0.1491
     36 HA1         0.5422   -7.2379    5.8807 H       2  GLY2        0.0523
     37 HA2         0.2768   -7.1749    4.1229 H       2  GLY2        0.0523
@<TRIPOS>UNITY_ATOM_ATTR
1 1
charge 1
18 1
charge -1
21 1
charge -1
@<TRIPOS>BOND
     1     1    23    1
     2     1    24    1
     3     1    25    1
     4     2     1    1
     5     2    26    1
     6     3     2    1
     7     3    27    1
     8     3    28    1
     9     4     3    1
    10     4    29    1
    11     4    30    1
    12     5     4    1
    13     6     5    2
    14     7     5   am
    15     7    31    1
    16     8     7    1
    17     8    32    1
    18     9     8    1
    19     9    33    1
    20     9    34    1
    21    10     9    1
    22    11    10    1
    23    12    11    2
    24    13     8    1
    25    14    13    2
    26    15    13   am
    27    15    35    1
    28    16    15    1
    29    16    36    1
    30    16    37    1
    31    17    16    1
    32    18    17   ar
    33    19    17   ar
    34    20     2    1
    35    21    20   ar
    36    22    20   ar
@<TRIPOS>MOLECULE
mol_442_akc_jexppara201406004
>427.sdf
 41 44 0 0 0
SMALL
GASTEIGER

@<TRIPOS>ATOM
      1 C           3.3803    0.4034   -0.8728 C.3     1  UNL1       -0.0430
      2 N           3.4810   -1.0067   -0.3658 N.4     1  UNL1        0.2357
      3 C           4.6393   -1.2476    0.5893 C.3     1  UNL1       -0.0160
      4 C           4.5588   -2.6418    1.2406 C.3     1  UNL1        0.0531
      5 N           3.2918   -2.8809    1.9524 N.pl3   1  UNL1       -0.3126
      6 C           2.1256   -2.0463    1.6187 C.3     1  UNL1        0.0891
      7 C           2.1504   -1.5630    0.1380 C.3     1  UNL1       -0.0089
      8 C           1.9224   -1.0221    2.7231 C.ar    1  UNL1       -0.0186
      9 C           2.3095    0.3229    2.6615 C.ar    1  UNL1       -0.0563
     10 C           2.1301    1.1812    3.7500 C.ar    1  UNL1       -0.0614
     11 C           1.5529    0.7112    4.9206 C.ar    1  UNL1       -0.0615
     12 C           1.1776   -0.6239    5.0145 C.ar    1  UNL1       -0.0579
     13 C           1.3760   -1.4985    3.9353 C.ar    1  UNL1       -0.0379
     14 C           1.0163   -2.9606    4.0758 C.3     1  UNL1       -0.0003
     15 C           2.1799   -3.9326    3.9330 C.ar    1  UNL1       -0.0220
     16 C           2.1712   -4.9946    4.8720 C.ar    1  UNL1       -0.0565
     17 C           3.1613   -5.9625    4.8953 C.ar    1  UNL1       -0.0614
     18 C           4.1801   -5.9027    3.9614 C.ar    1  UNL1       -0.0600
     19 C           4.1968   -4.8749    3.0126 C.ar    1  UNL1       -0.0404
     20 C           3.2080   -3.8641    2.9506 C.ar    1  UNL1        0.0340
     21 H           2.6919    0.9745   -0.2473 H       1  UNL1        0.0778
     22 H           4.3736    0.8590   -0.8632 H       1  UNL1        0.0778
     23 H           2.9908    0.3600   -1.8926 H       1  UNL1        0.0778
     24 H           3.7098   -1.5761   -1.1910 H       1  UNL1        0.2032
     25 H           5.5543   -1.1572   -0.0059 H       1  UNL1        0.0830
     26 H           4.6313   -0.4538    1.3409 H       1  UNL1        0.0830
     27 H           5.4108   -2.7173    1.9271 H       1  UNL1        0.0517
     28 H           4.6790   -3.4045    0.4617 H       1  UNL1        0.0517
     29 H           1.2345   -2.6871    1.6015 H       1  UNL1        0.0603
     30 H           1.3564   -0.8386   -0.0729 H       1  UNL1        0.0836
     31 H           1.9746   -2.4360   -0.5046 H       1  UNL1        0.0836
     32 H           2.7902    0.7459    1.7951 H       1  UNL1        0.0621
     33 H           2.4553    2.2180    3.6905 H       1  UNL1        0.0618
     34 H           1.4112    1.3772    5.7680 H       1  UNL1        0.0618
     35 H           0.7445   -0.9842    5.9466 H       1  UNL1        0.0620
     36 H           0.2268   -3.2278    3.3623 H       1  UNL1        0.0362
     37 H           0.5486   -3.0954    5.0612 H       1  UNL1        0.0362
     38 H           1.3776   -5.0660    5.6196 H       1  UNL1        0.0621
     39 H           3.1365   -6.7632    5.6319 H       1  UNL1        0.0618
     40 H           4.9645   -6.6544    3.9642 H       1  UNL1        0.0618
     41 H           5.0107   -4.9106    2.2962 H       1  UNL1        0.0636
@<TRIPOS>UNITY_ATOM_ATTR
2 1
charge 1
@<TRIPOS>BOND
     1     1    21    1
     2     1    22    1
     3     1    23    1
     4     2     1    1
     5     2    24    1
     6     3     2    1
     7     3    25    1
     8     3    26    1
     9     4     3    1
    10     4    27    1
    11     4    28    1
    12     5     4    1
    13     6     5    1
    14     6    29    1
    15     7     6    1
    16     7     2    1
    17     7    30    1
    18     7    31    1
    19     8     6    1
    20     9     8   ar
    21     9    32    1
    22    10     9   ar
    23    10    33    1
    24    11    10   ar
    25    11    34    1
    26    12    11   ar
    27    12    35    1
    28    13    12   ar
    29    13     8   ar
    30    14    13    1
    31    14    36    1
    32    14    37    1
    33    15    14    1
    34    16    15   ar
    35    16    38    1
    36    17    16   ar
    37    17    39    1
    38    18    17   ar
    39    18    40    1
    40    19    18   ar
    41    19    41    1
    42    20    19   ar
    43    20     5    1
    44    20    15   ar
@<TRIPOS>MOLECULE
mol_443_akc_s00436_014_3868_y
>428.sdf
 52 55 0 0 0
SMALL
GASTEIGER

@<TRIPOS>ATOM
      1 F         -10.1143   -0.8771   -1.8647 F       1  UNL1       -0.2055
      2 C          -9.0248   -0.2032   -1.4759 C.ar    1  UNL1        0.1234
      3 C          -7.7767   -0.6168   -1.9160 C.ar    1  UNL1       -0.0258
      4 C          -6.6351    0.0776   -1.5070 C.ar    1  UNL1       -0.0485
      5 C          -6.7527    1.1976   -0.6688 C.ar    1  UNL1        0.0178
      6 C          -8.0215    1.6065   -0.2372 C.ar    1  UNL1       -0.0485
      7 C          -9.1582    0.8984   -0.6359 C.ar    1  UNL1       -0.0258
      8 C          -5.5548    1.9580   -0.1955 C.2     1  UNL1        0.1666
      9 O          -5.6253    3.1666    0.0038 O.2     1  UNL1       -0.2918
     10 C          -4.2857    1.1746    0.0941 C.3     1  UNL1        0.0317
     11 C          -3.3375    1.1089   -1.0953 C.3     1  UNL1       -0.0025
     12 C          -2.2707    0.0672   -0.8062 C.3     1  UNL1       -0.0312
     13 N          -1.5270    0.3681    0.4813 N.4     1  UNL1        0.2365
     14 C          -0.6492   -0.8185    0.9114 C.3     1  UNL1       -0.0132
     15 C           0.4124   -1.1955   -0.1318 C.3     1  UNL1        0.0710
     16 N           1.1660   -2.3771    0.2606 N.ar    1  UNL1       -0.2554
     17 C           0.7016   -3.6149   -0.1515 C.ar    1  UNL1        0.3300
     18 O          -0.3658   -3.7495   -0.7496 O.2     1  UNL1       -0.2465
     19 N           1.4738   -4.6957    0.1677 N.ar    1  UNL1       -0.3070
     20 C           2.6310   -4.6127    0.9443 C.ar    1  UNL1        0.0556
     21 C           3.3948   -5.7523    1.1915 C.ar    1  UNL1       -0.0375
     22 C           4.5325   -5.6564    1.9976 C.ar    1  UNL1       -0.0598
     23 C           4.8961   -4.4331    2.5653 C.ar    1  UNL1       -0.0609
     24 C           4.1318   -3.2935    2.3178 C.ar    1  UNL1       -0.0474
     25 C           3.0058   -3.3902    1.4960 C.ar    1  UNL1        0.0630
     26 C           2.1877   -2.2051    1.1876 C.ar    1  UNL1        0.2644
     27 O           2.3826   -1.1318    1.7525 O.2     1  UNL1       -0.2668
     28 C          -2.3982    0.7792    1.6642 C.3     1  UNL1       -0.0312
     29 C          -3.4854    1.7618    1.2578 C.3     1  UNL1       -0.0025
     30 H          -7.7002   -1.4745   -2.5789 H       1  UNL1        0.0646
     31 H          -5.6795   -0.2718   -1.8763 H       1  UNL1        0.0625
     32 H          -8.1319    2.4684    0.4190 H       1  UNL1        0.0625
     33 H         -10.1479    1.1964   -0.3014 H       1  UNL1        0.0646
     34 H          -4.6015    0.1638    0.3869 H       1  UNL1        0.0385
     35 H          -3.8571    0.8505   -2.0221 H       1  UNL1        0.0324
     36 H          -2.8750    2.0873   -1.2799 H       1  UNL1        0.0324
     37 H          -2.7128   -0.9303   -0.7063 H       1  UNL1        0.0815
     38 H          -1.5354    0.0656   -1.6157 H       1  UNL1        0.0815
     39 H          -0.9007    1.1664    0.2976 H       1  UNL1        0.2034
     40 H          -0.1761   -0.5258    1.8551 H       1  UNL1        0.0832
     41 H          -1.3262   -1.6577    1.1110 H       1  UNL1        0.0832
     42 H          -0.0490   -1.3956   -1.1046 H       1  UNL1        0.0547
     43 H           1.1042   -0.3576   -0.2718 H       1  UNL1        0.0547
     44 H           1.1585   -5.5937   -0.1803 H       1  UNL1        0.1704
     45 H           3.1276   -6.7165    0.7648 H       1  UNL1        0.0638
     46 H           5.1400   -6.5402    2.1877 H       1  UNL1        0.0618
     47 H           5.7807   -4.3690    3.1982 H       1  UNL1        0.0618
     48 H           4.4176   -2.3417    2.7590 H       1  UNL1        0.0626
     49 H          -1.7309    1.2216    2.4117 H       1  UNL1        0.0815
     50 H          -2.8448   -0.1336    2.0739 H       1  UNL1        0.0815
     51 H          -3.0364    2.7241    0.9769 H       1  UNL1        0.0324
     52 H          -4.1372    1.9657    2.1155 H       1  UNL1        0.0324
@<TRIPOS>UNITY_ATOM_ATTR
13 1
charge 1
@<TRIPOS>BOND
     1     2     1    1
     2     3     2   ar
     3     3    30    1
     4     4     3   ar
     5     4    31    1
     6     5     4   ar
     7     6     5   ar
     8     6    32    1
     9     7     6   ar
    10     7     2   ar
    11     7    33    1
    12     8     5    1
    13     9     8    2
    14    11    10    1
    15    11    35    1
    16    11    36    1
    17    12    11    1
    18    12    37    1
    19    12    38    1
    20    13    12    1
    21    13    39    1
    22    14    13    1
    23    14    40    1
    24    14    41    1
    25    15    14    1
    26    15    42    1
    27    15    43    1
    28    16    15    1
    29    17    16   ar
    30    18    17    2
    31    19    17   ar
    32    19    44    1
    33    20    19   ar
    34    21    20   ar
    35    21    45    1
    36    22    21   ar
    37    22    46    1
    38    23    22   ar
    39    23    47    1
    40    24    23   ar
    41    24    48    1
    42    25    24   ar
    43    25    20   ar
    44    26    25   ar
    45    26    16   ar
    46    27    26    2
    47    28    13    1
    48    28    49    1
    49    28    50    1
    50    29    28    1
    51    29    10    1
    52    29    51    1
    53    29    52    1
    54    10    34    1
    55    10     8    1
@<TRIPOS>MOLECULE
mol_444_akc_1570180811666140423203826
>429.sdf
 47 49 0 0 0
SMALL
GASTEIGER

@<TRIPOS>ATOM
      1 C           1.1042   -1.8627    0.1349 C.3     1  UNL1        0.0820
      2 O           2.5306   -1.9250    0.1210 O.3     1  UNL1       -0.4645
      3 C           3.1117   -1.0695   -0.7560 C.2     1  UNL1        0.3389
      4 O           2.5321   -0.2978   -1.5027 O.2     1  UNL1       -0.2450
      5 C           4.5880   -1.2215   -0.7199 C.ar    1  UNL1        0.0590
      6 C           5.2540   -1.7075    0.4090 C.ar    1  UNL1       -0.0474
      7 C           6.6500   -1.7728    0.4219 C.ar    1  UNL1       -0.0553
      8 C           7.4051   -1.3279   -0.6775 C.ar    1  UNL1       -0.0185
      9 C           6.7239   -0.8766   -1.8191 C.ar    1  UNL1       -0.0553
     10 C           5.3267   -0.8217   -1.8395 C.ar    1  UNL1       -0.0474
     11 C           8.9246   -1.2293   -0.6089 C.3     1  UNL1        0.0878
     12 O           9.4289   -2.2172    0.2952 O.3     1  UNL1       -0.3655
     13 C          10.8505   -2.2430    0.4822 C.3     1  UNL1        0.0680
     14 C          11.1132   -3.3045    1.5647 C.3     1  UNL1       -0.0358
     15 C          11.5716   -2.7311   -0.7927 C.3     1  UNL1       -0.0358
     16 C          11.3539   -0.8351    0.9129 C.3     1  UNL1       -0.0053
     17 C          10.9367    0.2042   -0.1365 C.3     1  UNL1       -0.0411
     18 C           9.4043    0.2070   -0.2366 C.3     1  UNL1       -0.0009
     19 C           8.8020    0.7324    1.0921 C.3     1  UNL1        0.0202
     20 C           9.0466    2.2294    1.3010 C.3     1  UNL1       -0.0553
     21 C           9.3443   -0.0464    2.2818 C.2     1  UNL1        0.1369
     22 O           8.6445   -0.2672    3.2703 O.2     1  UNL1       -0.2971
     23 C          10.8258   -0.3741    2.2844 C.3     1  UNL1        0.0115
     24 H           0.7593   -0.8381    0.3096 H       1  UNL1        0.0661
     25 H           0.6993   -2.2530   -0.8036 H       1  UNL1        0.0661
     26 H           0.7465   -2.4900    0.9560 H       1  UNL1        0.0661
     27 H           4.7040   -2.0057    1.2984 H       1  UNL1        0.0626
     28 H           7.1494   -2.1297    1.3227 H       1  UNL1        0.0621
     29 H           7.2759   -0.5420   -2.6949 H       1  UNL1        0.0621
     30 H           4.8151   -0.4502   -2.7255 H       1  UNL1        0.0626
     31 H           9.2970   -1.4840   -1.6108 H       1  UNL1        0.0649
     32 H          10.8715   -4.3072    1.1894 H       1  UNL1        0.0257
     33 H          12.1609   -3.3059    1.8822 H       1  UNL1        0.0257
     34 H          10.4721   -3.1623    2.4400 H       1  UNL1        0.0257
     35 H          11.3988   -2.0888   -1.6593 H       1  UNL1        0.0257
     36 H          12.6546   -2.7879   -0.6325 H       1  UNL1        0.0257
     37 H          11.2146   -3.7250   -1.0859 H       1  UNL1        0.0257
     38 H          12.4491   -0.8573    0.9732 H       1  UNL1        0.0332
     39 H          11.3749   -0.0190   -1.1133 H       1  UNL1        0.0273
     40 H          11.3224    1.1942    0.1321 H       1  UNL1        0.0273
     41 H           9.1035    0.8889   -1.0426 H       1  UNL1        0.0336
     42 H           7.7157    0.6067    1.0793 H       1  UNL1        0.0378
     43 H           8.6856    2.8057    0.4416 H       1  UNL1        0.0237
     44 H           8.5098    2.5821    2.1879 H       1  UNL1        0.0237
     45 H          10.1034    2.4678    1.4548 H       1  UNL1        0.0237
     46 H          11.3528    0.5354    2.5949 H       1  UNL1        0.0345
     47 H          11.0161   -1.1238    3.0598 H       1  UNL1        0.0345
@<TRIPOS>BOND
     1     1    24    1
     2     1    25    1
     3     1    26    1
     4     2     1    1
     5     3     2    1
     6     4     3    2
     7     5     3    1
     8     6     5   ar
     9     6    27    1
    10     7     6   ar
    11     7    28    1
    12     8     7   ar
    13     9     8   ar
    14     9    29    1
    15    10     9   ar
    16    10     5   ar
    17    10    30    1
    18    11     8    1
    19    11    31    1
    20    12    11    1
    21    13    12    1
    22    14    13    1
    23    14    32    1
    24    14    33    1
    25    14    34    1
    26    15    13    1
    27    15    35    1
    28    15    36    1
    29    15    37    1
    30    16    13    1
    31    16    38    1
    32    17    16    1
    33    17    39    1
    34    17    40    1
    35    18    17    1
    36    18    11    1
    37    18    41    1
    38    19    18    1
    39    20    43    1
    40    20    44    1
    41    20    45    1
    42    21    19    1
    43    22    21    2
    44    23    21    1
    45    23    16    1
    46    23    46    1
    47    23    47    1
    48    19    20    1
    49    19    42    1
@<TRIPOS>MOLECULE
mol_445_akc_aac02481_13
>430.sdf
 78 83 0 0 0
SMALL
GASTEIGER

@<TRIPOS>ATOM
      1 C           3.5621  -11.8668   -4.5829 C.3     1  UNL1        0.0058
      2 N           4.2457  -10.9134   -5.4763 N.pl3   1  UNL1       -0.3029
      3 C           4.6639  -11.4283   -6.7360 C.ar    1  UNL1        0.0337
      4 C           4.8224  -10.5833   -7.8519 C.ar    1  UNL1       -0.0393
      5 C           5.2249  -11.0709   -9.1027 C.ar    1  UNL1       -0.0460
      6 C           5.4693  -12.4275   -9.2695 C.ar    1  UNL1        0.0180
      7 BR          5.9978  -13.0926  -10.9551 Br      1  UNL1       -0.0503
      8 C           5.3169  -13.2943   -8.1973 C.ar    1  UNL1       -0.0460
      9 C           4.9230  -12.7968   -6.9474 C.ar    1  UNL1       -0.0393
     10 C           4.2430   -9.5641   -5.0630 C.ar    1  UNL1        0.0449
     11 C           5.3534   -8.7477   -5.2897 C.ar    1  UNL1        0.0235
     12 C           5.3714   -7.4354   -4.8335 C.ar    1  UNL1        0.1733
     13 N           4.3364   -6.9319   -4.1238 N.ar    1  UNL1       -0.1994
     14 C           4.4467   -5.5781   -3.5011 C.3     1  UNL1        0.1758
     15 C           5.5367   -5.5918   -2.4529 C.ar    1  UNL1        0.0172
     16 C           6.8490   -5.2474   -2.7954 C.ar    1  UNL1       -0.0520
     17 C           7.9016   -5.4765   -1.9024 C.ar    1  UNL1       -0.0536
     18 C           7.6840   -6.0138   -0.6206 C.ar    1  UNL1       -0.0179
     19 C           6.3472   -6.2540   -0.2569 C.ar    1  UNL1       -0.0536
     20 C           5.2903   -6.0642   -1.1596 C.ar    1  UNL1       -0.0520
     21 C           8.8231   -6.3897    0.2586 C.ar    1  UNL1       -0.0179
     22 C          10.0606   -5.7258    0.1971 C.ar    1  UNL1       -0.0536
     23 C          11.1851   -6.1935    0.8914 C.ar    1  UNL1       -0.0520
     24 C          11.1037   -7.3389    1.6910 C.ar    1  UNL1        0.0172
     25 C          12.3390   -7.9514    2.2907 C.3     1  UNL1        0.1758
     26 N          12.7040   -7.3800    3.6039 N.ar    1  UNL1       -0.1994
     27 C          13.5716   -6.3467    3.6682 C.ar    1  UNL1        0.1733
     28 C          14.1258   -5.9542    4.8843 C.ar    1  UNL1        0.0235
     29 C          13.7892   -6.6169    6.0652 C.ar    1  UNL1        0.0449
     30 C          12.8137   -7.6175    5.9672 C.ar    1  UNL1        0.0235
     31 C          12.2871   -7.9866    4.7355 C.ar    1  UNL1        0.1733
     32 N          14.4056   -6.3557    7.3030 N.pl3   1  UNL1       -0.3029
     33 C          14.9014   -5.0004    7.5967 C.3     1  UNL1        0.0058
     34 C          14.7465   -7.3281    8.2877 C.ar    1  UNL1        0.0337
     35 C          15.1100   -8.6371    7.9140 C.ar    1  UNL1       -0.0393
     36 C          15.4231   -9.6138    8.8669 C.ar    1  UNL1       -0.0460
     37 C          15.3866   -9.2927   10.2184 C.ar    1  UNL1        0.0180
     38 BR         15.7947  -10.6078   11.5107 Br      1  UNL1       -0.0503
     39 C          15.0487   -8.0059   10.6205 C.ar    1  UNL1       -0.0460
     40 C          14.7325   -7.0349    9.6621 C.ar    1  UNL1       -0.0393
     41 C           9.8583   -7.9583    1.8381 C.ar    1  UNL1       -0.0520
     42 C           8.7442   -7.4953    1.1251 C.ar    1  UNL1       -0.0536
     43 C           3.2217   -7.6722   -3.9363 C.ar    1  UNL1        0.1733
     44 C           3.1572   -8.9832   -4.4033 C.ar    1  UNL1        0.0235
     45 H           2.6173  -12.1988   -5.0276 H       1  UNL1        0.0432
     46 H           4.1888  -12.7361   -4.3597 H       1  UNL1        0.0432
     47 H           3.3400  -11.4400   -3.5977 H       1  UNL1        0.0432
     48 H           4.6010   -9.5228   -7.7841 H       1  UNL1        0.0636
     49 H           5.3297  -10.3850   -9.9397 H       1  UNL1        0.0629
     50 H           5.4972  -14.3604   -8.3168 H       1  UNL1        0.0629
     51 H           4.8376  -13.5263   -6.1485 H       1  UNL1        0.0636
     52 H           6.2303   -9.1437   -5.7978 H       1  UNL1        0.0695
     53 H           6.2321   -6.7982   -5.0060 H       1  UNL1        0.1377
     54 H           4.6531   -4.8650   -4.3061 H       1  UNL1        0.1085
     55 H           3.4836   -5.3094   -3.0522 H       1  UNL1        0.1085
     56 H           7.0892   -4.8437   -3.7784 H       1  UNL1        0.0623
     57 H           8.9112   -5.2677   -2.2533 H       1  UNL1        0.0624
     58 H           6.1063   -6.6244    0.7389 H       1  UNL1        0.0624
     59 H           4.2820   -6.3166   -0.8331 H       1  UNL1        0.0623
     60 H          10.1825   -4.8438   -0.4306 H       1  UNL1        0.0624
     61 H          12.1293   -5.6724    0.7431 H       1  UNL1        0.0623
     62 H          12.2159   -9.0344    2.4188 H       1  UNL1        0.1085
     63 H          13.1978   -7.8260    1.6192 H       1  UNL1        0.1085
     64 H          13.8600   -5.8691    2.7363 H       1  UNL1        0.1377
     65 H          14.8767   -5.1686    4.8705 H       1  UNL1        0.0695
     66 H          12.4760   -8.1391    6.8621 H       1  UNL1        0.0695
     67 H          11.5665   -8.7944    4.6467 H       1  UNL1        0.1377
     68 H          14.3731   -4.5692    8.4537 H       1  UNL1        0.0432
     69 H          15.9769   -5.0193    7.8104 H       1  UNL1        0.0432
     70 H          14.7467   -4.2884    6.7807 H       1  UNL1        0.0432
     71 H          15.1854   -8.9114    6.8655 H       1  UNL1        0.0636
     72 H          15.7020  -10.6140    8.5449 H       1  UNL1        0.0629
     73 H          15.0215   -7.7449   11.6759 H       1  UNL1        0.0629
     74 H          14.4481   -6.0518   10.0260 H       1  UNL1        0.0636
     75 H           9.7379   -8.8485    2.4538 H       1  UNL1        0.0623
     76 H           7.8179   -8.0606    1.2168 H       1  UNL1        0.0624
     77 H           2.3938   -7.2216   -3.4019 H       1  UNL1        0.1377
     78 H           2.2371   -9.5444   -4.2487 H       1  UNL1        0.0695
@<TRIPOS>UNITY_ATOM_ATTR
13 1
charge 1
26 1
charge 1
@<TRIPOS>BOND
     1     1    45    1
     2     1    46    1
     3     1    47    1
     4     2     1    1
     5     3     2    1
     6     4     3   ar
     7     4    48    1
     8     5     4   ar
     9     5    49    1
    10     6     5   ar
    11     7     6    1
    12     8     6   ar
    13     8    50    1
    14     9     8   ar
    15     9     3   ar
    16     9    51    1
    17    10     2    1
    18    11    10   ar
    19    11    52    1
    20    12    11   ar
    21    12    53    1
    22    13    12   ar
    23    14    13    1
    24    14    54    1
    25    14    55    1
    26    15    14    1
    27    16    15   ar
    28    16    56    1
    29    17    16   ar
    30    17    57    1
    31    18    17   ar
    32    19    18   ar
    33    19    58    1
    34    20    19   ar
    35    20    15   ar
    36    20    59    1
    37    21    18    1
    38    22    21   ar
    39    22    60    1
    40    23    22   ar
    41    23    61    1
    42    24    23   ar
    43    25    24    1
    44    25    62    1
    45    25    63    1
    46    26    25    1
    47    27    26   ar
    48    27    64    1
    49    28    27   ar
    50    28    65    1
    51    29    28   ar
    52    30    29   ar
    53    30    66    1
    54    31    30   ar
    55    31    26   ar
    56    31    67    1
    57    32    29    1
    58    33    32    1
    59    33    68    1
    60    33    69    1
    61    33    70    1
    62    34    32    1
    63    35    34   ar
    64    35    71    1
    65    36    35   ar
    66    36    72    1
    67    37    36   ar
    68    38    37    1
    69    39    37   ar
    70    39    73    1
    71    40    39   ar
    72    40    34   ar
    73    40    74    1
    74    41    24   ar
    75    41    75    1
    76    42    41   ar
    77    42    21   ar
    78    42    76    1
    79    43    13   ar
    80    43    77    1
    81    44    43   ar
    82    44    10   ar
    83    44    78    1
@<TRIPOS>MOLECULE
mol_446_akc_jfitote201405009
>431.sdf
 67 69 0 0 0
SMALL
GASTEIGER

@<TRIPOS>ATOM
      1 C           1.8830    2.9359    3.8671 C.3     1  UNL1        0.0820
      2 O           3.1641    2.4098    3.5115 O.3     1  UNL1       -0.4644
      3 C           4.2130    3.0241    4.1194 C.2     1  UNL1        0.3390
      4 O           4.1345    3.9136    4.9489 O.2     1  UNL1       -0.2450
      5 C           5.5062    2.5222    3.5704 C.ar    1  UNL1        0.0627
      6 C           5.5762    1.4909    2.6258 C.ar    1  UNL1       -0.0026
      7 C           6.8050    1.1414    2.0395 C.ar    1  UNL1        0.1593
      8 O           6.8074    0.1262    1.1254 O.3     1  UNL1       -0.5033
      9 C           7.9803    1.8140    2.3892 C.ar    1  UNL1        0.1631
     10 O           9.2404    1.6753    1.8767 O.3     1  UNL1       -0.4763
     11 C           9.5153    0.9338    0.6691 C.3     1  UNL1        0.1506
     12 C           9.1369    1.7583   -0.5630 C.2     1  UNL1       -0.0406
     13 C           9.2278    1.4261   -1.8706 C.2     1  UNL1       -0.0759
     14 C           9.6378    0.0806   -2.3938 C.3     1  UNL1       -0.0439
     15 C           8.9281    2.4406   -2.9451 C.3     1  UNL1       -0.0439
     16 C          11.0118    0.5892    0.7226 C.ar    1  UNL1        0.0804
     17 C          11.5093   -0.7303    0.8080 C.ar    1  UNL1        0.1341
     18 O          10.9039   -1.9509    0.7709 O.3     1  UNL1       -0.4945
     19 C           9.5526   -2.2077    0.4611 C.3     1  UNL1        0.0788
     20 C          12.8939   -0.9327    0.9683 C.ar    1  UNL1        0.0229
     21 C          13.8001    0.1164    1.0401 C.ar    1  UNL1        0.1343
     22 O          15.1132   -0.2364    1.2060 O.3     1  UNL1       -0.5058
     23 C          13.3598    1.4357    0.9480 C.ar    1  UNL1        0.1007
     24 C          14.3841    2.5187    1.0389 C.2     1  UNL1        0.1705
     25 O          15.5491    2.2440    0.7337 O.2     1  UNL1       -0.2918
     26 C          14.0506    3.9018    1.5606 C.3     1  UNL1        0.0147
     27 C          13.5667    3.8526    3.0053 C.3     1  UNL1       -0.0207
     28 C          13.2552    5.2293    3.5352 C.ar    1  UNL1       -0.0469
     29 C          11.9650    5.7608    3.4058 C.ar    1  UNL1       -0.0586
     30 C          11.6763    7.0370    3.8902 C.ar    1  UNL1       -0.0615
     31 C          12.6751    7.7954    4.4986 C.ar    1  UNL1       -0.0617
     32 C          13.9645    7.2799    4.6205 C.ar    1  UNL1       -0.0615
     33 C          14.2548    6.0026    4.1398 C.ar    1  UNL1       -0.0586
     34 C          11.9795    1.6539    0.7628 C.ar    1  UNL1        0.1413
     35 O          11.5756    2.9555    0.6055 O.3     1  UNL1       -0.5054
     36 C           7.9090    2.7865    3.3977 C.ar    1  UNL1       -0.0155
     37 C           6.6865    3.1454    3.9823 C.ar    1  UNL1       -0.0441
     38 H           1.7780    3.0532    4.9502 H       1  UNL1        0.0661
     39 H           1.7241    3.8919    3.3588 H       1  UNL1        0.0661
     40 H           1.1195    2.2316    3.5239 H       1  UNL1        0.0661
     41 H           4.6686    0.9706    2.3342 H       1  UNL1        0.0663
     42 H           5.9005   -0.1985    0.9977 H       1  UNL1        0.2923
     43 H           8.9360    0.0291    0.6893 H       1  UNL1        0.0833
     44 H           8.7762    2.7595   -0.3223 H       1  UNL1        0.0611
     45 H           8.7496   -0.5427   -2.5415 H       1  UNL1        0.0274
     46 H          10.1543    0.1658   -3.3557 H       1  UNL1        0.0274
     47 H          10.3310   -0.4372   -1.7323 H       1  UNL1        0.0274
     48 H           8.0089    2.9952   -2.7385 H       1  UNL1        0.0274
     49 H           9.7633    3.1443   -3.0293 H       1  UNL1        0.0274
     50 H           8.8077    1.9606   -3.9234 H       1  UNL1        0.0274
     51 H           8.9266   -2.0644    1.3448 H       1  UNL1        0.0660
     52 H           9.1850   -1.6435   -0.3936 H       1  UNL1        0.0660
     53 H           9.4804   -3.2616    0.1716 H       1  UNL1        0.0660
     54 H          13.2779   -1.9511    1.0403 H       1  UNL1        0.0691
     55 H          15.6639    0.5679    1.0674 H       1  UNL1        0.2922
     56 H          14.9758    4.4942    1.5100 H       1  UNL1        0.0348
     57 H          13.3571    4.4108    0.8878 H       1  UNL1        0.0348
     58 H          12.6768    3.2208    3.1114 H       1  UNL1        0.0317
     59 H          14.3291    3.3811    3.6394 H       1  UNL1        0.0317
     60 H          11.1796    5.1792    2.9271 H       1  UNL1        0.0620
     61 H          10.6713    7.4399    3.7931 H       1  UNL1        0.0618
     62 H          12.4499    8.7888    4.8769 H       1  UNL1        0.0618
     63 H          14.7447    7.8724    5.0909 H       1  UNL1        0.0618
     64 H          15.2655    5.6134    4.2398 H       1  UNL1        0.0620
     65 H          11.0256    3.0044   -0.2011 H       1  UNL1        0.2922
     66 H           8.8164    3.2948    3.7206 H       1  UNL1        0.0655
     67 H           6.6639    3.9279    4.7386 H       1  UNL1        0.0627
@<TRIPOS>BOND
     1     1    38    1
     2     1    39    1
     3     1    40    1
     4     2     1    1
     5     3     2    1
     6     4     3    2
     7     5     3    1
     8     6     5   ar
     9     6    41    1
    10     7     6   ar
    11     8     7    1
    12     8    42    1
    13     9     7   ar
    14    10     9    1
    15    11    10    1
    16    11    43    1
    17    12    11    1
    18    12    44    1
    19    13    12    2
    20    14    13    1
    21    14    45    1
    22    14    46    1
    23    14    47    1
    24    15    13    1
    25    15    48    1
    26    15    49    1
    27    15    50    1
    28    16    11    1
    29    17    16   ar
    30    18    17    1
    31    19    18    1
    32    19    51    1
    33    19    52    1
    34    19    53    1
    35    20    17   ar
    36    20    54    1
    37    21    20   ar
    38    22    21    1
    39    22    55    1
    40    23    21   ar
    41    24    23    1
    42    25    24    2
    43    26    24    1
    44    26    56    1
    45    26    57    1
    46    27    26    1
    47    27    58    1
    48    27    59    1
    49    28    27    1
    50    29    28   ar
    51    29    60    1
    52    30    29   ar
    53    30    61    1
    54    31    30   ar
    55    31    62    1
    56    32    31   ar
    57    32    63    1
    58    33    32   ar
    59    33    28   ar
    60    33    64    1
    61    34    23   ar
    62    34    16   ar
    63    35    34    1
    64    35    65    1
    65    36     9   ar
    66    36    66    1
    67    37    36   ar
    68    37     5   ar
    69    37    67    1
@<TRIPOS>MOLECULE
mol_447_akc_jfitote201405009
>431_2.sdf
 67 69 0 0 0
SMALL
GASTEIGER

@<TRIPOS>ATOM
      1 C           5.6841   -2.3962    7.4356 C.3     1  UNL1        0.0820
      2 O           6.4438   -2.4504    6.2269 O.3     1  UNL1       -0.4644
      3 C           6.4739   -1.2707    5.5641 C.2     1  UNL1        0.3390
      4 O           5.9353   -0.2337    5.9222 O.2     1  UNL1       -0.2450
      5 C           7.2416   -1.3805    4.2979 C.ar    1  UNL1        0.0627
      6 C           7.3252   -0.2299    3.5102 C.ar    1  UNL1       -0.0026
      7 C           8.0111   -0.2416    2.2943 C.ar    1  UNL1        0.1593
      8 O           8.0442    0.9456    1.6153 O.3     1  UNL1       -0.5033
      9 C           8.6334   -1.4123    1.8374 C.ar    1  UNL1        0.1631
     10 O           9.3360   -1.6320    0.6826 O.3     1  UNL1       -0.4763
     11 C           9.4931   -0.6040   -0.3025 C.3     1  UNL1        0.1506
     12 C           8.4105   -0.7348   -1.3546 C.2     1  UNL1       -0.0406
     13 C           7.7665    0.2689   -1.9965 C.2     1  UNL1       -0.0759
     14 C           8.2193    1.6997   -2.0653 C.3     1  UNL1       -0.0439
     15 C           6.4346    0.0207   -2.6523 C.3     1  UNL1       -0.0439
     16 C          10.9525   -0.4735   -0.7233 C.ar    1  UNL1        0.0804
     17 C          11.7635   -1.5762   -1.0451 C.ar    1  UNL1        0.1341
     18 O          11.3412   -2.8682   -0.8622 O.3     1  UNL1       -0.4945
     19 C          10.6574   -3.4016   -1.9901 C.3     1  UNL1        0.0788
     20 C          13.1251   -1.4052   -1.3289 C.ar    1  UNL1        0.0229
     21 C          13.7060   -0.1357   -1.2929 C.ar    1  UNL1        0.1343
     22 O          15.0527   -0.0850   -1.5537 O.3     1  UNL1       -0.5058
     23 C          12.9501    0.9947   -0.9520 C.ar    1  UNL1        0.1007
     24 C          13.6430    2.3264   -0.8284 C.2     1  UNL1        0.1705
     25 O          14.7724    2.4325   -1.3207 O.2     1  UNL1       -0.2918
     26 C          13.0314    3.5026   -0.0776 C.3     1  UNL1        0.0147
     27 C          12.9119    3.2215    1.4202 C.3     1  UNL1       -0.0207
     28 C          12.2418    4.3399    2.1814 C.ar    1  UNL1       -0.0469
     29 C          10.8591    4.3520    2.3720 C.ar    1  UNL1       -0.0586
     30 C          10.2462    5.3786    3.1037 C.ar    1  UNL1       -0.0615
     31 C          11.0240    6.4017    3.6480 C.ar    1  UNL1       -0.0617
     32 C          12.4012    6.4013    3.4541 C.ar    1  UNL1       -0.0615
     33 C          13.0097    5.3815    2.7199 C.ar    1  UNL1       -0.0586
     34 C          11.5845    0.8057   -0.6778 C.ar    1  UNL1        0.1413
     35 O          10.8650    1.9238   -0.3378 O.3     1  UNL1       -0.5054
     36 C           8.5514   -2.5610    2.6427 C.ar    1  UNL1       -0.0155
     37 C           7.8626   -2.5527    3.8631 C.ar    1  UNL1       -0.0441
     38 H           6.0455   -1.5955    8.0899 H       1  UNL1        0.0661
     39 H           4.6230   -2.2549    7.2053 H       1  UNL1        0.0661
     40 H           5.8048   -3.3484    7.9570 H       1  UNL1        0.0661
     41 H           6.8545    0.6861    3.8618 H       1  UNL1        0.0663
     42 H           7.3479    1.5295    1.9614 H       1  UNL1        0.2923
     43 H           9.2794    0.3296    0.1668 H       1  UNL1        0.0833
     44 H           7.9569   -1.7246   -1.3902 H       1  UNL1        0.0611
     45 H           7.9864    2.1319   -3.0446 H       1  UNL1        0.0274
     46 H           7.7346    2.3065   -1.2957 H       1  UNL1        0.0274
     47 H           9.2983    1.7885   -1.9790 H       1  UNL1        0.0274
     48 H           6.3732   -0.9785   -3.0916 H       1  UNL1        0.0274
     49 H           5.6417    0.1271   -1.9030 H       1  UNL1        0.0274
     50 H           6.2350    0.7473   -3.4470 H       1  UNL1        0.0274
     51 H           9.7995   -2.7931   -2.2761 H       1  UNL1        0.0660
     52 H          11.3289   -3.5267   -2.8442 H       1  UNL1        0.0660
     53 H          10.2785   -4.3886   -1.7039 H       1  UNL1        0.0660
     54 H          13.7547   -2.2697   -1.5302 H       1  UNL1        0.0691
     55 H          15.3259    0.8615   -1.5592 H       1  UNL1        0.2922
     56 H          13.6956    4.3651   -0.2257 H       1  UNL1        0.0348
     57 H          12.0906    3.8107   -0.5439 H       1  UNL1        0.0348
     58 H          12.3716    2.2901    1.6253 H       1  UNL1        0.0317
     59 H          13.9111    3.0520    1.8368 H       1  UNL1        0.0317
     60 H          10.2303    3.5643    1.9628 H       1  UNL1        0.0620
     61 H           9.1710    5.3802    3.2517 H       1  UNL1        0.0618
     62 H          10.5525    7.1946    4.2189 H       1  UNL1        0.0618
     63 H          13.0067    7.1996    3.8724 H       1  UNL1        0.0618
     64 H          14.0873    5.3995    2.5800 H       1  UNL1        0.0620
     65 H          10.2623    1.7441    0.4037 H       1  UNL1        0.2922
     66 H           9.0330   -3.4807    2.3104 H       1  UNL1        0.0655
     67 H           7.8217   -3.4633    4.4553 H       1  UNL1        0.0627
@<TRIPOS>BOND
     1     1    38    1
     2     1    39    1
     3     1    40    1
     4     2     1    1
     5     3     2    1
     6     4     3    2
     7     5     3    1
     8     6     5   ar
     9     6    41    1
    10     7     6   ar
    11     8     7    1
    12     8    42    1
    13     9     7   ar
    14    10     9    1
    15    12    11    1
    16    12    44    1
    17    13    12    2
    18    14    13    1
    19    14    45    1
    20    14    46    1
    21    14    47    1
    22    15    13    1
    23    15    48    1
    24    15    49    1
    25    15    50    1
    26    16    11    1
    27    17    16   ar
    28    18    17    1
    29    19    18    1
    30    19    51    1
    31    19    52    1
    32    19    53    1
    33    20    17   ar
    34    20    54    1
    35    21    20   ar
    36    22    21    1
    37    22    55    1
    38    23    21   ar
    39    24    23    1
    40    25    24    2
    41    26    24    1
    42    26    56    1
    43    26    57    1
    44    27    26    1
    45    27    58    1
    46    27    59    1
    47    28    27    1
    48    29    28   ar
    49    29    60    1
    50    30    29   ar
    51    30    61    1
    52    31    30   ar
    53    31    62    1
    54    32    31   ar
    55    32    63    1
    56    33    32   ar
    57    33    28   ar
    58    33    64    1
    59    34    23   ar
    60    34    16   ar
    61    35    34    1
    62    35    65    1
    63    36     9   ar
    64    36    66    1
    65    37    36   ar
    66    37     5   ar
    67    37    67    1
    68    11    43    1
    69    11    10    1
@<TRIPOS>MOLECULE
mol_448_akc_journalpntd0000912
>432.sdf
 73 72 0 0 0
SMALL
GASTEIGER

@<TRIPOS>ATOM
      1 C          36.7554   -4.6659   19.0903 C.3     1  UNL1       -0.0653
      2 C          35.2627   -4.5565   19.3512 C.3     1  UNL1       -0.0559
      3 C          34.4649   -4.8806   18.0918 C.3     1  UNL1       -0.0533
      4 C          32.9634   -4.7743   18.3407 C.3     1  UNL1       -0.0531
      5 C          32.1867   -5.0962   17.0663 C.3     1  UNL1       -0.0531
      6 C          30.6861   -4.9999   17.3060 C.3     1  UNL1       -0.0531
      7 C          29.9034   -5.3268   16.0364 C.3     1  UNL1       -0.0531
      8 C          28.4110   -5.2183   16.3136 C.3     1  UNL1       -0.0531
      9 C          27.5683   -5.5351   15.0834 C.3     1  UNL1       -0.0531
     10 C          26.0940   -5.3911   15.4457 C.3     1  UNL1       -0.0531
     11 C          25.1773   -5.6780   14.2661 C.3     1  UNL1       -0.0531
     12 C          23.7185   -5.5278   14.6955 C.3     1  UNL1       -0.0531
     13 C          22.7810   -5.8398   13.5363 C.3     1  UNL1       -0.0530
     14 C          21.3162   -5.7558   13.9634 C.3     1  UNL1       -0.0510
     15 C          20.3546   -5.9026   12.7867 C.3     1  UNL1       -0.0290
     16 C          20.4229   -7.2357   12.0471 C.3     1  UNL1        0.0549
     17 O          19.6810   -7.0713   10.8501 O.3     1  UNL1       -0.3274
     18 P          19.7471   -8.2851    9.7822 P.3     1  UNL1        0.2127
     19 O          18.8582   -9.4115   10.2114 O.co2   1  UNL1       -0.4373
     20 O          21.1861   -8.4767    9.3532 O.2     1  UNL1       -0.5172
     21 O          19.0157   -7.5157    8.5528 O.3     1  UNL1       -0.3221
     22 C          19.1758   -8.1185    7.2864 C.3     1  UNL1        0.0947
     23 C          18.9952   -7.0609    6.1973 C.3     1  UNL1       -0.0064
     24 N          20.0805   -5.9422    6.1557 N.4     1  UNL1        0.2385
     25 C          21.4678   -6.5317    5.9514 C.3     1  UNL1       -0.0417
     26 C          19.7595   -5.0061    5.0035 C.3     1  UNL1       -0.0417
     27 C          20.0770   -5.1408    7.4591 C.3     1  UNL1       -0.0417
     28 H          37.3183   -4.4305   19.9983 H       1  UNL1        0.0230
     29 H          37.0233   -5.6796   18.7751 H       1  UNL1        0.0230
     30 H          37.0664   -3.9693   18.3050 H       1  UNL1        0.0230
     31 H          34.9833   -5.2439   20.1581 H       1  UNL1        0.0263
     32 H          35.0270   -3.5416   19.6918 H       1  UNL1        0.0263
     33 H          34.7518   -4.1930   17.2868 H       1  UNL1        0.0265
     34 H          34.7082   -5.8948   17.7522 H       1  UNL1        0.0265
     35 H          32.6691   -5.4664   19.1392 H       1  UNL1        0.0265
     36 H          32.7131   -3.7621   18.6815 H       1  UNL1        0.0265
     37 H          32.4777   -4.4003   16.2703 H       1  UNL1        0.0265
     38 H          32.4403   -6.1066   16.7240 H       1  UNL1        0.0265
     39 H          30.3946   -5.6914   18.1061 H       1  UNL1        0.0265
     40 H          30.4308   -3.9887   17.6461 H       1  UNL1        0.0265
     41 H          30.1851   -4.6335   15.2348 H       1  UNL1        0.0265
     42 H          30.1483   -6.3396   15.6951 H       1  UNL1        0.0265
     43 H          28.1407   -5.9048   17.1256 H       1  UNL1        0.0265
     44 H          28.1788   -4.2037   16.6611 H       1  UNL1        0.0265
     45 H          27.8245   -4.8525   14.2644 H       1  UNL1        0.0265
     46 H          27.7741   -6.5552   14.7372 H       1  UNL1        0.0265
     47 H          25.8544   -6.0773   16.2677 H       1  UNL1        0.0265
     48 H          25.9070   -4.3737   15.8114 H       1  UNL1        0.0265
     49 H          25.3984   -4.9887   13.4423 H       1  UNL1        0.0265
     50 H          25.3545   -6.6953   13.8960 H       1  UNL1        0.0265
     51 H          23.5097   -6.2049   15.5329 H       1  UNL1        0.0265
     52 H          23.5417   -4.5061   15.0538 H       1  UNL1        0.0265
     53 H          22.9701   -5.1371   12.7157 H       1  UNL1        0.0265
     54 H          23.0060   -6.8450   13.1650 H       1  UNL1        0.0265
     55 H          21.1014   -6.5124   14.7269 H       1  UNL1        0.0266
     56 H          21.1355   -4.7775   14.4283 H       1  UNL1        0.0266
     57 H          19.3280   -5.7582   13.1461 H       1  UNL1        0.0287
     58 H          20.5307   -5.0848   12.0764 H       1  UNL1        0.0287
     59 H          21.4520   -7.5075   11.7975 H       1  UNL1        0.0564
     60 H          19.9838   -8.0391   12.6479 H       1  UNL1        0.0564
     61 H          20.1438   -8.6154    7.1831 H       1  UNL1        0.0618
     62 H          18.4047   -8.8880    7.1794 H       1  UNL1        0.0618
     63 H          19.0074   -7.5367    5.2105 H       1  UNL1        0.0838
     64 H          18.0383   -6.5427    6.3312 H       1  UNL1        0.0838
     65 H          21.4615   -7.1044    5.0190 H       1  UNL1        0.0778
     66 H          22.1813   -5.7042    5.8763 H       1  UNL1        0.0778
     67 H          21.7275   -7.1661    6.7998 H       1  UNL1        0.0778
     68 H          18.7715   -4.5673    5.1715 H       1  UNL1        0.0778
     69 H          20.5210   -4.2205    4.9646 H       1  UNL1        0.0778
     70 H          19.7692   -5.5814    4.0725 H       1  UNL1        0.0778
     71 H          19.0450   -4.8667    7.6955 H       1  UNL1        0.0778
     72 H          20.5389   -5.7293    8.2524 H       1  UNL1        0.0778
     73 H          20.6732   -4.2359    7.3000 H       1  UNL1        0.0778
@<TRIPOS>UNITY_ATOM_ATTR
19 1
charge -1
24 1
charge 1
@<TRIPOS>BOND
     1     1    28    1
     2     1    29    1
     3     1    30    1
     4     2     1    1
     5     2    31    1
     6     2    32    1
     7     3     2    1
     8     3    33    1
     9     3    34    1
    10     4     3    1
    11     4    35    1
    12     4    36    1
    13     5     4    1
    14     5    37    1
    15     5    38    1
    16     6     5    1
    17     6    39    1
    18     6    40    1
    19     7     6    1
    20     7    41    1
    21     7    42    1
    22     8     7    1
    23     8    43    1
    24     8    44    1
    25     9     8    1
    26     9    45    1
    27     9    46    1
    28    10     9    1
    29    10    47    1
    30    10    48    1
    31    11    10    1
    32    11    49    1
    33    11    50    1
    34    12    11    1
    35    12    51    1
    36    12    52    1
    37    13    12    1
    38    13    53    1
    39    13    54    1
    40    14    13    1
    41    14    55    1
    42    14    56    1
    43    15    14    1
    44    15    57    1
    45    15    58    1
    46    16    15    1
    47    16    59    1
    48    16    60    1
    49    17    16    1
    50    20    18    2
    51    21    18    1
    52    22    21    1
    53    22    61    1
    54    22    62    1
    55    23    22    1
    56    23    63    1
    57    23    64    1
    58    24    23    1
    59    25    24    1
    60    25    65    1
    61    25    66    1
    62    25    67    1
    63    26    24    1
    64    26    68    1
    65    26    69    1
    66    26    70    1
    67    27    24    1
    68    27    71    1
    69    27    72    1
    70    27    73    1
    71    18    19    1
    72    18    17    1
@<TRIPOS>MOLECULE
mol_44_akc_14756360600700517
>44.sdf
 42 45 0 0 0
SMALL
GASTEIGER

@<TRIPOS>ATOM
      1 C           9.0975   -6.3566   -3.6477 C.3     1  UNL1       -0.0471
      2 C           7.8457   -6.6465   -2.8354 C.3     1  UNL1        0.0205
      3 N           7.0389   -5.4529   -2.6336 N.ar    1  UNL1       -0.3465
      4 C           5.9944   -5.0848   -3.4442 C.ar    1  UNL1        0.0112
      5 C           5.5277   -3.8478   -3.0319 C.ar    1  UNL1        0.0050
      6 C           4.4685   -2.9563   -3.6484 C.3     1  UNL1        0.0888
      7 N           3.4783   -3.6465   -4.4740 N.ar    1  UNL1       -0.3253
      8 C           2.1551   -3.8054   -4.1331 C.ar    1  UNL1        0.0250
      9 C           1.5970   -4.5138   -5.1710 C.ar    1  UNL1        0.0454
     10 N           2.5343   -4.7785   -6.1325 N.ar    1  UNL1       -0.2440
     11 C           3.6480   -4.2377   -5.6921 C.ar    1  UNL1        0.0967
     12 C           5.2075   -1.8243   -4.3631 C.ar    1  UNL1       -0.0018
     13 C           6.3394   -2.0737   -5.1741 C.ar    1  UNL1       -0.0535
     14 C           7.1095   -1.0297   -5.6920 C.ar    1  UNL1       -0.0430
     15 C           6.7487    0.2864   -5.4333 C.ar    1  UNL1        0.0424
     16 CL          7.7325    1.5719   -6.0133 Cl      1  UNL1       -0.0835
     17 C           5.6034    0.5670   -4.6972 C.ar    1  UNL1       -0.0247
     18 C           4.8321   -0.4786   -4.1770 C.ar    1  UNL1        0.0478
     19 CL          3.4228   -0.0292   -3.2796 Cl      1  UNL1       -0.0831
     20 C           6.2938   -3.5005   -1.8635 C.ar    1  UNL1        0.0064
     21 C           7.2283   -4.5147   -1.6422 C.ar    1  UNL1        0.0495
     22 C           8.1514   -4.4575   -0.5849 C.ar    1  UNL1       -0.0366
     23 C           8.1222   -3.3437    0.2601 C.ar    1  UNL1       -0.0458
     24 C           7.2024   -2.3232    0.0524 C.ar    1  UNL1        0.0186
     25 BR          7.1955   -0.8191    1.1999 Br      1  UNL1       -0.0503
     26 C           6.2844   -2.3843   -0.9975 C.ar    1  UNL1       -0.0382
     27 H           9.6802   -7.2719   -3.7898 H       1  UNL1        0.0247
     28 H           8.8433   -5.9566   -4.6353 H       1  UNL1        0.0247
     29 H           9.7363   -5.6213   -3.1470 H       1  UNL1        0.0247
     30 H           7.2227   -7.3886   -3.3473 H       1  UNL1        0.0489
     31 H           8.1014   -7.0542   -1.8520 H       1  UNL1        0.0489
     32 H           5.6988   -5.7172   -4.2729 H       1  UNL1        0.0813
     33 H           3.9034   -2.5585   -2.7968 H       1  UNL1        0.0630
     34 H           1.7361   -3.4194   -3.2139 H       1  UNL1        0.0825
     35 H           0.5712   -4.8436   -5.2734 H       1  UNL1        0.0845
     36 H           4.5957   -4.2615   -6.2148 H       1  UNL1        0.1029
     37 H           6.6715   -3.0918   -5.3725 H       1  UNL1        0.0622
     38 H           8.0015   -1.2539   -6.2723 H       1  UNL1        0.0632
     39 H           5.3200    1.6006   -4.5127 H       1  UNL1        0.0647
     40 H           8.8783   -5.2471   -0.4217 H       1  UNL1        0.0639
     41 H           8.8332   -3.2838    1.0803 H       1  UNL1        0.0629
     42 H           5.5761   -1.5757   -1.1489 H       1  UNL1        0.0635
@<TRIPOS>BOND
     1     1    27    1
     2     1    28    1
     3     1    29    1
     4     2     1    1
     5     2    30    1
     6     2    31    1
     7     3     2    1
     8     4     3   ar
     9     4    32    1
    10     5     4   ar
    11     7     6    1
    12     8     7   ar
    13     8    34    1
    14     9     8   ar
    15     9    35    1
    16    10     9   ar
    17    11    10   ar
    18    11     7   ar
    19    11    36    1
    20    12     6    1
    21    13    12   ar
    22    13    37    1
    23    14    13   ar
    24    14    38    1
    25    15    14   ar
    26    16    15    1
    27    17    15   ar
    28    17    39    1
    29    18    17   ar
    30    18    12   ar
    31    19    18    1
    32    20     5   ar
    33    21    20   ar
    34    21     3   ar
    35    22    21   ar
    36    22    40    1
    37    23    22   ar
    38    23    41    1
    39    24    23   ar
    40    25    24    1
    41    26    24   ar
    42    26    20   ar
    43    26    42    1
    44     6    33    1
    45     6     5    1
@<TRIPOS>MOLECULE
mol_450_akc_jexppara201404014
>434.sdf
 38 40 0 0 0
SMALL
GASTEIGER

@<TRIPOS>ATOM
      1 C           1.6946    2.5316    2.0598 C.3     1  UNL1       -0.0438
      2 C           1.5594    2.3318    0.5745 C.2     1  UNL1       -0.0765
      3 C           2.1111    3.1521   -0.3424 C.2     1  UNL1       -0.0849
      4 C           2.6451    4.5316   -0.1030 C.3     1  UNL1       -0.0318
      5 C           1.5414    5.5293    0.2996 C.3     1  UNL1       -0.0180
      6 C           0.4739    5.8199   -0.7501 C.3     1  UNL1        0.0971
      7 C           0.4184    7.2353   -1.2433 C.3     1  UNL1       -0.0332
      8 O           0.3261    4.8069   -1.7608 O.3     1  UNL1       -0.3612
      9 C          -0.8131    4.9870   -0.9249 C.3     1  UNL1        0.1254
     10 C          -1.2076    3.8932    0.0197 C.3     1  UNL1        0.1390
     11 O          -2.4611    4.3158    0.6150 O.3     1  UNL1       -0.4548
     12 C          -3.2128    3.2334    0.9414 C.2     1  UNL1        0.3353
     13 O          -4.2798    3.2527    1.5242 O.2     1  UNL1       -0.2453
     14 C          -2.5020    2.0388    0.4303 C.2     1  UNL1        0.0362
     15 C          -2.7445    0.8289    0.9365 C.2     1  UNL1       -0.0883
     16 C          -1.5220    2.5258   -0.5925 C.3     1  UNL1        0.0303
     17 C          -0.3714    1.5643   -0.9576 C.3     1  UNL1       -0.0388
     18 C           0.6632    1.1984    0.1312 C.3     1  UNL1       -0.0313
     19 H           0.8558    3.1090    2.4564 H       1  UNL1        0.0274
     20 H           2.6256    3.0467    2.3173 H       1  UNL1        0.0274
     21 H           1.7146    1.5666    2.5772 H       1  UNL1        0.0274
     22 H           2.0215    2.9035   -1.3992 H       1  UNL1        0.0572
     23 H           3.1299    4.8815   -1.0233 H       1  UNL1        0.0308
     24 H           3.4294    4.5035    0.6617 H       1  UNL1        0.0308
     25 H           1.0658    5.2295    1.2386 H       1  UNL1        0.0297
     26 H           2.0498    6.4723    0.5405 H       1  UNL1        0.0297
     27 H           1.4162    7.5993   -1.5051 H       1  UNL1        0.0258
     28 H           0.0140    7.8805   -0.4550 H       1  UNL1        0.0258
     29 H          -0.2231    7.3395   -2.1237 H       1  UNL1        0.0258
     30 H          -1.6756    5.4526   -1.3888 H       1  UNL1        0.0662
     31 H          -0.5170    3.8234    0.8559 H       1  UNL1        0.0767
     32 H          -3.4913    0.6906    1.7190 H       1  UNL1        0.0540
     33 H          -2.2074   -0.0569    0.6160 H       1  UNL1        0.0540
     34 H          -2.0952    2.6846   -1.5184 H       1  UNL1        0.0388
     35 H          -0.8199    0.6199   -1.2979 H       1  UNL1        0.0275
     36 H           0.1380    1.9556   -1.8459 H       1  UNL1        0.0275
     37 H           1.3013    0.3876   -0.2438 H       1  UNL1        0.0310
     38 H           0.1350    0.7844    0.9972 H       1  UNL1        0.0310
@<TRIPOS>BOND
     1     1    19    1
     2     1    20    1
     3     1    21    1
     4     3     2    2
     5     4     3    1
     6     5     4    1
     7     6     5    1
     8     7    27    1
     9     7    28    1
    10     7    29    1
    11     8     6    1
    12     9     8    1
    13     9     6    1
    14    10     9    1
    15    11    10    1
    16    12    11    1
    17    14    12    1
    18    15    32    1
    19    15    33    1
    20    16    14    1
    21    16    10    1
    22    17    16    1
    23    18    17    1
    24    18     2    1
    25     2     1    1
    26     3    22    1
    27     4    23    1
    28     4    24    1
    29     5    25    1
    30     5    26    1
    31     6     7    1
    32     9    30    1
    33    10    31    1
    34    13    12    2
    35    15    14    2
    36    16    34    1
    37    17    35    1
    38    17    36    1
    39    18    37    1
    40    18    38    1
@<TRIPOS>MOLECULE
mol_451_akc_aac01240_13
>435.sdf
 84 86 0 0 0
SMALL
GASTEIGER

@<TRIPOS>ATOM
      1 C           8.5915    5.4746    8.8381 C.3     1  UNL1       -0.0651
      2 C           8.2933    4.7787    7.5196 C.3     1  UNL1       -0.0511
      3 C           6.7991    4.7429    7.2135 C.3     1  UNL1       -0.0128
      4 C           6.4657    4.1941    5.8241 C.3     1  UNL1       -0.0319
      5 N           6.9751    2.7790    5.5529 N.4     1  UNL1        0.2353
      6 C           6.4508    1.7904    6.5840 C.3     1  UNL1       -0.0319
      7 C           6.8808    0.3376    6.3691 C.3     1  UNL1       -0.0128
      8 C           8.3933    0.1183    6.3567 C.3     1  UNL1       -0.0511
      9 C           8.7294   -1.3514    6.1434 C.3     1  UNL1       -0.0651
     10 C           6.6823    2.3535    4.1177 C.3     1  UNL1       -0.0288
     11 C           7.4266    3.1744    3.0652 C.3     1  UNL1        0.0217
     12 C           8.9553    3.0445    3.0995 C.3     1  UNL1        0.0944
     13 O           9.4377    3.2710    4.4282 O.3     1  UNL1       -0.4918
     14 C          10.7979    3.3682    4.5947 C.ar    1  UNL1        0.1205
     15 C          11.7365    3.6149    3.5923 C.ar    1  UNL1       -0.0193
     16 C          13.0864    3.8093    3.9259 C.ar    1  UNL1       -0.0475
     17 C          13.5234    3.7407    5.2583 C.ar    1  UNL1        0.0226
     18 C          12.5941    3.4573    6.2588 C.ar    1  UNL1       -0.0475
     19 C          11.2441    3.2748    5.9202 C.ar    1  UNL1       -0.0193
     20 C          14.8985    4.1820    5.5875 C.2     1  UNL1        0.1970
     21 O          15.2952    5.2027    5.0196 O.2     1  UNL1       -0.2865
     22 C          15.7274    3.4866    6.5593 C.ar    1  UNL1        0.0709
     23 C          16.6135    4.1256    7.4203 C.ar    1  UNL1        0.1171
     24 C          17.0242    5.5406    7.6741 C.3     1  UNL1        0.0062
     25 C          15.9532    6.4634    8.2493 C.3     1  UNL1       -0.0464
     26 C          15.3334    6.0536    9.5877 C.3     1  UNL1       -0.0555
     27 C          16.3310    5.9044   10.7258 C.3     1  UNL1       -0.0653
     28 O          17.3705    3.2146    8.0874 O.2     1  UNL1       -0.4590
     29 C          17.0505    1.9930    7.6097 C.ar    1  UNL1        0.1360
     30 C          17.7350    0.8267    7.9419 C.ar    1  UNL1       -0.0169
     31 C          17.3087   -0.3438    7.3197 C.ar    1  UNL1       -0.0358
     32 C          16.2257   -0.3307    6.4382 C.ar    1  UNL1        0.0485
     33 N          15.8534   -1.5599    5.8183 N.pl3   1  UNL1       -0.2209
     34 S          16.1792   -1.7772    4.1783 S.O2    1  UNL1        0.0403
     35 C          17.9598   -1.6648    4.1040 C.3     1  UNL1        0.0736
     36 O          15.8145   -3.1466    3.8934 O.2     1  UNL1       -0.1555
     37 O          15.6040   -0.6777    3.4311 O.2     1  UNL1       -0.1555
     38 C          15.5560    0.8680    6.1181 C.ar    1  UNL1       -0.0279
     39 C          15.9948    2.0748    6.7075 C.ar    1  UNL1        0.0331
     40 H           9.6727    5.5143    9.0067 H       1  UNL1        0.0230
     41 H           8.2101    6.5004    8.8399 H       1  UNL1        0.0230
     42 H           8.1379    4.9351    9.6754 H       1  UNL1        0.0230
     43 H           8.8273    5.2958    6.7140 H       1  UNL1        0.0264
     44 H           8.6776    3.7577    7.5785 H       1  UNL1        0.0264
     45 H           6.2676    4.1826    7.9905 H       1  UNL1        0.0317
     46 H           6.4052    5.7663    7.2650 H       1  UNL1        0.0317
     47 H           5.3825    4.1828    5.6651 H       1  UNL1        0.0814
     48 H           6.9244    4.8533    5.0814 H       1  UNL1        0.0814
     49 H           8.0064    2.8138    5.6253 H       1  UNL1        0.2033
     50 H           6.8212    2.1175    7.5595 H       1  UNL1        0.0814
     51 H           5.3580    1.8667    6.5735 H       1  UNL1        0.0814
     52 H           6.4526   -0.2550    7.1886 H       1  UNL1        0.0317
     53 H           6.4283   -0.0689    5.4581 H       1  UNL1        0.0317
     54 H           8.8644    0.7015    5.5601 H       1  UNL1        0.0264
     55 H           8.8243    0.4532    7.3070 H       1  UNL1        0.0264
     56 H           8.2968   -1.9740    6.9333 H       1  UNL1        0.0230
     57 H           8.3445   -1.7042    5.1807 H       1  UNL1        0.0230
     58 H           9.8137   -1.4994    6.1491 H       1  UNL1        0.0230
     59 H           6.9813    1.3109    4.0021 H       1  UNL1        0.0815
     60 H           5.5952    2.4245    3.9811 H       1  UNL1        0.0815
     61 H           7.0822    2.8507    2.0746 H       1  UNL1        0.0350
     62 H           7.1480    4.2301    3.1372 H       1  UNL1        0.0350
     63 H           9.2454    2.0361    2.7834 H       1  UNL1        0.0698
     64 H           9.3537    3.7798    2.3920 H       1  UNL1        0.0698
     65 H          11.4630    3.7129    2.5461 H       1  UNL1        0.0654
     66 H          13.7976    4.0633    3.1391 H       1  UNL1        0.0626
     67 H          12.8877    3.4447    7.3060 H       1  UNL1        0.0626
     68 H          10.5386    3.0842    6.7201 H       1  UNL1        0.0654
     69 H          17.8960    5.5474    8.3415 H       1  UNL1        0.0344
     70 H          17.3807    5.9639    6.7275 H       1  UNL1        0.0344
     71 H          16.4071    7.4559    8.3732 H       1  UNL1        0.0269
     72 H          15.1457    6.5892    7.5190 H       1  UNL1        0.0269
     73 H          14.6072    6.8258    9.8718 H       1  UNL1        0.0263
     74 H          14.7679    5.1225    9.4723 H       1  UNL1        0.0263
     75 H          17.0180    5.0717   10.5526 H       1  UNL1        0.0230
     76 H          16.9176    6.8185   10.8629 H       1  UNL1        0.0230
     77 H          15.7989    5.7053   11.6629 H       1  UNL1        0.0230
     78 H          18.5871    0.8476    8.6128 H       1  UNL1        0.0655
     79 H          17.8525   -1.2653    7.5199 H       1  UNL1        0.0638
     80 H          16.0395   -2.4131    6.3502 H       1  UNL1        0.1733
     81 H          18.3918   -2.3764    4.8106 H       1  UNL1        0.0482
     82 H          18.2695   -1.9262    3.0894 H       1  UNL1        0.0482
     83 H          18.2714   -0.6441    4.3294 H       1  UNL1        0.0482
     84 H          14.7399    0.8620    5.4014 H       1  UNL1        0.0644
@<TRIPOS>UNITY_ATOM_ATTR
5 1
charge 1
@<TRIPOS>BOND
     1     1    40    1
     2     1    41    1
     3     1    42    1
     4     2     1    1
     5     2    43    1
     6     2    44    1
     7     3     2    1
     8     3    45    1
     9     3    46    1
    10     4     3    1
    11     4    47    1
    12     4    48    1
    13     5     4    1
    14     5    49    1
    15     6     5    1
    16     6    50    1
    17     6    51    1
    18     7     6    1
    19     7    52    1
    20     7    53    1
    21     8     7    1
    22     8    54    1
    23     8    55    1
    24     9     8    1
    25     9    56    1
    26     9    57    1
    27     9    58    1
    28    10     5    1
    29    10    59    1
    30    10    60    1
    31    11    10    1
    32    11    61    1
    33    11    62    1
    34    12    11    1
    35    12    63    1
    36    12    64    1
    37    13    12    1
    38    14    13    1
    39    15    14   ar
    40    15    65    1
    41    16    15   ar
    42    16    66    1
    43    17    16   ar
    44    18    17   ar
    45    18    67    1
    46    19    18   ar
    47    19    14   ar
    48    19    68    1
    49    20    17    1
    50    21    20    2
    51    22    20    1
    52    23    22   ar
    53    24    23    1
    54    24    69    1
    55    24    70    1
    56    25    24    1
    57    25    71    1
    58    25    72    1
    59    26    25    1
    60    26    73    1
    61    26    74    1
    62    27    26    1
    63    27    75    1
    64    27    76    1
    65    27    77    1
    66    28    23   ar
    67    29    28   ar
    68    30    29   ar
    69    30    78    1
    70    31    30   ar
    71    31    79    1
    72    32    31   ar
    73    33    32    1
    74    33    80    1
    75    34    33    1
    76    35    34    1
    77    35    81    1
    78    35    82    1
    79    35    83    1
    80    36    34    2
    81    37    34    2
    82    38    32   ar
    83    38    84    1
    84    39    38   ar
    85    39    22   ar
    86    39    29   ar
@<TRIPOS>MOLECULE
mol_452_akc_aac01350_13
>436.sdf
 48 48 0 0 0
SMALL
GASTEIGER

@<TRIPOS>ATOM
      1 C           1.0490    2.2818   -7.4381 C.3     1  UNL1       -0.0653
      2 C           2.5675    2.2842   -7.3685 C.3     1  UNL1       -0.0559
      3 C           3.0564    2.5486   -5.9459 C.3     1  UNL1       -0.0533
      4 C           4.5831    2.5507   -5.8817 C.3     1  UNL1       -0.0531
      5 C           5.0811    2.8080   -4.4625 C.3     1  UNL1       -0.0530
      6 C           6.6096    2.8124   -4.4103 C.3     1  UNL1       -0.0510
      7 C           7.1178    3.0809   -2.9951 C.3     1  UNL1       -0.0294
      8 C           8.6418    3.0619   -2.9361 C.3     1  UNL1        0.0508
      9 O           9.1455    4.1165   -3.7513 O.3     1  UNL1       -0.3487
     10 C          10.5650    4.0937   -3.8358 C.3     1  UNL1        0.1879
     11 O          11.1427    4.3222   -2.5342 O.3     1  UNL1       -0.3402
     12 C          11.7636    5.6119   -2.5791 C.3     1  UNL1        0.1180
     13 C          12.8558    5.7519   -1.5206 C.3     1  UNL1        0.1069
     14 O          13.4213    7.0671   -1.6422 O.3     1  UNL1       -0.3869
     15 C          13.9573    4.6903   -1.6301 C.3     1  UNL1        0.0727
     16 O          14.8656    4.8246   -0.5407 O.3     1  UNL1       -0.3924
     17 C          12.2436    5.7629   -4.0145 C.3     1  UNL1        0.1144
     18 O          12.5596    7.0963   -4.3873 O.3     1  UNL1       -0.3864
     19 C          11.0367    5.2314   -4.7621 C.3     1  UNL1        0.1341
     20 O          11.4094    4.7838   -6.0661 O.3     1  UNL1       -0.3841
     21 H           0.7171    2.0898   -8.4630 H       1  UNL1        0.0230
     22 H           0.6285    1.5048   -6.7927 H       1  UNL1        0.0230
     23 H           0.6418    3.2481   -7.1237 H       1  UNL1        0.0230
     24 H           2.9451    1.3164   -7.7187 H       1  UNL1        0.0263
     25 H           2.9581    3.0503   -8.0467 H       1  UNL1        0.0263
     26 H           2.6749    3.5174   -5.5982 H       1  UNL1        0.0265
     27 H           2.6594    1.7827   -5.2693 H       1  UNL1        0.0265
     28 H           4.9665    1.5813   -6.2337 H       1  UNL1        0.0265
     29 H           4.9780    3.3147   -6.5581 H       1  UNL1        0.0265
     30 H           4.7009    3.7750   -4.1094 H       1  UNL1        0.0265
     31 H           4.6920    2.0389   -3.7861 H       1  UNL1        0.0265
     32 H           6.9884    1.8425   -4.7599 H       1  UNL1        0.0266
     33 H           6.9935    3.5737   -5.0969 H       1  UNL1        0.0266
     34 H           6.7540    4.0572   -2.6594 H       1  UNL1        0.0287
     35 H           6.7236    2.3215   -2.3076 H       1  UNL1        0.0287
     36 H           8.9628    3.2140   -1.9002 H       1  UNL1        0.0561
     37 H           9.0233    2.0937   -3.2888 H       1  UNL1        0.0561
     38 H          10.9025    3.1175   -4.2032 H       1  UNL1        0.0937
     39 H          11.0010    6.3762   -2.3731 H       1  UNL1        0.0650
     40 H          12.4016    5.6789   -0.5253 H       1  UNL1        0.0643
     41 H          13.7971    7.2667   -0.7592 H       1  UNL1        0.2100
     42 H          13.5370    3.6751   -1.6047 H       1  UNL1        0.0584
     43 H          14.5391    4.8113   -2.5510 H       1  UNL1        0.0584
     44 H          15.5766    4.1717   -0.6906 H       1  UNL1        0.2095
     45 H          13.1143    5.1364   -4.2374 H       1  UNL1        0.0648
     46 H          13.1045    7.4619   -3.6570 H       1  UNL1        0.2100
     47 H          10.2633    5.9987   -4.8885 H       1  UNL1        0.0671
     48 H          11.7756    5.5700   -6.5141 H       1  UNL1        0.2101
@<TRIPOS>BOND
     1     1    21    1
     2     1    22    1
     3     1    23    1
     4     2     1    1
     5     2    24    1
     6     2    25    1
     7     3     2    1
     8     3    26    1
     9     3    27    1
    10     4     3    1
    11     4    28    1
    12     4    29    1
    13     5     4    1
    14     5    30    1
    15     5    31    1
    16     6     5    1
    17     6    32    1
    18     6    33    1
    19     7     6    1
    20     7    34    1
    21     7    35    1
    22     8     7    1
    23     8    36    1
    24     8    37    1
    25     9     8    1
    26    10     9    1
    27    10    38    1
    28    11    10    1
    29    12    11    1
    30    14    41    1
    31    15    13    1
    32    15    42    1
    33    15    43    1
    34    16    15    1
    35    16    44    1
    36    17    12    1
    37    17    45    1
    38    18    17    1
    39    18    46    1
    40    19    17    1
    41    19    10    1
    42    19    47    1
    43    20    19    1
    44    20    48    1
    45    12    13    1
    46    12    39    1
    47    13    14    1
    48    13    40    1
@<TRIPOS>MOLECULE
mol_453_akc_c3md00282a
>437.sdf
 81 85 0 0 0
SMALL
GASTEIGER

@<TRIPOS>ATOM
      1 C           5.0881    0.0615   -2.1446 C.3     1  UNL1       -0.0438
      2 C           4.3716    0.4270   -0.8716 C.2     1  UNL1       -0.0763
      3 C           3.8168   -0.5440   -0.1220 C.2     1  UNL1       -0.0994
      4 C           4.3827    1.9123   -0.5184 C.3     1  UNL1       -0.0163
      5 C           5.6043    2.2325    0.3872 C.3     1  UNL1       -0.0452
      6 C           5.0481    2.9266    1.6409 C.3     1  UNL1       -0.0364
      7 C           3.7705    3.6160    1.1345 C.3     1  UNL1        0.0712
      8 C           2.7786    3.9879    2.2473 C.3     1  UNL1       -0.0364
      9 C           1.3674    4.2387    1.6905 C.3     1  UNL1       -0.0458
     10 C           0.7861    3.0808    0.8016 C.3     1  UNL1       -0.0232
     11 C           0.6430    1.7783    1.6877 C.3     1  UNL1       -0.0588
     12 C           1.8290    2.8292   -0.3555 C.3     1  UNL1       -0.0307
     13 C           1.3343    1.8232   -1.3959 C.3     1  UNL1       -0.0491
     14 C          -0.0764    2.1280   -1.9234 C.3     1  UNL1       -0.0489
     15 C          -1.0923    2.2892   -0.7666 C.3     1  UNL1       -0.0294
     16 C          -2.6480    2.2237   -1.1130 C.3     1  UNL1       -0.0235
     17 C          -3.1596    3.4791   -1.8539 C.3     1  UNL1       -0.0590
     18 C          -2.9320    1.0389   -2.0990 C.3     1  UNL1       -0.0388
     19 C          -3.0710   -0.3251   -1.4423 C.3     1  UNL1        0.0245
     20 C          -4.4937   -0.5520   -0.9815 C.2     1  UNL1        0.2134
     21 O          -4.9986   -1.6695   -0.9550 O.2     1  UNL1       -0.2758
     22 N          -5.2121    0.5747   -0.6473 N.am    1  UNL1       -0.3100
     23 C          -4.7983    1.4789    0.4358 C.3     1  UNL1        0.0323
     24 C          -5.8356    2.6122    0.5100 C.3     1  UNL1       -0.0437
     25 C          -4.9023    0.6681    1.7611 C.3     1  UNL1       -0.0437
     26 C          -3.3221    2.0245    0.3135 C.3     1  UNL1       -0.0145
     27 C          -3.0973    3.2717    1.2010 C.3     1  UNL1       -0.0473
     28 C          -1.6439    3.6704    1.4020 C.3     1  UNL1       -0.0465
     29 C          -0.6584    3.4639    0.2072 C.3     1  UNL1       -0.0231
     30 C          -0.6127    4.8266   -0.5477 C.3     1  UNL1       -0.0588
     31 C           3.1878    2.4586    0.2953 C.3     1  UNL1       -0.0154
     32 C           4.1616    4.8675    0.3154 C.2     1  UNL1        0.3112
     33 O           4.7988    5.8143    1.0444 O.3     1  UNL1       -0.4802
     34 O           3.9582    5.0240   -0.8734 O.2     1  UNL1       -0.2504
     35 H           6.1696    0.1558   -2.0054 H       1  UNL1        0.0274
     36 H           4.8756   -0.9687   -2.4519 H       1  UNL1        0.0274
     37 H           4.7790    0.7146   -2.9659 H       1  UNL1        0.0274
     38 H           3.3291   -0.3555    0.8266 H       1  UNL1        0.0534
     39 H           3.8591   -1.5861   -0.4258 H       1  UNL1        0.0534
     40 H           4.4628    2.4908   -1.4473 H       1  UNL1        0.0348
     41 H           6.1885    1.3498    0.6711 H       1  UNL1        0.0271
     42 H           6.2820    2.9133   -0.1415 H       1  UNL1        0.0271
     43 H           4.7989    2.1668    2.3906 H       1  UNL1        0.0276
     44 H           5.7820    3.5991    2.0912 H       1  UNL1        0.0276
     45 H           2.7372    3.1954    3.0018 H       1  UNL1        0.0276
     46 H           3.0996    4.8867    2.7859 H       1  UNL1        0.0276
     47 H           0.6953    4.4575    2.5255 H       1  UNL1        0.0271
     48 H           1.4386    5.1598    1.1015 H       1  UNL1        0.0271
     49 H          -0.3892    1.4468    1.8265 H       1  UNL1        0.0235
     50 H           1.1326    0.9052    1.2497 H       1  UNL1        0.0235
     51 H           1.0427    1.9166    2.6954 H       1  UNL1        0.0235
     52 H           1.9488    3.7692   -0.9047 H       1  UNL1        0.0309
     53 H           2.0240    1.8013   -2.2491 H       1  UNL1        0.0268
     54 H           1.3332    0.8111   -0.9767 H       1  UNL1        0.0268
     55 H          -0.0688    3.0014   -2.5823 H       1  UNL1        0.0268
     56 H          -0.3214    1.2746   -2.5592 H       1  UNL1        0.0268
     57 H          -0.9366    1.3539   -0.2138 H       1  UNL1        0.0312
     58 H          -4.1005    3.2877   -2.3822 H       1  UNL1        0.0235
     59 H          -2.4365    3.8169   -2.6037 H       1  UNL1        0.0235
     60 H          -3.3850    4.3185   -1.1974 H       1  UNL1        0.0235
     61 H          -2.1784    0.9874   -2.8847 H       1  UNL1        0.0275
     62 H          -3.8432    1.2362   -2.6794 H       1  UNL1        0.0275
     63 H          -2.8575   -1.0920   -2.1973 H       1  UNL1        0.0358
     64 H          -2.3756   -0.4835   -0.6143 H       1  UNL1        0.0358
     65 H          -5.5111    1.0795   -1.4713 H       1  UNL1        0.1492
     66 H          -5.7382    3.2910   -0.3442 H       1  UNL1        0.0250
     67 H          -5.7385    3.2034    1.4274 H       1  UNL1        0.0250
     68 H          -6.8579    2.2152    0.4970 H       1  UNL1        0.0250
     69 H          -5.8841    0.1909    1.8549 H       1  UNL1        0.0250
     70 H          -4.1554   -0.1337    1.7983 H       1  UNL1        0.0250
     71 H          -4.7517    1.2972    2.6438 H       1  UNL1        0.0250
     72 H          -2.7224    1.2388    0.7964 H       1  UNL1        0.0327
     73 H          -3.6482    4.1369    0.8218 H       1  UNL1        0.0269
     74 H          -3.5085    3.0904    2.2028 H       1  UNL1        0.0269
     75 H          -1.6224    4.7210    1.7249 H       1  UNL1        0.0271
     76 H          -1.3073    3.1413    2.2983 H       1  UNL1        0.0271
     77 H          -0.0257    4.7971   -1.4672 H       1  UNL1        0.0235
     78 H          -1.6078    5.1877   -0.8067 H       1  UNL1        0.0235
     79 H          -0.2032    5.6320    0.0675 H       1  UNL1        0.0235
     80 H           2.9723    1.6722    1.0227 H       1  UNL1        0.0320
     81 H           4.9349    5.5932    1.9840 H       1  UNL1        0.2951
@<TRIPOS>BOND
     1     1    35    1
     2     1    36    1
     3     1    37    1
     4     2     1    1
     5     3     2    2
     6     3    38    1
     7     3    39    1
     8     4     2    1
     9     4    40    1
    10     5     4    1
    11     5    41    1
    12     5    42    1
    13     6     5    1
    14     6    43    1
    15     6    44    1
    16     7     6    1
    17     7    32    1
    18     8     7    1
    19     8    45    1
    20     8    46    1
    21     9     8    1
    22     9    47    1
    23     9    48    1
    24    10     9    1
    25    10    11    1
    26    11    49    1
    27    11    50    1
    28    11    51    1
    29    12    10    1
    30    12    52    1
    31    13    12    1
    32    13    53    1
    33    13    54    1
    34    14    13    1
    35    14    55    1
    36    14    56    1
    37    15    14    1
    38    15    57    1
    39    16    15    1
    40    16    17    1
    41    17    58    1
    42    17    59    1
    43    17    60    1
    44    18    16    1
    45    18    61    1
    46    18    62    1
    47    19    18    1
    48    19    63    1
    49    19    64    1
    50    20    19    1
    51    21    20    2
    52    22    20   am
    53    22    65    1
    54    23    22    1
    55    24    23    1
    56    24    66    1
    57    24    67    1
    58    24    68    1
    59    25    23    1
    60    25    69    1
    61    25    70    1
    62    25    71    1
    63    26    23    1
    64    26    16    1
    65    26    72    1
    66    27    26    1
    67    27    73    1
    68    27    74    1
    69    28    27    1
    70    28    75    1
    71    28    76    1
    72    29    28    1
    73    29    10    1
    74    29    15    1
    75    29    30    1
    76    30    77    1
    77    30    78    1
    78    30    79    1
    79    31    12    1
    80    31     4    1
    81    31     7    1
    82    31    80    1
    83    33    32    1
    84    34    32    2
    85    33    81    1
@<TRIPOS>MOLECULE
mol_454_akc_cbdd12235
>438.sdf
 26 28 0 0 0
SMALL
GASTEIGER

@<TRIPOS>ATOM
      1 N           0.8256    0.0804    0.1186 N.pl3   1  UNL1       -0.3425
      2 C           2.1851    0.1000    0.0356 C.ar    1  UNL1        0.1306
      3 C           3.0320    1.1894   -0.0174 C.ar    1  UNL1        0.0796
      4 C           4.3244    0.6532   -0.0217 C.ar    1  UNL1        0.0624
      5 N           4.3276   -0.6751    0.0332 N.ar    1  UNL1       -0.1723
      6 N           3.0134   -1.0365    0.0419 N.ar    1  UNL1       -0.2168
      7 C           2.6385   -2.4099   -0.0393 C.ar    1  UNL1        0.0857
      8 C           3.4053   -3.4352    0.5414 C.ar    1  UNL1        0.0664
      9 CL          4.7831   -3.1834    1.5603 Cl      1  UNL1       -0.0813
     10 C           2.9991   -4.7713    0.3996 C.ar    1  UNL1       -0.0413
     11 C           1.8455   -5.0966   -0.3126 C.ar    1  UNL1       -0.0603
     12 C           1.0858   -4.0879   -0.8929 C.ar    1  UNL1       -0.0597
     13 C           1.4797   -2.7542   -0.7616 C.ar    1  UNL1       -0.0348
     14 C           2.6178    2.6083   -0.0242 C.ar    1  UNL1        0.1842
     15 N           1.3825    3.0573    0.0783 N.ar    1  UNL1       -0.1082
     16 N           1.4684    4.4287    0.0439 N.ar    1  UNL1       -0.0229
     17 N           2.7283    4.8229   -0.0817 N.ar    1  UNL1       -0.0464
     18 N           3.4428    3.6903   -0.1256 N.ar    1  UNL1       -0.2387
     19 H           0.3382   -0.6971    0.5594 H       1  UNL1        0.1437
     20 H           0.3461    0.9720    0.2760 H       1  UNL1        0.1437
     21 H           5.2786    1.1612   -0.0435 H       1  UNL1        0.0856
     22 H           3.5787   -5.5698    0.8590 H       1  UNL1        0.0633
     23 H           1.5430   -6.1360   -0.4136 H       1  UNL1        0.0618
     24 H           0.1930   -4.3370   -1.4623 H       1  UNL1        0.0618
     25 H           0.8919   -2.0001   -1.2818 H       1  UNL1        0.0639
     26 H           4.4470    3.7375   -0.2301 H       1  UNL1        0.1923
@<TRIPOS>BOND
     1     1    19    1
     2     1    20    1
     3     2     1    1
     4     3     2   ar
     5     4     3   ar
     6     4    21    1
     7     5     4   ar
     8     6     5   ar
     9     6     2   ar
    10     7     6    1
    11     8     7   ar
    12     9     8    1
    13    10     8   ar
    14    10    22    1
    15    11    10   ar
    16    11    23    1
    17    12    11   ar
    18    12    24    1
    19    13    12   ar
    20    13     7   ar
    21    13    25    1
    22    14     3    1
    23    15    14   ar
    24    16    15   ar
    25    17    16   ar
    26    18    17   ar
    27    18    14   ar
    28    18    26    1
@<TRIPOS>MOLECULE
mol_455_akc_cbdd12235
>439.sdf
 26 28 0 0 0
SMALL
GASTEIGER

@<TRIPOS>ATOM
      1 N           0.8042    0.0615   -0.1749 N.pl3   1  UNL1       -0.3425
      2 C           2.1660    0.0772   -0.1023 C.ar    1  UNL1        0.1306
      3 C           3.0203    1.1591   -0.0608 C.ar    1  UNL1        0.0796
      4 C           4.2976    0.6168    0.1376 C.ar    1  UNL1        0.0624
      5 N           4.2772   -0.7103    0.2568 N.ar    1  UNL1       -0.1724
      6 N           2.9806   -1.0596    0.0098 N.ar    1  UNL1       -0.2182
      7 C           2.6278   -2.4355   -0.0957 C.ar    1  UNL1        0.0685
      8 C           3.4458   -3.3995    0.5138 C.ar    1  UNL1       -0.0222
      9 C           3.0956   -4.7478    0.4443 C.ar    1  UNL1        0.0199
     10 BR          4.1616   -6.0404    1.3207 Br      1  UNL1       -0.0502
     11 C           1.9599   -5.1521   -0.2549 C.ar    1  UNL1       -0.0476
     12 C           1.1669   -4.2001   -0.8944 C.ar    1  UNL1       -0.0587
     13 C           1.4956   -2.8442   -0.8144 C.ar    1  UNL1       -0.0361
     14 C           2.6184    2.5793   -0.1467 C.ar    1  UNL1        0.1842
     15 N           1.3824    3.0301   -0.2324 N.ar    1  UNL1       -0.1082
     16 N           1.4747    4.4007   -0.2572 N.ar    1  UNL1       -0.0229
     17 N           2.7388    4.7932   -0.1930 N.ar    1  UNL1       -0.0464
     18 N           3.4504    3.6603   -0.1262 N.ar    1  UNL1       -0.2387
     19 H           0.2819   -0.6819    0.2856 H       1  UNL1        0.1437
     20 H           0.3231    0.9616   -0.0884 H       1  UNL1        0.1437
     21 H           5.2485    1.1220    0.2438 H       1  UNL1        0.0856
     22 H           4.3346   -3.1012    1.0675 H       1  UNL1        0.0650
     23 H           1.6896   -6.2033   -0.3146 H       1  UNL1        0.0629
     24 H           0.2957   -4.5139   -1.4650 H       1  UNL1        0.0619
     25 H           0.8842   -2.1353   -1.3657 H       1  UNL1        0.0639
     26 H           4.4592    3.7074   -0.0730 H       1  UNL1        0.1923
@<TRIPOS>BOND
     1     1    19    1
     2     1    20    1
     3     2     1    1
     4     3     2   ar
     5     4     3   ar
     6     4    21    1
     7     5     4   ar
     8     6     5   ar
     9     6     2   ar
    10     7     6    1
    11     8     7   ar
    12     8    22    1
    13     9     8   ar
    14    10     9    1
    15    11     9   ar
    16    11    23    1
    17    12    11   ar
    18    12    24    1
    19    13    12   ar
    20    13     7   ar
    21    13    25    1
    22    14     3    1
    23    15    14   ar
    24    16    15   ar
    25    17    16   ar
    26    18    17   ar
    27    18    14   ar
    28    18    26    1
@<TRIPOS>MOLECULE
mol_456_akc_cbdd12239
>440.sdf
 73 78 0 0 0
SMALL
GASTEIGER

@<TRIPOS>ATOM
      1 O           1.8205   -0.1100   -1.0018 O.2     1  UNL1       -0.2866
      2 C           2.1392    0.1373    0.1521 C.2     1  UNL1        0.1948
      3 C           2.8582    1.3539    0.5791 C.ar    1  UNL1        0.0447
      4 C           3.9712    1.9042   -0.0665 C.ar    1  UNL1        0.0313
      5 S           4.5977    3.2290    0.8469 S.2     1  UNL1       -0.0875
      6 C           3.4135    3.1138    2.0666 C.ar    1  UNL1        0.0206
      7 C           2.4707    2.1369    1.7619 C.ar    1  UNL1        0.0006
      8 C           1.3517    2.0296    2.6394 C.ar    1  UNL1       -0.0528
      9 C           1.2692    2.7817    3.8133 C.ar    1  UNL1       -0.0611
     10 C           2.2648    3.6932    4.1184 C.ar    1  UNL1       -0.0607
     11 C           3.3315    3.8892    3.2414 C.ar    1  UNL1       -0.0474
     12 C           4.6774    1.5628   -1.3321 C.ar    1  UNL1       -0.0104
     13 C           3.9685    1.1523   -2.4674 C.ar    1  UNL1       -0.0501
     14 C           4.6078    0.8571   -3.6752 C.ar    1  UNL1       -0.0194
     15 C           5.9732    1.0680   -3.8183 C.ar    1  UNL1        0.1206
     16 O           6.6675    0.9350   -4.9892 O.3     1  UNL1       -0.4916
     17 C           5.8742    1.0068   -6.1825 C.3     1  UNL1        0.0935
     18 C           6.7529    1.4873   -7.3337 C.3     1  UNL1        0.0066
     19 C           5.9699    1.6439   -8.6120 C.ar    1  UNL1       -0.0442
     20 C           5.2589    2.8261   -8.8701 C.ar    1  UNL1       -0.0585
     21 C           4.5301    2.9701  -10.0524 C.ar    1  UNL1       -0.0615
     22 C           4.4986    1.9337  -10.9829 C.ar    1  UNL1       -0.0617
     23 C           5.1882    0.7494  -10.7288 C.ar    1  UNL1       -0.0615
     24 C           5.9159    0.6026   -9.5466 C.ar    1  UNL1       -0.0585
     25 C           6.7080    1.4686   -2.7062 C.ar    1  UNL1       -0.0194
     26 C           6.0705    1.7007   -1.4770 C.ar    1  UNL1       -0.0501
     27 C           1.6420   -0.8024    1.1969 C.ar    1  UNL1        0.0223
     28 C           2.3180   -1.0033    2.4059 C.ar    1  UNL1       -0.0505
     29 C           1.7213   -1.7483    3.4256 C.ar    1  UNL1       -0.0529
     30 C           0.4614   -2.3357    3.2324 C.ar    1  UNL1       -0.0029
     31 C          -0.1753   -3.1574    4.3160 C.3     1  UNL1       -0.0059
     32 N          -0.5935   -2.3829    5.5593 N.4     1  UNL1        0.2385
     33 C          -1.7049   -1.3969    5.2599 C.3     1  UNL1       -0.0316
     34 C          -2.2663   -0.7843    6.5368 C.3     1  UNL1       -0.0123
     35 C          -2.6846   -1.8563    7.5305 C.3     1  UNL1       -0.0434
     36 C          -1.4786   -2.7080    7.8871 C.3     1  UNL1       -0.0123
     37 C          -0.9066   -3.3804    6.6535 C.3     1  UNL1       -0.0316
     38 C          -0.1759   -2.1937    1.9907 C.ar    1  UNL1       -0.0529
     39 C           0.4113   -1.4339    0.9792 C.ar    1  UNL1       -0.0505
     40 H           0.5416    1.3414    2.4152 H       1  UNL1        0.0624
     41 H           0.4219    2.6583    4.4816 H       1  UNL1        0.0618
     42 H           2.2052    4.2810    5.0328 H       1  UNL1        0.0618
     43 H           4.0914    4.6358    3.4635 H       1  UNL1        0.0629
     44 H           2.8863    1.0854   -2.4639 H       1  UNL1        0.0625
     45 H           3.9956    0.4946   -4.4975 H       1  UNL1        0.0654
     46 H           5.4679    0.0105   -6.3996 H       1  UNL1        0.0700
     47 H           5.0452    1.7162   -6.0678 H       1  UNL1        0.0700
     48 H           7.2203    2.4447   -7.0674 H       1  UNL1        0.0346
     49 H           7.5955    0.7926   -7.4814 H       1  UNL1        0.0346
     50 H           5.2740    3.6454   -8.1549 H       1  UNL1        0.0620
     51 H           3.9907    3.8934  -10.2497 H       1  UNL1        0.0618
     52 H           3.9393    2.0499  -11.9080 H       1  UNL1        0.0618
     53 H           5.1627   -0.0588  -11.4548 H       1  UNL1        0.0618
     54 H           6.4483   -0.3283   -9.3643 H       1  UNL1        0.0620
     55 H           7.7801    1.6351   -2.8004 H       1  UNL1        0.0654
     56 H           6.6936    2.0291   -0.6461 H       1  UNL1        0.0625
     57 H           3.2945   -0.5523    2.5786 H       1  UNL1        0.0625
     58 H           2.2618   -1.8650    4.3631 H       1  UNL1        0.0622
     59 H          -1.0723   -3.6700    3.9494 H       1  UNL1        0.0867
     60 H           0.5407   -3.9237    4.6355 H       1  UNL1        0.0867
     61 H           0.2191   -1.8338    5.8655 H       1  UNL1        0.2037
     62 H          -2.4848   -1.9303    4.7072 H       1  UNL1        0.0814
     63 H          -1.2802   -0.6097    4.6275 H       1  UNL1        0.0814
     64 H          -3.1303   -0.1563    6.2909 H       1  UNL1        0.0317
     65 H          -1.5190   -0.1270    6.9990 H       1  UNL1        0.0317
     66 H          -3.1016   -1.3975    8.4330 H       1  UNL1        0.0269
     67 H          -3.4716   -2.4848    7.0939 H       1  UNL1        0.0269
     68 H          -0.7129   -2.0874    8.3682 H       1  UNL1        0.0317
     69 H          -1.7697   -3.4754    8.6133 H       1  UNL1        0.0317
     70 H           0.0337   -3.8860    6.9000 H       1  UNL1        0.0814
     71 H          -1.6133   -4.1089    6.2419 H       1  UNL1        0.0814
     72 H          -1.1351   -2.6696    1.7854 H       1  UNL1        0.0622
     73 H          -0.1027   -1.3150    0.0249 H       1  UNL1        0.0625
@<TRIPOS>UNITY_ATOM_ATTR
32 1
charge 1
@<TRIPOS>BOND
     1     2     1    2
     2     3     2    1
     3     4     3   ar
     4     5     4   ar
     5     6     5   ar
     6     7     6   ar
     7     7     3   ar
     8     8     7   ar
     9     8    40    1
    10     9     8   ar
    11     9    41    1
    12    10     9   ar
    13    10    42    1
    14    11    10   ar
    15    11     6   ar
    16    11    43    1
    17    12     4    1
    18    13    12   ar
    19    13    44    1
    20    14    13   ar
    21    14    45    1
    22    15    14   ar
    23    16    15    1
    24    17    16    1
    25    17    46    1
    26    17    47    1
    27    18    17    1
    28    18    48    1
    29    18    49    1
    30    19    18    1
    31    20    19   ar
    32    20    50    1
    33    21    20   ar
    34    21    51    1
    35    22    21   ar
    36    22    52    1
    37    23    22   ar
    38    23    53    1
    39    24    23   ar
    40    24    19   ar
    41    24    54    1
    42    25    15   ar
    43    25    55    1
    44    26    25   ar
    45    26    12   ar
    46    26    56    1
    47    27     2    1
    48    28    27   ar
    49    28    57    1
    50    29    28   ar
    51    29    58    1
    52    30    29   ar
    53    31    30    1
    54    31    59    1
    55    31    60    1
    56    32    31    1
    57    32    61    1
    58    33    32    1
    59    33    62    1
    60    33    63    1
    61    34    33    1
    62    34    64    1
    63    34    65    1
    64    35    34    1
    65    35    66    1
    66    35    67    1
    67    36    35    1
    68    36    68    1
    69    36    69    1
    70    37    36    1
    71    37    32    1
    72    37    70    1
    73    37    71    1
    74    38    30   ar
    75    38    72    1
    76    39    38   ar
    77    39    27   ar
    78    39    73    1
@<TRIPOS>MOLECULE
mol_457_akc_s11010_013_1954_6
>441.sdf
 39 41 0 0 0
SMALL
GASTEIGER

@<TRIPOS>ATOM
      1 CL         -2.2022    0.7403    0.6472 Cl      1  UNL1       -0.0835
      2 C          -0.5028    0.5140    0.5064 C.ar    1  UNL1        0.0410
      3 C           0.0860    0.4549   -0.7536 C.ar    1  UNL1       -0.0431
      4 C           1.4658    0.2708   -0.8650 C.ar    1  UNL1       -0.0550
      5 C           2.2670    0.1347    0.2812 C.ar    1  UNL1       -0.0218
      6 C           3.7602   -0.0436    0.1601 C.3     1  UNL1        0.0736
      7 O           4.3339    1.2455   -0.0009 O.3     1  UNL1       -0.3656
      8 C           5.7695    1.3009   -0.1120 C.3     1  UNL1        0.1032
      9 C           6.2519    0.6329   -1.4246 C.3     1  UNL1        0.0546
     10 N           5.7572    1.2682   -2.6289 N.ar    1  UNL1       -0.3340
     11 C           4.6316    0.9239   -3.3248 C.ar    1  UNL1        0.0241
     12 C           4.5744    1.8183   -4.3657 C.ar    1  UNL1        0.0454
     13 N           5.6642    2.6480   -4.3560 N.ar    1  UNL1       -0.2441
     14 C           6.3712    2.2826   -3.3098 C.ar    1  UNL1        0.0960
     15 C           6.2142    2.7643    0.0354 C.ar    1  UNL1        0.0012
     16 C           5.2450    3.7877    0.1203 C.ar    1  UNL1       -0.0533
     17 C           5.6045    5.1370    0.1851 C.ar    1  UNL1       -0.0430
     18 C           6.9450    5.4946    0.1528 C.ar    1  UNL1        0.0424
     19 CL          7.3903    7.1554    0.1889 Cl      1  UNL1       -0.0835
     20 C           7.9282    4.5133    0.1033 C.ar    1  UNL1       -0.0247
     21 C           7.5669    3.1593    0.0754 C.ar    1  UNL1        0.0480
     22 CL          8.8655    2.0191    0.1236 Cl      1  UNL1       -0.0831
     23 C           1.6593    0.2125    1.5419 C.ar    1  UNL1       -0.0550
     24 C           0.2785    0.3963    1.6542 C.ar    1  UNL1       -0.0431
     25 H          -0.5201    0.5582   -1.6508 H       1  UNL1        0.0632
     26 H           1.9120    0.2445   -1.8560 H       1  UNL1        0.0621
     27 H           4.1685   -0.5367    1.0491 H       1  UNL1        0.0610
     28 H           3.9653   -0.6812   -0.7049 H       1  UNL1        0.0610
     29 H           6.1815    0.7545    0.7467 H       1  UNL1        0.0665
     30 H           7.3406    0.6046   -1.5099 H       1  UNL1        0.0521
     31 H           5.9306   -0.4137   -1.4672 H       1  UNL1        0.0521
     32 H           3.9774    0.1205   -3.0262 H       1  UNL1        0.0825
     33 H           3.8116    1.9024   -5.1298 H       1  UNL1        0.0845
     34 H           7.3109    2.7185   -3.0058 H       1  UNL1        0.1029
     35 H           4.1818    3.5479    0.1275 H       1  UNL1        0.0622
     36 H           4.8293    5.8969    0.2466 H       1  UNL1        0.0632
     37 H           8.9762    4.8032    0.0907 H       1  UNL1        0.0647
     38 H           2.2596    0.1381    2.4460 H       1  UNL1        0.0621
     39 H          -0.1794    0.4530    2.6375 H       1  UNL1        0.0632
@<TRIPOS>BOND
     1     2     1    1
     2     3     2   ar
     3     3    25    1
     4     4     3   ar
     5     4    26    1
     6     5     4   ar
     7     6     5    1
     8     6    27    1
     9     6    28    1
    10     7     6    1
    11     8     7    1
    12     8    29    1
    13     9     8    1
    14     9    30    1
    15     9    31    1
    16    10     9    1
    17    11    10   ar
    18    11    32    1
    19    12    11   ar
    20    12    33    1
    21    13    12   ar
    22    14    13   ar
    23    14    10   ar
    24    14    34    1
    25    15     8    1
    26    16    15   ar
    27    16    35    1
    28    17    16   ar
    29    17    36    1
    30    18    17   ar
    31    19    18    1
    32    20    18   ar
    33    20    37    1
    34    21    20   ar
    35    21    15   ar
    36    22    21    1
    37    23     5   ar
    38    23    38    1
    39    24    23   ar
    40    24     2   ar
    41    24    39    1
@<TRIPOS>MOLECULE
mol_458_akc_pmc4289877
>442.sdf
 43 47 0 0 0
SMALL
GASTEIGER

@<TRIPOS>ATOM
      1 C           1.1150   -0.5950    0.2589 C.3     1  UNL1        0.0790
      2 O           2.4366   -0.0777    0.1263 O.3     1  UNL1       -0.4914
      3 C           3.0865    0.2961    1.2698 C.ar    1  UNL1        0.1623
      4 C           2.7639   -0.2566    2.5135 C.ar    1  UNL1       -0.0157
      5 C           3.4480    0.1225    3.6668 C.ar    1  UNL1       -0.0499
      6 C           4.4720    1.0697    3.6045 C.ar    1  UNL1       -0.0022
      7 C           5.1463    1.4602    4.7603 C.ar    1  UNL1        0.0183
      8 C           6.1512    2.4358    4.7170 C.ar    1  UNL1        0.2159
      9 C           6.9002    2.8976    5.9062 C.ar    1  UNL1        0.0533
     10 C           6.4641    2.6149    7.2182 C.ar    1  UNL1       -0.0025
     11 C           7.2407    3.0093    8.2887 C.ar    1  UNL1        0.1670
     12 C           8.4145    3.6928    8.1202 C.ar    1  UNL1        0.1665
     13 O           9.0255    3.9712    9.2999 O.3     1  UNL1       -0.4526
     14 C           8.1307    3.3258   10.2334 C.3     1  UNL1        0.2332
     15 O           6.9619    2.7646    9.5957 O.3     1  UNL1       -0.4526
     16 C           8.8786    4.0196    6.8669 C.ar    1  UNL1       -0.0120
     17 C           8.1161    3.6184    5.7542 C.ar    1  UNL1       -0.0243
     18 C           8.6268    3.8848    4.3661 C.3     1  UNL1        0.0330
     19 C           7.4640    4.0931    3.4154 C.3     1  UNL1        0.1550
     20 N           6.4813    2.9814    3.5122 N.ar    1  UNL1       -0.1961
     21 C           5.8495    2.5926    2.3765 C.ar    1  UNL1        0.1831
     22 C           4.8264    1.6346    2.3700 C.ar    1  UNL1        0.0909
     23 C           4.1385    1.2333    1.1879 C.ar    1  UNL1        0.1748
     24 O           4.6058    1.8606    0.0548 O.3     1  UNL1       -0.4907
     25 C           4.0453    1.5312   -1.2118 C.3     1  UNL1        0.0790
     26 H           1.1281   -1.6065    0.6764 H       1  UNL1        0.0660
     27 H           0.4854    0.0731    0.8569 H       1  UNL1        0.0660
     28 H           0.6800   -0.6579   -0.7430 H       1  UNL1        0.0660
     29 H           1.9842   -1.0061    2.6189 H       1  UNL1        0.0655
     30 H           3.1592   -0.3333    4.6133 H       1  UNL1        0.0625
     31 H           4.8760    0.9891    5.7033 H       1  UNL1        0.0690
     32 H           5.5435    2.0835    7.4363 H       1  UNL1        0.0663
     33 H           8.6740    2.5188   10.7396 H       1  UNL1        0.1166
     34 H           7.8060    4.0584   10.9804 H       1  UNL1        0.1166
     35 H           9.8170    4.5572    6.7623 H       1  UNL1        0.0658
     36 H           9.2346    3.0286    4.0482 H       1  UNL1        0.0375
     37 H           9.2643    4.7758    4.3526 H       1  UNL1        0.0375
     38 H           7.8345    4.1511    2.3869 H       1  UNL1        0.1034
     39 H           6.9030    5.0096    3.6432 H       1  UNL1        0.1034
     40 H           6.1627    3.0801    1.4559 H       1  UNL1        0.1384
     41 H           4.1932    0.4737   -1.4521 H       1  UNL1        0.0660
     42 H           2.9940    1.8298   -1.2670 H       1  UNL1        0.0660
     43 H           4.5835    2.1103   -1.9688 H       1  UNL1        0.0660
@<TRIPOS>UNITY_ATOM_ATTR
20 1
charge 1
@<TRIPOS>BOND
     1     1    26    1
     2     1    27    1
     3     1    28    1
     4     2     1    1
     5     3     2    1
     6     4     3   ar
     7     4    29    1
     8     5     4   ar
     9     5    30    1
    10     6     5   ar
    11     7     6   ar
    12     7    31    1
    13     8     7   ar
    14     9     8    1
    15    10     9   ar
    16    10    32    1
    17    11    10   ar
    18    12    11   ar
    19    13    12    1
    20    14    13    1
    21    14    33    1
    22    14    34    1
    23    15    14    1
    24    15    11    1
    25    16    12   ar
    26    16    35    1
    27    17    16   ar
    28    17     9   ar
    29    18    17    1
    30    18    36    1
    31    18    37    1
    32    19    18    1
    33    19    38    1
    34    19    39    1
    35    20    19    1
    36    20     8   ar
    37    21    20   ar
    38    21    40    1
    39    22    21   ar
    40    22     6   ar
    41    23    22   ar
    42    23     3   ar
    43    24    23    1
    44    25    24    1
    45    25    41    1
    46    25    42    1
    47    25    43    1
@<TRIPOS>MOLECULE
mol_459_akc_c3md00299c
>443.sdf
 49 51 0 0 0
SMALL
GASTEIGER

@<TRIPOS>ATOM
      1 C           0.6300    0.7015    0.3289 C.3     1  UNL1        0.0788
      2 O           1.7577    1.3993    0.8494 O.3     1  UNL1       -0.4951
      3 C           2.4579    0.7616    1.8361 C.ar    1  UNL1        0.1202
      4 C           2.1269   -0.4706    2.3911 C.ar    1  UNL1       -0.0182
      5 C           2.9221   -1.0282    3.3957 C.ar    1  UNL1       -0.0370
      6 C           4.0637   -0.3742    3.8601 C.ar    1  UNL1        0.0339
      7 N           4.8904   -0.8846    4.8838 N.am    1  UNL1       -0.2815
      8 C           4.6873   -2.0470    5.5983 C.2     1  UNL1        0.2493
      9 O           3.8477   -2.9032    5.3374 O.2     1  UNL1       -0.2698
     10 C           5.5989   -2.2555    6.7427 C.ar    1  UNL1        0.0511
     11 C           5.9806   -3.5451    7.1114 C.ar    1  UNL1        0.0130
     12 C           5.5859   -4.8687    6.4983 C.3     1  UNL1        0.0772
     13 C           6.0120   -4.9728    5.0463 C.2     1  UNL1        0.3181
     14 O           6.9637   -4.3885    4.5485 O.2     1  UNL1       -0.2502
     15 O           5.2128   -5.8622    4.4115 O.3     1  UNL1       -0.3735
     16 C           5.5707   -6.0380    3.0616 C.3     1  UNL1        0.5772
     17 F           6.7948   -6.5942    2.9588 F       1  UNL1       -0.1328
     18 F           4.6837   -6.8948    2.5042 F       1  UNL1       -0.1328
     19 F           5.5166   -4.8827    2.3722 F       1  UNL1       -0.1328
     20 S           6.9894   -3.5526    8.4824 S.2     1  UNL1       -0.0966
     21 C           6.8905   -1.8597    8.6683 C.ar    1  UNL1       -0.0060
     22 C           6.1279   -1.2588    7.6729 C.ar    1  UNL1       -0.0248
     23 C           5.8397    0.2258    7.6137 C.3     1  UNL1       -0.0262
     24 C           5.6085    0.8781    8.9727 C.3     1  UNL1       -0.0490
     25 C           6.8850    1.2134    9.7427 C.3     1  UNL1       -0.0524
     26 C           8.0148    0.1877    9.6570 C.3     1  UNL1       -0.0486
     27 C           7.5605   -1.2506    9.8727 C.3     1  UNL1       -0.0211
     28 C           4.3920    0.8671    3.3054 C.ar    1  UNL1       -0.0370
     29 C           3.5901    1.4302    2.3039 C.ar    1  UNL1       -0.0182
     30 H           0.9242   -0.2627   -0.1023 H       1  UNL1        0.0660
     31 H          -0.1389    0.5703    1.0979 H       1  UNL1        0.0660
     32 H           0.1991    1.3057   -0.4738 H       1  UNL1        0.0660
     33 H           1.2558   -1.0336    2.0734 H       1  UNL1        0.0655
     34 H           2.6049   -1.9906    3.7865 H       1  UNL1        0.0637
     35 H           5.7194   -0.3521    5.1081 H       1  UNL1        0.1551
     36 H           6.0366   -5.7147    7.0292 H       1  UNL1        0.0432
     37 H           4.4972   -4.9795    6.5720 H       1  UNL1        0.0432
     38 H           4.9218    0.3927    7.0404 H       1  UNL1        0.0314
     39 H           6.6504    0.7312    7.0723 H       1  UNL1        0.0314
     40 H           4.9589    0.2420    9.5873 H       1  UNL1        0.0268
     41 H           5.0583    1.8162    8.8233 H       1  UNL1        0.0268
     42 H           7.2743    2.1764    9.3887 H       1  UNL1        0.0265
     43 H           6.6156    1.3678   10.7954 H       1  UNL1        0.0265
     44 H           8.5351    0.2834    8.6957 H       1  UNL1        0.0269
     45 H           8.7522    0.4430   10.4287 H       1  UNL1        0.0269
     46 H           6.8817   -1.3100   10.7329 H       1  UNL1        0.0318
     47 H           8.4484   -1.8435   10.1310 H       1  UNL1        0.0318
     48 H           5.2625    1.4213    3.6457 H       1  UNL1        0.0637
     49 H           3.8501    2.4003    1.8855 H       1  UNL1        0.0655
@<TRIPOS>BOND
     1     1    30    1
     2     1    31    1
     3     1    32    1
     4     2     1    1
     5     3     2    1
     6     4     3   ar
     7     4    33    1
     8     5     4   ar
     9     5    34    1
    10     6     5   ar
    11     7     6    1
    12     7    35    1
    13     8     7   am
    14     9     8    2
    15    10     8    1
    16    11    10   ar
    17    12    11    1
    18    12    36    1
    19    12    37    1
    20    13    12    1
    21    14    13    2
    22    15    13    1
    23    16    15    1
    24    17    16    1
    25    18    16    1
    26    19    16    1
    27    20    11   ar
    28    21    20   ar
    29    22    21   ar
    30    22    10   ar
    31    23    22    1
    32    23    38    1
    33    23    39    1
    34    24    23    1
    35    24    40    1
    36    24    41    1
    37    25    24    1
    38    25    42    1
    39    25    43    1
    40    26    25    1
    41    26    44    1
    42    26    45    1
    43    27    26    1
    44    27    21    1
    45    27    46    1
    46    27    47    1
    47    28     6   ar
    48    28    48    1
    49    29    28   ar
    50    29     3   ar
    51    29    49    1
@<TRIPOS>MOLECULE
mol_45_akc_tswj2010174124
>45.sdf
 49 51 0 0 0
SMALL
GASTEIGER

@<TRIPOS>ATOM
      1 C           5.2506    8.4142    4.4097 C.3     1  UNL1        0.0788
      2 O           4.4181    7.4772    3.7327 O.3     1  UNL1       -0.4951
      3 C           4.6780    6.1540    3.9430 C.ar    1  UNL1        0.1201
      4 C           5.3590    5.6216    5.0372 C.ar    1  UNL1       -0.0195
      5 C           5.5147    4.2371    5.1662 C.ar    1  UNL1       -0.0501
      6 C           4.9681    3.3614    4.2150 C.ar    1  UNL1       -0.0025
      7 C           5.0904    1.8707    4.3588 C.3     1  UNL1       -0.0006
      8 N           4.5679    1.3321    5.6800 N.4     1  UNL1        0.2752
      9 C           4.7452   -0.1591    5.8287 C.3     1  UNL1        0.0149
     10 C           3.4192   -0.7290    5.3477 C.3     1  UNL1        0.0149
     11 N           2.4030    0.3378    5.7094 N.4     1  UNL1        0.2752
     12 C           1.4356   -0.0492    6.8195 C.3     1  UNL1       -0.0006
     13 C           0.6285   -1.2798    6.5014 C.ar    1  UNL1       -0.0025
     14 C           0.7566   -2.4342    7.2924 C.ar    1  UNL1       -0.0501
     15 C           0.0631   -3.6089    6.9695 C.ar    1  UNL1       -0.0195
     16 C          -0.7753   -3.6448    5.8609 C.ar    1  UNL1        0.1201
     17 O          -1.4870   -4.7259    5.4243 O.3     1  UNL1       -0.4951
     18 C          -1.2978   -5.9578    6.1133 C.3     1  UNL1        0.0788
     19 C          -0.9428   -2.4880    5.0979 C.ar    1  UNL1       -0.0195
     20 C          -0.2522   -1.3112    5.4133 C.ar    1  UNL1       -0.0501
     21 C           3.1374    1.6037    5.9742 C.3     1  UNL1       -0.0117
     22 C           4.3257    3.9081    3.0945 C.ar    1  UNL1       -0.0501
     23 C           4.1748    5.2920    2.9715 C.ar    1  UNL1       -0.0195
     24 H           5.1303    8.3487    5.4959 H       1  UNL1        0.0660
     25 H           6.2979    8.2792    4.1204 H       1  UNL1        0.0660
     26 H           4.9403    9.4183    4.1065 H       1  UNL1        0.0660
     27 H           5.7772    6.2670    5.8047 H       1  UNL1        0.0654
     28 H           6.0927    3.8769    6.0154 H       1  UNL1        0.0623
     29 H           4.5421    1.3467    3.5675 H       1  UNL1        0.0869
     30 H           6.1472    1.5866    4.2958 H       1  UNL1        0.0869
     31 H           5.1345    1.8026    6.3985 H       1  UNL1        0.2096
     32 H           4.8928   -0.3492    6.8972 H       1  UNL1        0.0870
     33 H           5.6160   -0.4985    5.2614 H       1  UNL1        0.0870
     34 H           3.3952   -0.8125    4.2540 H       1  UNL1        0.0870
     35 H           3.1742   -1.6883    5.8022 H       1  UNL1        0.0870
     36 H           1.8024    0.4893    4.8879 H       1  UNL1        0.2096
     37 H           2.0377   -0.1917    7.7238 H       1  UNL1        0.0869
     38 H           0.7665    0.8059    6.9765 H       1  UNL1        0.0869
     39 H           1.3877   -2.4497    8.1801 H       1  UNL1        0.0623
     40 H           0.1914   -4.4786    7.6096 H       1  UNL1        0.0654
     41 H          -0.2555   -6.2874    6.0480 H       1  UNL1        0.0660
     42 H          -1.6215   -5.8799    7.1563 H       1  UNL1        0.0660
     43 H          -1.9189   -6.7155    5.6264 H       1  UNL1        0.0660
     44 H          -1.6281   -2.5086    4.2512 H       1  UNL1        0.0654
     45 H          -0.4437   -0.4358    4.7967 H       1  UNL1        0.0623
     46 H           2.7309    2.4004    5.3477 H       1  UNL1        0.1434
     47 H           3.0646    1.8518    7.0399 H       1  UNL1        0.1434
     48 H           3.9467    3.2841    2.2858 H       1  UNL1        0.0623
     49 H           3.6771    5.7114    2.0965 H       1  UNL1        0.0654
@<TRIPOS>UNITY_ATOM_ATTR
8 1
charge 1
11 1
charge 1
@<TRIPOS>BOND
     1     1    24    1
     2     1    25    1
     3     1    26    1
     4     2     1    1
     5     3     2    1
     6     4     3   ar
     7     4    27    1
     8     5     4   ar
     9     5    28    1
    10     6     5   ar
    11     7     6    1
    12     7    29    1
    13     7    30    1
    14     8     7    1
    15     8    31    1
    16     9     8    1
    17     9    32    1
    18     9    33    1
    19    10     9    1
    20    10    34    1
    21    10    35    1
    22    11    10    1
    23    11    36    1
    24    12    11    1
    25    12    37    1
    26    12    38    1
    27    13    12    1
    28    14    13   ar
    29    14    39    1
    30    15    14   ar
    31    15    40    1
    32    16    15   ar
    33    17    16    1
    34    18    17    1
    35    18    41    1
    36    18    42    1
    37    18    43    1
    38    19    16   ar
    39    19    44    1
    40    20    19   ar
    41    20    13   ar
    42    20    45    1
    43    21    11    1
    44    21     8    1
    45    21    46    1
    46    21    47    1
    47    22     6   ar
    48    22    48    1
    49    23    22   ar
    50    23     3   ar
    51    23    49    1
@<TRIPOS>MOLECULE
mol_460_akc_aac01459_13
>444.sdf
 29 30 0 0 0
SMALL
GASTEIGER

@<TRIPOS>ATOM
      1 C           2.6231   -0.0859   -0.0465 C.3     1  UNL1       -0.0371
      2 C           1.1102   -0.0151    0.0585 C.ar    1  UNL1       -0.0129
      3 C           0.4688    1.2627    0.1494 C.ar    1  UNL1        0.0642
      4 N           1.2581    2.4421    0.2356 N.pl3   1  UNL1       -0.3249
      5 C           0.9279    3.5527    1.1228 C.3     1  UNL1        0.0280
      6 C           2.0958    2.6540    1.4187 C.3     1  UNL1        0.0280
      7 C          -0.9374    1.2860    0.0693 C.ar    1  UNL1        0.1495
      8 C          -1.7087    0.1227    0.0347 C.ar    1  UNL1        0.0014
      9 C          -1.0581   -1.1138    0.0559 C.ar    1  UNL1        0.1408
     10 C           0.3389   -1.2252    0.0577 C.ar    1  UNL1        0.0714
     11 C           1.0478   -2.5393    0.1636 C.2     1  UNL1        0.2441
     12 N           0.5683   -3.6249   -0.5053 N.am    1  UNL1       -0.3253
     13 O           2.0616   -2.6570    0.8435 O.2     1  UNL1       -0.2703
     14 N          -1.9225   -2.2704    0.0912 N.pl3   1  UNL1        0.0573
     15 O          -2.5716   -2.4546    1.1238 O.2     1  UNL1       -0.1261
     16 O          -1.9967   -2.9440   -0.9486 O.2     1  UNL1       -0.1261
     17 N          -1.6656    2.5356   -0.0222 N.pl3   1  UNL1        0.0583
     18 O          -1.5262    3.2050   -1.0528 O.2     1  UNL1       -0.1261
     19 O          -2.4254    2.8015    0.9189 O.2     1  UNL1       -0.1261
     20 H           3.0609   -0.3567    0.9191 H       1  UNL1        0.0278
     21 H           2.9202   -0.8143   -0.8117 H       1  UNL1        0.0278
     22 H           3.0693    0.8568   -0.3680 H       1  UNL1        0.0278
     23 H           1.1177    4.5212    0.6800 H       1  UNL1        0.0479
     24 H           0.0773    3.4680    1.7827 H       1  UNL1        0.0479
     25 H           1.9946    1.9350    2.2202 H       1  UNL1        0.0479
     26 H           3.0899    3.0081    1.1857 H       1  UNL1        0.0479
     27 H          -2.7962    0.1802    0.0027 H       1  UNL1        0.0664
     28 H           1.0785   -4.4948   -0.3962 H       1  UNL1        0.1453
     29 H          -0.2605   -3.6574   -1.0932 H       1  UNL1        0.1453
@<TRIPOS>BOND
     1     1    20    1
     2     1    21    1
     3     1    22    1
     4     2     1    1
     5     3     2   ar
     6     4     3    1
     7     5     4    1
     8     5    23    1
     9     5    24    1
    10     6     5    1
    11     6     4    1
    12     6    25    1
    13     6    26    1
    14     7     3   ar
    15     8     7   ar
    16     8    27    1
    17     9     8   ar
    18    10     9   ar
    19    10     2   ar
    20    11    10    1
    21    12    11   am
    22    12    28    1
    23    12    29    1
    24    13    11    2
    25    14     9    1
    26    15    14    2
    27    16    14    2
    28    17     7    1
    29    18    17    2
    30    19    17    2
@<TRIPOS>MOLECULE
mol_461_akc_aac01459_13
>445.sdf
 35 36 0 0 0
SMALL
GASTEIGER

@<TRIPOS>ATOM
      1 C           3.3007   -1.3896    2.6111 C.3     1  UNL1        0.0032
      2 N           3.5392   -0.7064    1.3515 N.am    1  UNL1       -0.3036
      3 C           4.0806    0.6418    1.4471 C.3     1  UNL1        0.0032
      4 C           3.4543   -1.2442    0.0701 C.2     1  UNL1        0.2487
      5 O           3.7638   -0.6025   -0.9340 O.2     1  UNL1       -0.2699
      6 C           2.9877   -2.6244   -0.1981 C.ar    1  UNL1        0.0718
      7 C           1.9613   -2.8129   -1.1343 C.ar    1  UNL1        0.1408
      8 C           1.5268   -4.0845   -1.5131 C.ar    1  UNL1        0.0014
      9 C           2.1484   -5.2088   -0.9547 C.ar    1  UNL1        0.1495
     10 C           3.2249   -5.1018   -0.0537 C.ar    1  UNL1        0.0642
     11 N           3.9708   -6.1367    0.5782 N.pl3   1  UNL1       -0.3249
     12 C           4.6282   -7.1560   -0.2408 C.3     1  UNL1        0.0280
     13 C           3.5719   -7.5172    0.7658 C.3     1  UNL1        0.0280
     14 C           3.6631   -3.7724    0.2922 C.ar    1  UNL1       -0.0129
     15 C           4.9117   -3.6467    1.1513 C.3     1  UNL1       -0.0371
     16 N           1.5960   -6.4732   -1.3848 N.pl3   1  UNL1        0.0583
     17 O           0.5256   -6.8168   -0.8627 O.2     1  UNL1       -0.1261
     18 O           2.1860   -7.0770   -2.2895 O.2     1  UNL1       -0.1261
     19 N           1.3187   -1.6890   -1.7814 N.pl3   1  UNL1        0.0573
     20 O           0.6384   -0.9404   -1.0748 O.2     1  UNL1       -0.1261
     21 O           1.3935   -1.6403   -3.0242 O.2     1  UNL1       -0.1261
     22 H           4.2644   -1.5809    3.0887 H       1  UNL1        0.0428
     23 H           2.7103   -0.7410    3.2675 H       1  UNL1        0.0428
     24 H           2.7616   -2.3307    2.4783 H       1  UNL1        0.0428
     25 H           5.1128    0.6387    1.0832 H       1  UNL1        0.0428
     26 H           3.4859    1.3146    0.8201 H       1  UNL1        0.0428
     27 H           4.0589    0.9999    2.4790 H       1  UNL1        0.0428
     28 H           0.7183   -4.2004   -2.2382 H       1  UNL1        0.0664
     29 H           4.4068   -7.1647   -1.2942 H       1  UNL1        0.0479
     30 H           5.6688   -7.2940    0.0243 H       1  UNL1        0.0479
     31 H           3.8989   -7.9242    1.7155 H       1  UNL1        0.0479
     32 H           2.5917   -7.8245    0.4526 H       1  UNL1        0.0479
     33 H           4.6904   -3.9612    2.1748 H       1  UNL1        0.0278
     34 H           5.7179   -4.2695    0.7470 H       1  UNL1        0.0278
     35 H           5.3175   -2.6340    1.1724 H       1  UNL1        0.0278
@<TRIPOS>BOND
     1     1    22    1
     2     1    23    1
     3     1    24    1
     4     2     1    1
     5     3     2    1
     6     3    25    1
     7     3    26    1
     8     3    27    1
     9     4     2   am
    10     5     4    2
    11     6     4    1
    12     7     6   ar
    13     8     7   ar
    14     8    28    1
    15     9     8   ar
    16    10     9   ar
    17    11    10    1
    18    12    11    1
    19    12    29    1
    20    12    30    1
    21    13    12    1
    22    13    11    1
    23    13    31    1
    24    13    32    1
    25    14    10   ar
    26    14     6   ar
    27    15    14    1
    28    15    33    1
    29    15    34    1
    30    15    35    1
    31    16     9    1
    32    17    16    2
    33    18    16    2
    34    19     7    1
    35    20    19    2
    36    21    19    2
@<TRIPOS>MOLECULE
mol_462_akc_jbmcl201311018
>446.sdf
 46 50 0 0 0
SMALL
GASTEIGER

@<TRIPOS>ATOM
      1 C           4.7666   -7.1996    5.2646 C.3     1  UNL1        0.0138
      2 N           3.3535   -7.1217    4.9716 N.ar    1  UNL1       -0.3265
      3 C           2.3447   -7.4312    5.8696 C.ar    1  UNL1        0.0526
      4 C           2.3941   -7.8856    7.2002 C.ar    1  UNL1       -0.0375
      5 C           1.1924   -8.1172    7.8538 C.ar    1  UNL1       -0.0598
      6 C          -0.0304   -7.9146    7.2241 C.ar    1  UNL1       -0.0610
      7 C          -0.0779   -7.4650    5.9031 C.ar    1  UNL1       -0.0504
      8 C           1.1270   -7.2192    5.2109 C.ar    1  UNL1        0.0292
      9 C           1.4396   -6.7778    3.9016 C.ar    1  UNL1        0.1376
     10 N           0.6473   -6.4331    2.8590 N.ar    1  UNL1       -0.1429
     11 N           1.2663   -6.0621    1.7417 N.ar    1  UNL1       -0.1217
     12 C           2.6239   -6.0432    1.6680 C.ar    1  UNL1        0.2113
     13 S           3.2937   -5.5241    0.1028 S.3     1  UNL1       -0.0828
     14 C           4.9281   -6.3243    0.1364 C.3     1  UNL1        0.0167
     15 C           4.8754   -7.8592    0.0180 C.3     1  UNL1        0.0186
     16 N           6.2517   -8.3551   -0.1775 N.pl3   1  UNL1       -0.3425
     17 C           6.4565   -9.7563   -0.1781 C.ar    1  UNL1        0.0379
     18 C           7.3296  -10.2742    0.7872 C.ar    1  UNL1       -0.0221
     19 C           7.5695  -11.6327    0.8257 C.ar    1  UNL1        0.0300
     20 N           7.0388  -12.5071   -0.0438 N.ar    1  UNL1       -0.2548
     21 C           6.2869  -12.0202   -1.0381 C.ar    1  UNL1        0.0741
     22 C           5.9280  -12.9144   -2.0320 C.ar    1  UNL1       -0.0173
     23 C           5.2631  -12.4886   -3.1754 C.ar    1  UNL1        0.0430
     24 CL          5.0110  -13.5872   -4.4756 Cl      1  UNL1       -0.0835
     25 C           4.8674  -11.1661   -3.3017 C.ar    1  UNL1       -0.0426
     26 C           5.1937  -10.2550   -2.2956 C.ar    1  UNL1       -0.0494
     27 C           5.9367  -10.6488   -1.1566 C.ar    1  UNL1        0.0213
     28 N           3.4846   -6.3697    2.6594 N.ar    1  UNL1       -0.2009
     29 C           2.8171   -6.7315    3.7714 C.ar    1  UNL1        0.1646
     30 H           4.9787   -6.5486    6.1168 H       1  UNL1        0.0456
     31 H           5.0109   -8.2376    5.5031 H       1  UNL1        0.0456
     32 H           5.3500   -6.8732    4.4016 H       1  UNL1        0.0456
     33 H           3.3417   -8.0435    7.7089 H       1  UNL1        0.0638
     34 H           1.2034   -8.4668    8.8880 H       1  UNL1        0.0618
     35 H          -0.9598   -8.1084    7.7583 H       1  UNL1        0.0618
     36 H          -1.0315   -7.3056    5.4085 H       1  UNL1        0.0625
     37 H           5.4862   -5.9190   -0.7162 H       1  UNL1        0.0396
     38 H           5.4839   -6.0198    1.0309 H       1  UNL1        0.0396
     39 H           4.4465   -8.3005    0.9244 H       1  UNL1        0.0469
     40 H           4.2357   -8.1281   -0.8255 H       1  UNL1        0.0469
     41 H           6.8561   -7.9306    0.5256 H       1  UNL1        0.1461
     42 H           7.8415   -9.6320    1.4945 H       1  UNL1        0.0651
     43 H           8.2385  -12.0648    1.5639 H       1  UNL1        0.0830
     44 H           6.2393  -13.9522   -1.9389 H       1  UNL1        0.0653
     45 H           4.3519  -10.8251   -4.1953 H       1  UNL1        0.0632
     46 H           4.9319   -9.2137   -2.4529 H       1  UNL1        0.0625
@<TRIPOS>BOND
     1     1    30    1
     2     1    31    1
     3     1    32    1
     4     2     1    1
     5     3     2   ar
     6     4     3   ar
     7     4    33    1
     8     5     4   ar
     9     5    34    1
    10     6     5   ar
    11     6    35    1
    12     7     6   ar
    13     7    36    1
    14     8     7   ar
    15     8     3   ar
    16     9     8   ar
    17    10     9   ar
    18    11    10   ar
    19    12    11   ar
    20    13    12    1
    21    14    13    1
    22    14    37    1
    23    14    38    1
    24    15    14    1
    25    15    39    1
    26    15    40    1
    27    16    15    1
    28    16    41    1
    29    17    16    1
    30    18    17   ar
    31    18    42    1
    32    19    18   ar
    33    19    43    1
    34    20    19   ar
    35    21    20   ar
    36    22    21   ar
    37    22    44    1
    38    23    22   ar
    39    24    23    1
    40    25    23   ar
    41    25    45    1
    42    26    25   ar
    43    26    46    1
    44    27    26   ar
    45    27    17   ar
    46    27    21   ar
    47    28    12   ar
    48    29    28   ar
    49    29     2   ar
    50    29     9   ar
@<TRIPOS>MOLECULE
mol_463_akc_jsajb201310014
>447.sdf
 55 57 0 0 0
SMALL
GASTEIGER

@<TRIPOS>ATOM
      1 H           1.7182   -1.4934   -0.8846 H       1  UNL1        0.0320
      2 C           1.9860   -0.4264   -0.7964 C.3     1  UNL1       -0.0156
      3 C           1.4559    0.1748   -2.1123 C.3     1  UNL1       -0.0444
      4 C          -0.0075   -0.1988   -2.3485 C.3     1  UNL1       -0.0270
      5 C          -0.8478   -0.3746   -1.1070 C.ar    1  UNL1       -0.0391
      6 C          -0.2984   -0.3983    0.1874 C.ar    1  UNL1        0.0180
      7 C          -1.1484   -0.7997    1.2231 C.ar    1  UNL1        0.1633
      8 O          -0.6139   -1.3797    2.3431 O.3     1  UNL1       -0.5031
      9 C          -2.5401   -0.8224    1.0882 C.ar    1  UNL1        0.1650
     10 O          -3.3739   -0.9578    2.1738 O.3     1  UNL1       -0.4912
     11 C          -2.9367   -0.2367    3.3378 C.3     1  UNL1        0.0790
     12 C          -3.0954   -0.7568   -0.1912 C.ar    1  UNL1        0.0008
     13 C          -2.2190   -0.6256   -1.2828 C.ar    1  UNL1       -0.0512
     14 C          -4.5934   -0.8385   -0.4192 C.3     1  UNL1       -0.0179
     15 C          -5.0662    0.2631   -1.3759 C.3     1  UNL1       -0.0585
     16 C          -4.9965   -2.2245   -0.9259 C.3     1  UNL1       -0.0585
     17 C           1.1505    0.0905    0.4217 C.3     1  UNL1        0.0994
     18 C           1.7937   -0.4195    1.7309 C.3     1  UNL1       -0.0327
     19 C           3.2526   -0.0464    1.9412 C.3     1  UNL1       -0.0512
     20 C           4.0022    0.3132    0.6737 C.3     1  UNL1       -0.0475
     21 C           3.5501   -0.4334   -0.5980 C.3     1  UNL1       -0.0307
     22 C           4.3392    0.1810   -1.7740 C.3     1  UNL1       -0.0595
     23 C           3.9820   -1.9188   -0.4828 C.3     1  UNL1       -0.0595
     24 C           1.1111    1.6442    0.5269 C.2     1  UNL1        0.3157
     25 O           0.2325    2.1029    1.4517 O.3     1  UNL1       -0.4800
     26 O           1.7811    2.4485   -0.0854 O.2     1  UNL1       -0.2500
     27 H           1.5502    1.2644   -2.1248 H       1  UNL1        0.0272
     28 H           2.0316   -0.1861   -2.9724 H       1  UNL1        0.0272
     29 H          -0.4684    0.5515   -3.0029 H       1  UNL1        0.0313
     30 H          -0.0276   -1.1537   -2.8922 H       1  UNL1        0.0313
     31 H          -1.0993   -2.2228    2.4305 H       1  UNL1        0.2923
     32 H          -3.8153    0.0158    3.9385 H       1  UNL1        0.0660
     33 H          -2.4204    0.7017    3.0965 H       1  UNL1        0.0660
     34 H          -2.3011   -0.8758    3.9594 H       1  UNL1        0.0660
     35 H          -2.6098   -0.6840   -2.2976 H       1  UNL1        0.0624
     36 H          -5.1139   -0.6661    0.5303 H       1  UNL1        0.0345
     37 H          -4.7106    0.1019   -2.3999 H       1  UNL1        0.0235
     38 H          -6.1586    0.3038   -1.4124 H       1  UNL1        0.0235
     39 H          -4.7002    1.2436   -1.0491 H       1  UNL1        0.0235
     40 H          -4.6007   -2.4234   -1.9283 H       1  UNL1        0.0235
     41 H          -4.6247   -3.0122   -0.2605 H       1  UNL1        0.0235
     42 H          -6.0871   -2.3139   -0.9731 H       1  UNL1        0.0235
     43 H           1.7253   -1.5150    1.7599 H       1  UNL1        0.0279
     44 H           1.2522   -0.0445    2.6104 H       1  UNL1        0.0279
     45 H           3.7521   -0.8783    2.4511 H       1  UNL1        0.0266
     46 H           3.3157    0.8016    2.6351 H       1  UNL1        0.0266
     47 H           3.9194    1.3935    0.5123 H       1  UNL1        0.0271
     48 H           5.0712    0.1404    0.8544 H       1  UNL1        0.0271
     49 H           5.3719    0.4034   -1.4785 H       1  UNL1        0.0235
     50 H           4.3923   -0.4988   -2.6300 H       1  UNL1        0.0235
     51 H           3.9046    1.1283   -2.1082 H       1  UNL1        0.0235
     52 H           3.7526   -2.4585   -1.4105 H       1  UNL1        0.0235
     53 H           5.0564   -2.0188   -0.2981 H       1  UNL1        0.0235
     54 H           3.4523   -2.4350    0.3277 H       1  UNL1        0.0235
     55 H           0.3203    3.0759    1.3937 H       1  UNL1        0.2951
@<TRIPOS>BOND
     1     3     2    1
     2     4     3    1
     3     5     4    1
     4     6     5   ar
     5     7     6   ar
     6     8    31    1
     7     9     7   ar
     8    11    10    1
     9    11    32    1
    10    11    33    1
    11    11    34    1
    12    12     9   ar
    13    13    12   ar
    14    13     5   ar
    15    14    36    1
    16    15    14    1
    17    15    37    1
    18    15    38    1
    19    15    39    1
    20    16    14    1
    21    16    40    1
    22    16    41    1
    23    16    42    1
    24    17     6    1
    25    17     2    1
    26    18    17    1
    27    19    18    1
    28    20    19    1
    29    21    20    1
    30    21     2    1
    31    22    49    1
    32    22    50    1
    33    22    51    1
    34    23    52    1
    35    23    53    1
    36    23    54    1
    37    25    24    1
    38    26    24    2
    39     2     1    1
    40     3    27    1
    41     3    28    1
    42     4    29    1
    43     4    30    1
    44     8     7    1
    45    10     9    1
    46    14    12    1
    47    13    35    1
    48    17    24    1
    49    18    43    1
    50    18    44    1
    51    19    45    1
    52    19    46    1
    53    20    47    1
    54    20    48    1
    55    22    21    1
    56    23    21    1
    57    25    55    1
@<TRIPOS>MOLECULE
mol_464_akc_jactatropica201309018
>448.sdf
 30 31 0 0 0
SMALL
GASTEIGER

@<TRIPOS>ATOM
      1 C           0.9887   -0.3993   -1.0390 C.3     1  UNL1        0.0336
      2 C           2.4377   -0.6985   -1.2867 C.2     1  UNL1        0.3092
      3 O           2.8527   -1.7972   -1.6191 O.2     1  UNL1       -0.2507
      4 O           3.2014    0.4579   -1.0765 O.3     1  UNL1       -0.4253
      5 C           4.6093    0.4053   -1.2105 C.ar    1  UNL1        0.1437
      6 C           5.3194   -0.6869   -0.6876 C.ar    1  UNL1       -0.0185
      7 C           6.7068   -0.7587   -0.8175 C.ar    1  UNL1       -0.0582
      8 C           7.3968    0.2713   -1.4459 C.ar    1  UNL1       -0.0608
      9 C           6.6982    1.3795   -1.9256 C.ar    1  UNL1       -0.0461
     10 C           5.2975    1.4745   -1.8061 C.ar    1  UNL1        0.0793
     11 C           4.6868    2.7511   -2.3112 C.2     1  UNL1        0.2532
     12 O           5.3930    3.4943   -2.9865 O.2     1  UNL1       -0.2697
     13 N           3.3925    3.0223   -1.9255 N.am    1  UNL1       -0.2604
     14 C           2.8224    4.2469   -2.1566 C.ar    1  UNL1        0.1708
     15 N           3.2923    5.2669   -2.8311 N.ar    1  UNL1       -0.2260
     16 C           2.4398    6.3446   -2.6993 C.ar    1  UNL1        0.1147
     17 C           1.3294    6.0967   -1.9304 C.ar    1  UNL1        0.3320
     18 S           1.3079    4.4787   -1.3956 S.2     1  UNL1        0.0219
     19 N           0.3071    7.0272   -1.5763 N.pl3   1  UNL1        0.0887
     20 O           0.4307    8.1767   -2.0161 O.co2   1  UNL1       -0.5755
     21 O          -0.6196    6.6279   -0.8574 O.2     1  UNL1        0.0421
     22 H           0.4095   -0.6942   -1.9180 H       1  UNL1        0.0342
     23 H           0.6515   -0.9475   -0.1569 H       1  UNL1        0.0342
     24 H           0.8311    0.6698   -0.8708 H       1  UNL1        0.0342
     25 H           4.8085   -1.5038   -0.1831 H       1  UNL1        0.0654
     26 H           7.2453   -1.6207   -0.4326 H       1  UNL1        0.0619
     27 H           8.4775    0.2197   -1.5531 H       1  UNL1        0.0618
     28 H           7.2662    2.1849   -2.3915 H       1  UNL1        0.0626
     29 H           2.8843    2.3759   -1.3431 H       1  UNL1        0.1571
     30 H           2.6960    7.2855   -3.1743 H       1  UNL1        0.0906
@<TRIPOS>UNITY_ATOM_ATTR
19 1
charge 1
20 1
charge -1
@<TRIPOS>BOND
     1     1    22    1
     2     1    23    1
     3     1    24    1
     4     2     1    1
     5     3     2    2
     6     4     2    1
     7     5     4    1
     8     6     5   ar
     9     6    25    1
    10     7     6   ar
    11     7    26    1
    12     8     7   ar
    13     8    27    1
    14     9     8   ar
    15     9    28    1
    16    10     9   ar
    17    10     5   ar
    18    11    10    1
    19    12    11    2
    20    13    11   am
    21    13    29    1
    22    14    13    1
    23    15    14   ar
    24    16    15   ar
    25    16    30    1
    26    17    16   ar
    27    18    17   ar
    28    18    14   ar
    29    19    17    1
    30    20    19    1
    31    21    19    2
@<TRIPOS>MOLECULE
mol_465_akc_jm4006127
>449.sdf
 30 32 0 0 0
SMALL
GASTEIGER

@<TRIPOS>ATOM
      1 O           2.9909   -0.9311    0.9443 O.2     1  UNL1       -0.1500
      2 S           2.4519   -0.0477   -0.0684 S.O2    1  UNL1        0.0723
      3 O           1.0329   -0.0136   -0.3566 O.2     1  UNL1       -0.1500
      4 N           2.9910    1.5096    0.3275 N.pl3   1  UNL1       -0.2162
      5 C           2.5962    2.5872   -0.5139 C.ar    1  UNL1        0.0488
      6 C           1.3435    3.1763   -0.3061 C.ar    1  UNL1       -0.0287
      7 C           0.9346    4.2059   -1.1695 C.ar    1  UNL1        0.0213
      8 C           1.7674    4.5867   -2.2157 C.ar    1  UNL1        0.0658
      9 N           1.0843    5.5746   -2.8766 N.ar    1  UNL1       -0.2770
     10 N          -0.1049    5.8816   -2.3295 N.ar    1  UNL1       -0.1812
     11 C          -0.1947    5.0451   -1.2920 C.ar    1  UNL1        0.0569
     12 C           3.0172    4.0036   -2.4462 C.ar    1  UNL1       -0.0345
     13 C           3.4220    2.9965   -1.5620 C.ar    1  UNL1       -0.0373
     14 C           3.3185   -0.4037   -1.5832 C.ar    1  UNL1        0.1085
     15 C           4.5855   -0.9962   -1.5230 C.ar    1  UNL1       -0.0351
     16 C           5.2566   -1.3113   -2.7046 C.ar    1  UNL1       -0.0599
     17 C           4.6617   -1.0405   -3.9381 C.ar    1  UNL1       -0.0616
     18 C           3.3931   -0.4598   -3.9944 C.ar    1  UNL1       -0.0599
     19 C           2.7121   -0.1462   -2.8170 C.ar    1  UNL1       -0.0351
     20 H           3.9598    1.5007    0.6413 H       1  UNL1        0.1737
     21 H           0.7033    2.8472    0.5074 H       1  UNL1        0.0643
     22 H           1.3753    6.0806   -3.7050 H       1  UNL1        0.1889
     23 H          -1.0765    5.0789   -0.6650 H       1  UNL1        0.0854
     24 H           3.6485    4.3096   -3.2739 H       1  UNL1        0.0639
     25 H           4.3867    2.5207   -1.7210 H       1  UNL1        0.0637
     26 H           5.0471   -1.2306   -0.5660 H       1  UNL1        0.0637
     27 H           6.2364   -1.7813   -2.6660 H       1  UNL1        0.0618
     28 H           5.1826   -1.2964   -4.8582 H       1  UNL1        0.0618
     29 H           2.9303   -0.2628   -4.9590 H       1  UNL1        0.0618
     30 H           1.7192    0.2958   -2.8675 H       1  UNL1        0.0637
@<TRIPOS>BOND
     1     2     1    2
     2     3     2    2
     3     4     2    1
     4     4    20    1
     5     5     4    1
     6     6     5   ar
     7     6    21    1
     8     7     6   ar
     9     8     7   ar
    10     9     8   ar
    11     9    22    1
    12    10     9   ar
    13    11    10   ar
    14    11     7   ar
    15    11    23    1
    16    12     8   ar
    17    12    24    1
    18    13    12   ar
    19    13     5   ar
    20    13    25    1
    21    14     2    1
    22    15    14   ar
    23    15    26    1
    24    16    15   ar
    25    16    27    1
    26    17    16   ar
    27    17    28    1
    28    18    17   ar
    29    18    29    1
    30    19    18   ar
    31    19    14   ar
    32    19    30    1
@<TRIPOS>MOLECULE
mol_466_akc_jbmc201309002
>450.sdf
 33 35 0 0 0
SMALL
GASTEIGER

@<TRIPOS>ATOM
      1 O           0.8446    0.6715   -3.1205 O.co2   1  UNL1       -0.5747
      2 N           1.9943    0.8940   -3.5144 N.pl3   1  UNL1        0.1012
      3 O           2.3998    0.8357   -4.6781 O.2     1  UNL1        0.0431
      4 C           2.9370    1.2182   -2.5138 C.ar    1  UNL1        0.3770
      5 C           2.8152    2.0875   -1.4531 C.ar    1  UNL1        0.1608
      6 C           1.7186    3.0139   -1.0632 C.3     1  UNL1        0.1211
      7 S           1.8413    4.5756   -1.9276 S.O2    1  UNL1        0.0027
      8 O           3.0960    5.2248   -1.5967 O.2     1  UNL1       -0.1690
      9 O           1.4787    4.3487   -3.3159 O.2     1  UNL1       -0.1690
     10 C           0.5493    5.5579   -1.1933 C.ar    1  UNL1        0.0886
     11 C           0.8357    6.3310   -0.0631 C.ar    1  UNL1       -0.0369
     12 C          -0.1588    7.1411    0.4852 C.ar    1  UNL1       -0.0600
     13 C          -1.4257    7.1833   -0.0991 C.ar    1  UNL1       -0.0616
     14 C          -1.7016    6.4200   -1.2350 C.ar    1  UNL1       -0.0600
     15 C          -0.7128    5.6069   -1.7907 C.ar    1  UNL1       -0.0369
     16 N           3.9494    1.9973   -0.6723 N.ar    1  UNL1       -0.2227
     17 C           4.7553    1.1385   -1.2700 C.ar    1  UNL1        0.1571
     18 N           4.1666    0.6118   -2.4281 N.ar    1  UNL1       -0.2396
     19 C           4.7930   -0.3536   -3.2227 C.ar    1  UNL1        0.0313
     20 C           6.0180   -0.7957   -2.8923 C.ar    1  UNL1        0.0357
     21 BR          6.9240   -2.0790   -3.8894 Br      1  UNL1       -0.0487
     22 C           6.6637   -0.2569   -1.7069 C.ar    1  UNL1       -0.0288
     23 C           6.0623    0.6693   -0.9302 C.ar    1  UNL1        0.0618
     24 BR          6.8849    1.3617    0.5934 Br      1  UNL1       -0.0465
     25 H           0.7379    2.5876   -1.2906 H       1  UNL1        0.0572
     26 H           1.7669    3.2257    0.0098 H       1  UNL1        0.0572
     27 H           1.8284    6.3252    0.3833 H       1  UNL1        0.0636
     28 H           0.0570    7.7528    1.3582 H       1  UNL1        0.0618
     29 H          -2.1953    7.8262    0.3232 H       1  UNL1        0.0618
     30 H          -2.6856    6.4732   -1.6961 H       1  UNL1        0.0618
     31 H          -0.9314    5.0367   -2.6912 H       1  UNL1        0.0636
     32 H           4.2653   -0.7200   -4.0956 H       1  UNL1        0.0826
     33 H           7.6569   -0.6196   -1.4579 H       1  UNL1        0.0641
@<TRIPOS>UNITY_ATOM_ATTR
1 1
charge -1
2 1
charge 1
@<TRIPOS>BOND
     1     2     1    1
     2     3     2    2
     3     4     2    1
     4     5     4   ar
     5     6     5    1
     6     6    25    1
     7     6    26    1
     8     7     6    1
     9     8     7    2
    10     9     7    2
    11    10     7    1
    12    11    10   ar
    13    11    27    1
    14    12    11   ar
    15    12    28    1
    16    13    12   ar
    17    13    29    1
    18    14    13   ar
    19    14    30    1
    20    15    14   ar
    21    15    10   ar
    22    15    31    1
    23    16     5   ar
    24    17    16   ar
    25    18    17   ar
    26    18     4   ar
    27    19    18   ar
    28    19    32    1
    29    20    19   ar
    30    21    20    1
    31    22    20   ar
    32    22    33    1
    33    23    22   ar
    34    23    17   ar
    35    24    23    1
@<TRIPOS>MOLECULE
mol_467_akc_ml400317e
>451.sdf
 79 82 0 0 0
SMALL
GASTEIGER

@<TRIPOS>ATOM
      1 C           1.8887    0.0091    0.5868 C.3     1  UNL1       -0.0639
      2 C           3.3383    0.4371    0.7463 C.3     1  UNL1       -0.0402
      3 C           3.8558    1.2053   -0.4739 C.3     1  UNL1        0.0115
      4 N           5.2245    1.6119   -0.2177 N.pl3   1  UNL1       -0.3134
      5 C           5.8542    2.3132   -1.2361 C.ar    1  UNL1        0.2198
      6 N           5.1693    3.1258   -2.0273 N.ar    1  UNL1       -0.1811
      7 C           5.8720    3.7931   -2.9358 C.ar    1  UNL1        0.2198
      8 N           5.2433    4.6850   -3.7938 N.pl3   1  UNL1       -0.3133
      9 C           4.0433    5.3181   -3.2798 C.3     1  UNL1        0.0119
     10 C           3.9051    6.7363   -3.8427 C.3     1  UNL1       -0.0343
     11 C           2.6408    7.4563   -3.3543 C.3     1  UNL1       -0.0171
     12 C           1.3394    6.7742   -3.7723 C.3     1  UNL1        0.0928
     13 O           1.2648    6.7331   -5.1974 O.3     1  UNL1       -0.4623
     14 C           0.2452    5.9256   -5.6554 C.ar    1  UNL1        0.3226
     15 N           0.1372    5.8483   -6.9733 N.ar    1  UNL1       -0.1795
     16 C          -0.8241    5.0274   -7.3960 C.ar    1  UNL1        0.1422
     17 C          -0.9944    4.8558   -8.8871 C.3     1  UNL1        0.0327
     18 C          -0.1506    3.7422   -9.4636 C.ar    1  UNL1       -0.0401
     19 C          -0.6453    2.4314   -9.5216 C.ar    1  UNL1       -0.0582
     20 C           0.1441    1.3995  -10.0315 C.ar    1  UNL1       -0.0615
     21 C           1.4349    1.6660  -10.4841 C.ar    1  UNL1       -0.0617
     22 C           1.9396    2.9637  -10.4244 C.ar    1  UNL1       -0.0615
     23 C           1.1531    3.9971   -9.9131 C.ar    1  UNL1       -0.0582
     24 N          -1.6449    4.3359   -6.5921 N.ar    1  UNL1       -0.1990
     25 C          -1.4440    4.4989   -5.2929 C.ar    1  UNL1        0.2213
     26 N          -2.2647    3.7591   -4.4467 N.pl3   1  UNL1       -0.3133
     27 C          -2.6070    4.4249   -3.2002 C.3     1  UNL1        0.0116
     28 C          -3.5668    3.5472   -2.3989 C.3     1  UNL1       -0.0402
     29 C          -3.9082    4.1758   -1.0571 C.3     1  UNL1       -0.0639
     30 N          -0.5294    5.2994   -4.7749 N.ar    1  UNL1       -0.1613
     31 N           7.1836    3.6761   -3.0981 N.ar    1  UNL1       -0.1991
     32 C           7.7886    2.8244   -2.2689 C.ar    1  UNL1        0.1405
     33 C           9.2749    2.6156   -2.4338 C.3     1  UNL1        0.0327
     34 C          10.1349    3.4883   -1.5468 C.ar    1  UNL1       -0.0401
     35 C          10.4672    3.0755   -0.2481 C.ar    1  UNL1       -0.0582
     36 C          11.2848    3.8673    0.5607 C.ar    1  UNL1       -0.0615
     37 C          11.7723    5.0824    0.0836 C.ar    1  UNL1       -0.0617
     38 C          11.4358    5.5109   -1.1990 C.ar    1  UNL1       -0.0615
     39 C          10.6174    4.7210   -2.0095 C.ar    1  UNL1       -0.0582
     40 N           7.1656    2.1176   -1.3250 N.ar    1  UNL1       -0.1991
     41 H           1.5506   -0.5198    1.4840 H       1  UNL1        0.0230
     42 H           1.2365    0.8758    0.4398 H       1  UNL1        0.0230
     43 H           1.7682   -0.6636   -0.2680 H       1  UNL1        0.0230
     44 H           3.4308    1.0626    1.6427 H       1  UNL1        0.0278
     45 H           3.9594   -0.4508    0.9174 H       1  UNL1        0.0278
     46 H           3.8054    0.5612   -1.3618 H       1  UNL1        0.0462
     47 H           3.2144    2.0780   -0.6458 H       1  UNL1        0.0462
     48 H           5.8608    0.8713    0.0558 H       1  UNL1        0.1489
     49 H           5.9512    5.2794   -4.2076 H       1  UNL1        0.1489
     50 H           3.1875    4.7015   -3.5724 H       1  UNL1        0.0462
     51 H           4.0497    5.3894   -2.1844 H       1  UNL1        0.0462
     52 H           4.7759    7.3277   -3.5296 H       1  UNL1        0.0281
     53 H           3.9274    6.7148   -4.9387 H       1  UNL1        0.0281
     54 H           2.6644    7.5396   -2.2611 H       1  UNL1        0.0298
     55 H           2.6530    8.4757   -3.7582 H       1  UNL1        0.0298
     56 H           1.3086    5.7697   -3.3342 H       1  UNL1        0.0697
     57 H           0.4916    7.3509   -3.3824 H       1  UNL1        0.0697
     58 H          -2.0523    4.6700   -9.1135 H       1  UNL1        0.0392
     59 H          -0.7504    5.8001   -9.3906 H       1  UNL1        0.0392
     60 H          -1.6463    2.2056   -9.1600 H       1  UNL1        0.0620
     61 H          -0.2458    0.3857  -10.0681 H       1  UNL1        0.0618
     62 H           2.0510    0.8609  -10.8754 H       1  UNL1        0.0618
     63 H           2.9498    3.1703  -10.7681 H       1  UNL1        0.0618
     64 H           1.5670    5.0021   -9.8574 H       1  UNL1        0.0620
     65 H          -3.0433    3.4244   -5.0039 H       1  UNL1        0.1489
     66 H          -1.7059    4.6044   -2.5999 H       1  UNL1        0.0462
     67 H          -3.0813    5.3937   -3.4026 H       1  UNL1        0.0462
     68 H          -4.4890    3.3868   -2.9700 H       1  UNL1        0.0278
     69 H          -3.1200    2.5595   -2.2326 H       1  UNL1        0.0278
     70 H          -3.0082    4.3192   -0.4503 H       1  UNL1        0.0230
     71 H          -4.3907    5.1494   -1.1905 H       1  UNL1        0.0230
     72 H          -4.5935    3.5302   -0.4993 H       1  UNL1        0.0230
     73 H           9.5100    1.5613   -2.2373 H       1  UNL1        0.0392
     74 H           9.5490    2.7802   -3.4837 H       1  UNL1        0.0392
     75 H          10.0920    2.1306    0.1402 H       1  UNL1        0.0620
     76 H          11.5421    3.5350    1.5630 H       1  UNL1        0.0618
     77 H          12.4115    5.6966    0.7126 H       1  UNL1        0.0618
     78 H          11.8124    6.4608   -1.5695 H       1  UNL1        0.0618
     79 H          10.3629    5.0711   -3.0077 H       1  UNL1        0.0620
@<TRIPOS>BOND
     1     1    41    1
     2     1    42    1
     3     1    43    1
     4     2     1    1
     5     2    44    1
     6     2    45    1
     7     3     2    1
     8     3    46    1
     9     3    47    1
    10     4     3    1
    11     4    48    1
    12     5     4    1
    13     6     5   ar
    14     7     6   ar
    15     8     7    1
    16     8    49    1
    17     9     8    1
    18     9    50    1
    19     9    51    1
    20    10     9    1
    21    10    52    1
    22    10    53    1
    23    11    10    1
    24    11    54    1
    25    11    55    1
    26    12    11    1
    27    12    56    1
    28    12    57    1
    29    13    12    1
    30    14    13    1
    31    15    14   ar
    32    16    15   ar
    33    17    16    1
    34    17    58    1
    35    17    59    1
    36    18    17    1
    37    19    18   ar
    38    19    60    1
    39    20    19   ar
    40    20    61    1
    41    21    20   ar
    42    21    62    1
    43    22    21   ar
    44    22    63    1
    45    23    22   ar
    46    23    18   ar
    47    23    64    1
    48    24    16   ar
    49    25    24   ar
    50    26    25    1
    51    26    65    1
    52    27    26    1
    53    27    66    1
    54    27    67    1
    55    28    27    1
    56    28    68    1
    57    28    69    1
    58    29    28    1
    59    29    70    1
    60    29    71    1
    61    29    72    1
    62    30    25   ar
    63    30    14   ar
    64    31     7   ar
    65    32    31   ar
    66    33    32    1
    67    33    73    1
    68    33    74    1
    69    34    33    1
    70    35    34   ar
    71    35    75    1
    72    36    35   ar
    73    36    76    1
    74    37    36   ar
    75    37    77    1
    76    38    37   ar
    77    38    78    1
    78    39    38   ar
    79    39    34   ar
    80    39    79    1
    81    40    32   ar
    82    40     5   ar
@<TRIPOS>MOLECULE
mol_468_akc_jbcp201310004
>452.sdf
 75 78 0 0 0
SMALL
GASTEIGER

@<TRIPOS>ATOM
      1 C           8.8102   -0.9144   -0.6145 C.3     1  UNL1        0.0790
      2 O           8.1698   -1.8969   -1.4280 O.3     1  UNL1       -0.4913
      3 C           7.7961   -1.5006   -2.6898 C.ar    1  UNL1        0.1653
      4 C           7.7921   -0.1965   -3.1400 C.ar    1  UNL1       -0.0123
      5 C           7.3459    0.2003   -4.4466 C.ar    1  UNL1       -0.0324
      6 C           6.9558   -0.8204   -5.3116 C.ar    1  UNL1       -0.0123
      7 C           6.9991   -2.1719   -4.8866 C.ar    1  UNL1        0.1653
      8 O           6.6535   -3.0963   -5.8385 O.3     1  UNL1       -0.4913
      9 C           7.4221   -4.3025   -5.7932 C.3     1  UNL1        0.0790
     10 C           7.3699   -2.4915   -3.5625 C.ar    1  UNL1        0.2010
     11 O           7.3239   -3.7782   -3.0839 O.3     1  UNL1       -0.5009
     12 C           7.4610    1.6836   -4.6819 C.3     1  UNL1        0.0185
     13 C           6.7882    2.6539   -3.6505 C.3     1  UNL1       -0.0013
     14 C           5.5012    2.1457   -2.9907 C.3     1  UNL1        0.0548
     15 O           5.6135    1.3461   -1.8170 O.3     1  UNL1       -0.3484
     16 C           4.4591    0.4643   -1.7131 C.3     1  UNL1        0.1875
     17 O           3.2503    1.0944   -2.1594 O.3     1  UNL1       -0.3461
     18 C           2.1426    0.1910   -2.1576 C.3     1  UNL1        0.0792
     19 C           1.8231   -0.2591   -0.7365 C.3     1  UNL1        0.1069
     20 O           0.7538   -1.2038   -0.7337 O.3     1  UNL1       -0.3869
     21 C           3.0690   -0.8838   -0.1081 C.3     1  UNL1        0.1137
     22 O           2.8040   -1.1658    1.2764 O.3     1  UNL1       -0.3864
     23 C           4.2787    0.0455   -0.2388 C.3     1  UNL1        0.1341
     24 O           5.4281   -0.6296    0.2852 O.3     1  UNL1       -0.3841
     25 C           7.9525    3.3528   -2.8932 C.3     1  UNL1       -0.0081
     26 C           7.4882    4.5908   -2.1326 C.3     1  UNL1        0.0477
     27 O           8.5795    5.1516   -1.4096 O.3     1  UNL1       -0.3947
     28 C           9.1121    3.7234   -3.9156 C.3     1  UNL1       -0.0219
     29 C           8.6146    3.7344   -5.3744 C.ar    1  UNL1       -0.0361
     30 C           8.8003    4.8909   -6.1238 C.ar    1  UNL1       -0.0126
     31 C           8.0249    5.0814   -7.2551 C.ar    1  UNL1        0.1653
     32 O           7.9922    6.2575   -7.9733 O.3     1  UNL1       -0.4913
     33 C           8.4169    7.4190   -7.2548 C.3     1  UNL1        0.0790
     34 C           7.1400    4.0660   -7.6864 C.ar    1  UNL1        0.2013
     35 O           6.3816    4.3620   -8.7974 O.3     1  UNL1       -0.5009
     36 C           6.9760    2.8535   -6.9766 C.ar    1  UNL1        0.1690
     37 O           6.0357    1.8883   -7.2261 O.3     1  UNL1       -0.4910
     38 C           4.8792    2.2889   -7.9591 C.3     1  UNL1        0.0790
     39 C           7.7552    2.6562   -5.8279 C.ar    1  UNL1        0.0091
     40 H           9.7635   -0.5994   -1.0530 H       1  UNL1        0.0660
     41 H           8.1705   -0.0450   -0.4373 H       1  UNL1        0.0660
     42 H           9.0148   -1.3634    0.3622 H       1  UNL1        0.0660
     43 H           8.1470    0.5802   -2.4814 H       1  UNL1        0.0658
     44 H           6.6482   -0.5907   -6.3274 H       1  UNL1        0.0658
     45 H           8.4778   -4.1140   -5.5631 H       1  UNL1        0.0660
     46 H           6.9867   -5.0175   -5.0887 H       1  UNL1        0.0660
     47 H           7.3807   -4.7638   -6.7837 H       1  UNL1        0.0660
     48 H           7.5959   -3.7148   -2.1498 H       1  UNL1        0.2924
     49 H           8.5286    1.5985   -4.4237 H       1  UNL1        0.0402
     50 H           6.3378    3.4776   -4.2340 H       1  UNL1        0.0335
     51 H           4.8994    3.0193   -2.7050 H       1  UNL1        0.0564
     52 H           4.9363    1.6167   -3.7708 H       1  UNL1        0.0564
     53 H           4.6793   -0.4090   -2.3394 H       1  UNL1        0.0937
     54 H           1.2790    0.7073   -2.5901 H       1  UNL1        0.0587
     55 H           2.3510   -0.6631   -2.8154 H       1  UNL1        0.0587
     56 H           1.5022    0.6013   -0.1370 H       1  UNL1        0.0643
     57 H           0.7207   -1.5499    0.1810 H       1  UNL1        0.2100
     58 H           3.2808   -1.8564   -0.5704 H       1  UNL1        0.0647
     59 H           3.6732   -1.4098    1.6543 H       1  UNL1        0.2100
     60 H           4.1321    0.9347    0.3870 H       1  UNL1        0.0671
     61 H           6.1801   -0.0822   -0.0018 H       1  UNL1        0.2101
     62 H           8.3929    2.6704   -2.1569 H       1  UNL1        0.0330
     63 H           7.1096    5.3551   -2.8176 H       1  UNL1        0.0560
     64 H           6.7000    4.3433   -1.4163 H       1  UNL1        0.0560
     65 H           8.9177    4.4700   -0.8036 H       1  UNL1        0.2094
     66 H           9.9209    2.9816   -3.8457 H       1  UNL1        0.0317
     67 H           9.5782    4.6800   -3.6602 H       1  UNL1        0.0317
     68 H           9.4669    5.6603   -5.7501 H       1  UNL1        0.0658
     69 H           7.9519    7.4793   -6.2626 H       1  UNL1        0.0660
     70 H           9.5089    7.4452   -7.1747 H       1  UNL1        0.0660
     71 H           8.1005    8.3027   -7.8165 H       1  UNL1        0.0660
     72 H           6.6440    5.2687   -9.0536 H       1  UNL1        0.2924
     73 H           4.4456    3.2165   -7.5673 H       1  UNL1        0.0660
     74 H           5.0962    2.3634   -9.0292 H       1  UNL1        0.0660
     75 H           4.1204    1.5077   -7.8422 H       1  UNL1        0.0660
@<TRIPOS>BOND
     1     1    40    1
     2     1    41    1
     3     1    42    1
     4     2     1    1
     5     3     2    1
     6     4     3   ar
     7     4    43    1
     8     5     4   ar
     9     6     5   ar
    10     6    44    1
    11     7     6   ar
    12     8     7    1
    13     9     8    1
    14     9    45    1
    15     9    46    1
    16     9    47    1
    17    10     7   ar
    18    10     3   ar
    19    11    10    1
    20    11    48    1
    21    12     5    1
    22    12    49    1
    23    13    12    1
    24    14    51    1
    25    14    52    1
    26    15    14    1
    27    17    16    1
    28    18    17    1
    29    18    54    1
    30    18    55    1
    31    19    18    1
    32    19    56    1
    33    20    19    1
    34    20    57    1
    35    21    19    1
    36    21    58    1
    37    22    21    1
    38    22    59    1
    39    23    21    1
    40    23    16    1
    41    23    60    1
    42    24    23    1
    43    24    61    1
    44    25    13    1
    45    25    62    1
    46    26    25    1
    47    26    63    1
    48    26    64    1
    49    27    26    1
    50    27    65    1
    51    28    25    1
    52    28    66    1
    53    28    67    1
    54    29    28    1
    55    30    29   ar
    56    30    68    1
    57    31    30   ar
    58    32    31    1
    59    33    32    1
    60    33    69    1
    61    33    70    1
    62    33    71    1
    63    34    31   ar
    64    35    34    1
    65    35    72    1
    66    36    34   ar
    67    37    36    1
    68    38    37    1
    69    38    73    1
    70    38    74    1
    71    38    75    1
    72    39    36   ar
    73    39    12    1
    74    39    29   ar
    75    13    14    1
    76    13    50    1
    77    16    53    1
    78    16    15    1
@<TRIPOS>MOLECULE
mol_469_akc_jbcp201310004
>453.sdf
 67 70 0 0 0
SMALL
GASTEIGER

@<TRIPOS>ATOM
      1 C          10.4152    6.3830    2.3649 C.3     1  UNL1        0.0790
      2 O          10.1667    5.0217    2.0345 O.3     1  UNL1       -0.4914
      3 C          10.3075    4.1275    3.0644 C.ar    1  UNL1        0.1616
      4 C          10.8969    2.9237    2.6910 C.ar    1  UNL1       -0.0160
      5 C          11.0447    1.8980    3.6167 C.ar    1  UNL1       -0.0546
      6 C          10.6409    2.0688    4.9509 C.ar    1  UNL1       -0.0396
      7 C          10.6891    0.8379    5.8282 C.3     1  UNL1       -0.0220
      8 C          10.5716    1.1274    7.3198 C.3     1  UNL1       -0.0081
      9 C          11.9509    1.5154    7.8772 C.3     1  UNL1        0.0477
     10 O          11.8769    1.7826    9.2702 O.3     1  UNL1       -0.3947
     11 C           9.4571    2.1654    7.5815 C.3     1  UNL1       -0.0013
     12 C           8.0533    1.6824    7.1036 C.3     1  UNL1        0.0548
     13 O           7.6658    0.3901    7.5897 O.3     1  UNL1       -0.3484
     14 C           6.4339   -0.0217    6.9466 C.3     1  UNL1        0.1875
     15 O           5.4237    0.9648    7.1874 O.3     1  UNL1       -0.3461
     16 C           4.1996    0.6762    6.5205 C.3     1  UNL1        0.0792
     17 C           3.5917   -0.6089    7.0633 C.3     1  UNL1        0.1069
     18 O           2.3764   -0.9105    6.3765 O.3     1  UNL1       -0.3869
     19 C           4.5903   -1.7522    6.8791 C.3     1  UNL1        0.1137
     20 O           4.0536   -2.9363    7.4958 O.3     1  UNL1       -0.3864
     21 C           5.9665   -1.4038    7.4718 C.3     1  UNL1        0.1341
     22 O           6.8805   -2.4511    7.1012 O.3     1  UNL1       -0.3841
     23 C           9.7437    3.5359    6.8658 C.3     1  UNL1        0.0184
     24 C          10.6481    4.5593    7.6013 C.ar    1  UNL1       -0.0358
     25 C          11.4201    5.5166    6.8999 C.ar    1  UNL1       -0.0125
     26 C          12.0636    6.5808    7.5428 C.ar    1  UNL1        0.1615
     27 O          12.7352    7.5925    6.9044 O.3     1  UNL1       -0.4914
     28 C          12.1990    7.9497    5.6317 C.3     1  UNL1        0.0790
     29 C          12.0424    6.6411    8.9300 C.ar    1  UNL1        0.1585
     30 O          12.7006    7.6477    9.5825 O.3     1  UNL1       -0.5033
     31 C          11.3344    5.7011    9.6668 C.ar    1  UNL1       -0.0162
     32 C          10.6227    4.6910    9.0044 C.ar    1  UNL1       -0.0543
     33 C          10.0889    3.3051    5.3747 C.ar    1  UNL1        0.0086
     34 C           9.8666    4.3020    4.3871 C.ar    1  UNL1        0.1625
     35 O           9.2123    5.4715    4.6838 O.3     1  UNL1       -0.5031
     36 H           9.5266    6.8550    2.7920 H       1  UNL1        0.0660
     37 H          11.2827    6.4934    3.0228 H       1  UNL1        0.0660
     38 H          10.6405    6.9135    1.4343 H       1  UNL1        0.0660
     39 H          11.2245    2.7768    1.6653 H       1  UNL1        0.0655
     40 H          11.4628    0.9487    3.2861 H       1  UNL1        0.0622
     41 H          11.6046    0.2669    5.6276 H       1  UNL1        0.0317
     42 H           9.8539    0.1911    5.5263 H       1  UNL1        0.0317
     43 H          10.2883    0.1976    7.8305 H       1  UNL1        0.0330
     44 H          12.6637    0.6950    7.7332 H       1  UNL1        0.0560
     45 H          12.3730    2.3898    7.3749 H       1  UNL1        0.0560
     46 H          11.5783    0.9731    9.7139 H       1  UNL1        0.2094
     47 H           9.3684    2.2873    8.6659 H       1  UNL1        0.0335
     48 H           7.3184    2.4134    7.4624 H       1  UNL1        0.0564
     49 H           8.0007    1.6735    6.0094 H       1  UNL1        0.0564
     50 H           6.6363   -0.0971    5.8693 H       1  UNL1        0.0937
     51 H           3.5137    1.5140    6.6850 H       1  UNL1        0.0587
     52 H           4.3640    0.6212    5.4367 H       1  UNL1        0.0587
     53 H           3.3506   -0.4945    8.1270 H       1  UNL1        0.0643
     54 H           2.0932   -1.7810    6.7190 H       1  UNL1        0.2100
     55 H           4.6816   -1.9918    5.8112 H       1  UNL1        0.0647
     56 H           4.5685   -3.6848    7.1419 H       1  UNL1        0.2100
     57 H           5.9173   -1.3888    8.5676 H       1  UNL1        0.0671
     58 H           6.8414   -3.1156    7.8121 H       1  UNL1        0.2101
     59 H           8.7687    4.0445    6.8727 H       1  UNL1        0.0402
     60 H          11.5287    5.4506    5.8243 H       1  UNL1        0.0658
     61 H          12.4897    7.2186    4.8730 H       1  UNL1        0.0660
     62 H          11.1089    8.0687    5.6676 H       1  UNL1        0.0660
     63 H          12.6272    8.9143    5.3417 H       1  UNL1        0.0660
     64 H          13.1388    8.1593    8.8781 H       1  UNL1        0.2923
     65 H          11.3284    5.7626   10.7506 H       1  UNL1        0.0655
     66 H          10.0558    4.0045    9.6265 H       1  UNL1        0.0622
     67 H           8.9520    5.5053    5.6158 H       1  UNL1        0.2923
@<TRIPOS>BOND
     1     1    36    1
     2     1    37    1
     3     1    38    1
     4     2     1    1
     5     3     2    1
     6     4     3   ar
     7     4    39    1
     8     5     4   ar
     9     5    40    1
    10     6     5   ar
    11     7     6    1
    12     7    41    1
    13     7    42    1
    14     8     7    1
    15     9    44    1
    16     9    45    1
    17    10     9    1
    18    10    46    1
    19    11     8    1
    20    12    48    1
    21    12    49    1
    22    13    12    1
    23    15    14    1
    24    16    15    1
    25    16    51    1
    26    16    52    1
    27    17    16    1
    28    17    53    1
    29    18    17    1
    30    18    54    1
    31    19    17    1
    32    19    55    1
    33    20    19    1
    34    20    56    1
    35    21    19    1
    36    21    14    1
    37    21    57    1
    38    22    21    1
    39    22    58    1
    40    23    11    1
    41    23    59    1
    42    24    23    1
    43    25    24   ar
    44    25    60    1
    45    26    25   ar
    46    27    26    1
    47    28    27    1
    48    28    61    1
    49    28    62    1
    50    28    63    1
    51    29    26   ar
    52    30    29    1
    53    30    64    1
    54    31    29   ar
    55    31    65    1
    56    32    31   ar
    57    32    24   ar
    58    32    66    1
    59    33    23    1
    60    33     6   ar
    61    34    33   ar
    62    34     3   ar
    63    35    34    1
    64    35    67    1
    65     8     9    1
    66     8    43    1
    67    11    12    1
    68    11    47    1
    69    14    50    1
    70    14    13    1
@<TRIPOS>MOLECULE
mol_46_akc_tswj2010174124
>46.sdf
 59 62 0 0 0
SMALL
GASTEIGER

@<TRIPOS>ATOM
      1 C           5.6180    9.1960    2.1858 C.3     1  UNL1        0.0788
      2 O           4.7626    8.1544    1.7242 O.3     1  UNL1       -0.4951
      3 C           4.9389    6.9186    2.2735 C.ar    1  UNL1        0.1201
      4 C           5.5662    6.6474    3.4865 C.ar    1  UNL1       -0.0195
      5 C           5.6416    5.3334    3.9633 C.ar    1  UNL1       -0.0501
      6 C           5.0662    4.2741    3.2432 C.ar    1  UNL1       -0.0025
      7 C           5.0989    2.8631    3.7572 C.3     1  UNL1        0.0001
      8 N           4.5374    2.7105    5.1559 N.4     1  UNL1        0.2808
      9 C           4.6617    1.3205    5.7106 C.3     1  UNL1        0.0156
     10 C           3.3334    0.6774    5.3659 C.3     1  UNL1        0.0156
     11 N           2.3333    1.8121    5.4480 N.4     1  UNL1        0.2808
     12 C           1.3354    1.6502    6.5855 C.3     1  UNL1        0.0001
     13 C           0.4954    0.3994    6.4976 C.ar    1  UNL1       -0.0025
     14 C           0.5355   -0.5450    7.5315 C.ar    1  UNL1       -0.0501
     15 C          -0.2694   -1.6892    7.4905 C.ar    1  UNL1       -0.0195
     16 C          -1.1298   -1.9046    6.4144 C.ar    1  UNL1        0.1201
     17 O          -1.9617   -2.9755    6.2567 O.3     1  UNL1       -0.4951
     18 C          -1.9120   -4.0009    7.2434 C.3     1  UNL1        0.0788
     19 C          -1.1916   -0.9531    5.3935 C.ar    1  UNL1       -0.0195
     20 C          -0.3904    0.1910    5.4306 C.ar    1  UNL1       -0.0501
     21 C           3.1013    3.1260    5.3531 C.3     1  UNL1        0.0256
     22 C           2.8752    4.1281    6.4835 C.ar    1  UNL1        0.0495
     23 C           3.8485    4.4791    7.4416 C.ar    1  UNL1       -0.0474
     24 C           3.5580    5.3766    8.4758 C.ar    1  UNL1       -0.0611
     25 C           2.2821    5.9082    8.6080 C.ar    1  UNL1       -0.0617
     26 C           1.3074    5.5944    7.6714 C.ar    1  UNL1       -0.0611
     27 C           1.6133    4.7540    6.5975 C.ar    1  UNL1       -0.0474
     28 C           4.4726    4.5516    2.0042 C.ar    1  UNL1       -0.0501
     29 C           4.4027    5.8647    1.5343 C.ar    1  UNL1       -0.0195
     30 H           5.4631    9.4042    3.2490 H       1  UNL1        0.0660
     31 H           6.6658    8.9538    1.9798 H       1  UNL1        0.0660
     32 H           5.3646   10.1063    1.6344 H       1  UNL1        0.0660
     33 H           6.0032    7.4430    4.0840 H       1  UNL1        0.0654
     34 H           6.1773    5.1759    4.8972 H       1  UNL1        0.0623
     35 H           4.5363    2.1808    3.1107 H       1  UNL1        0.0869
     36 H           6.1412    2.5231    3.7958 H       1  UNL1        0.0869
     37 H           5.1335    3.3341    5.7004 H       1  UNL1        0.2104
     38 H           4.7816    1.4225    6.7952 H       1  UNL1        0.0870
     39 H           5.5327    0.8147    5.2860 H       1  UNL1        0.0870
     40 H           3.3168    0.3280    4.3245 H       1  UNL1        0.0870
     41 H           3.0695   -0.1429    6.0346 H       1  UNL1        0.0870
     42 H           1.7447    1.7669    4.6082 H       1  UNL1        0.2104
     43 H           1.9032    1.6924    7.5215 H       1  UNL1        0.0869
     44 H           0.6329    2.4828    6.5412 H       1  UNL1        0.0869
     45 H           1.1690   -0.4048    8.4099 H       1  UNL1        0.0623
     46 H          -0.2204   -2.3868    8.3218 H       1  UNL1        0.0654
     47 H          -0.9069   -4.4420    7.2954 H       1  UNL1        0.0660
     48 H          -2.2180   -3.6176    8.2244 H       1  UNL1        0.0660
     49 H          -2.6081   -4.7868    6.9555 H       1  UNL1        0.0660
     50 H          -1.8924   -1.1097    4.5724 H       1  UNL1        0.0654
     51 H          -0.5190    0.9169    4.6338 H       1  UNL1        0.0623
     52 H           2.7629    3.5903    4.4190 H       1  UNL1        0.1531
     53 H           4.8660    4.1002    7.4443 H       1  UNL1        0.0624
     54 H           4.3289    5.6638    9.1917 H       1  UNL1        0.0618
     55 H           2.0525    6.5817    9.4334 H       1  UNL1        0.0618
     56 H           0.3084    6.0178    7.7777 H       1  UNL1        0.0618
     57 H           0.8189    4.5817    5.8700 H       1  UNL1        0.0624
     58 H           4.0698    3.7638    1.3691 H       1  UNL1        0.0623
     59 H           3.9421    6.0750    0.5687 H       1  UNL1        0.0654
@<TRIPOS>UNITY_ATOM_ATTR
8 1
charge 1
11 1
charge 1
@<TRIPOS>BOND
     1     1    30    1
     2     1    31    1
     3     1    32    1
     4     2     1    1
     5     3     2    1
     6     4     3   ar
     7     4    33    1
     8     5     4   ar
     9     5    34    1
    10     6     5   ar
    11     7     6    1
    12     7    35    1
    13     7    36    1
    14     8     7    1
    15     8    37    1
    16     9     8    1
    17     9    38    1
    18     9    39    1
    19    10     9    1
    20    10    40    1
    21    10    41    1
    22    11    10    1
    23    11    42    1
    24    12    11    1
    25    12    43    1
    26    12    44    1
    27    13    12    1
    28    14    13   ar
    29    14    45    1
    30    15    14   ar
    31    15    46    1
    32    16    15   ar
    33    17    16    1
    34    18    17    1
    35    18    47    1
    36    18    48    1
    37    18    49    1
    38    19    16   ar
    39    19    50    1
    40    20    19   ar
    41    20    13   ar
    42    20    51    1
    43    21    11    1
    44    21     8    1
    45    21    52    1
    46    22    21    1
    47    23    22   ar
    48    23    53    1
    49    24    23   ar
    50    24    54    1
    51    25    24   ar
    52    25    55    1
    53    26    25   ar
    54    26    56    1
    55    27    26   ar
    56    27    22   ar
    57    27    57    1
    58    28     6   ar
    59    28    58    1
    60    29    28   ar
    61    29     3   ar
    62    29    59    1
@<TRIPOS>MOLECULE
mol_470_akc_aac00557_13
>454.sdf
 49 51 0 0 0
SMALL
GASTEIGER

@<TRIPOS>ATOM
      1 CL        -10.3030   -1.0428    3.7015 Cl      1  UNL1       -0.0835
      2 C          -8.9173   -1.9969    3.3474 C.ar    1  UNL1        0.0430
      3 C          -8.5643   -3.0403    4.1932 C.ar    1  UNL1       -0.0173
      4 C          -7.4502   -3.8216    3.9440 C.ar    1  UNL1        0.0741
      5 N          -7.1992   -4.7907    4.8297 N.ar    1  UNL1       -0.2548
      6 C          -6.1057   -5.5371    4.6415 C.ar    1  UNL1        0.0300
      7 C          -5.2372   -5.3742    3.5841 C.ar    1  UNL1       -0.0221
      8 C          -5.5035   -4.4050    2.6037 C.ar    1  UNL1        0.0378
      9 N          -4.6028   -4.1934    1.5155 N.pl3   1  UNL1       -0.3433
     10 C          -3.6041   -5.2459    1.3153 C.3     1  UNL1        0.0092
     11 C          -2.7846   -5.0915    0.0359 C.3     1  UNL1       -0.0361
     12 C          -1.6928   -6.1781   -0.0434 C.3     1  UNL1       -0.0360
     13 C          -2.2546   -7.6037   -0.0828 C.3     1  UNL1        0.0119
     14 N          -1.2169   -8.6109   -0.0133 N.am    1  UNL1       -0.3118
     15 C          -0.7769   -9.0934    1.1967 C.2     1  UNL1        0.2369
     16 O          -1.1796   -8.6929    2.2821 O.2     1  UNL1       -0.2708
     17 C           0.2465  -10.1614    1.0619 C.2     1  UNL1        0.0007
     18 C           0.7949  -10.7005    2.1628 C.2     1  UNL1       -0.0497
     19 C           1.8471  -11.7294    2.1600 C.ar    1  UNL1       -0.0249
     20 C           2.8030  -11.8223    1.1387 C.ar    1  UNL1       -0.0546
     21 C           3.8271  -12.7711    1.2039 C.ar    1  UNL1       -0.0612
     22 C           3.9147  -13.6307    2.2959 C.ar    1  UNL1       -0.0617
     23 C           2.9788  -13.5435    3.3231 C.ar    1  UNL1       -0.0612
     24 C           1.9531  -12.5963    3.2573 C.ar    1  UNL1       -0.0546
     25 C          -6.6403   -3.5644    2.8048 C.ar    1  UNL1        0.0213
     26 C          -7.0151   -2.4942    1.9558 C.ar    1  UNL1       -0.0494
     27 C          -8.1493   -1.7206    2.2265 C.ar    1  UNL1       -0.0426
     28 H          -9.1631   -3.2521    5.0772 H       1  UNL1        0.0653
     29 H          -5.9269   -6.3049    5.3958 H       1  UNL1        0.0830
     30 H          -4.3782   -6.0297    3.5465 H       1  UNL1        0.0651
     31 H          -5.1099   -3.9479    0.6686 H       1  UNL1        0.1461
     32 H          -2.9040   -5.2442    2.1592 H       1  UNL1        0.0461
     33 H          -4.1268   -6.2045    1.2739 H       1  UNL1        0.0461
     34 H          -3.4352   -5.1498   -0.8446 H       1  UNL1        0.0281
     35 H          -2.3073   -4.1042    0.0137 H       1  UNL1        0.0281
     36 H          -1.0793   -6.0091   -0.9369 H       1  UNL1        0.0281
     37 H          -1.0167   -6.0696    0.8146 H       1  UNL1        0.0281
     38 H          -2.9342   -7.7892    0.7533 H       1  UNL1        0.0462
     39 H          -2.8141   -7.7680   -1.0086 H       1  UNL1        0.0462
     40 H          -0.8430   -8.9800   -0.8774 H       1  UNL1        0.1490
     41 H           0.5238  -10.4772    0.0657 H       1  UNL1        0.0669
     42 H           0.4642  -10.3704    3.1471 H       1  UNL1        0.0625
     43 H           2.7806  -11.1459    0.2895 H       1  UNL1        0.0623
     44 H           4.5638  -12.8281    0.4070 H       1  UNL1        0.0618
     45 H           4.7180  -14.3613    2.3507 H       1  UNL1        0.0618
     46 H           3.0498  -14.2067    4.1810 H       1  UNL1        0.0618
     47 H           1.2375  -12.5405    4.0751 H       1  UNL1        0.0623
     48 H          -6.4197   -2.2462    1.0815 H       1  UNL1        0.0625
     49 H          -8.4163   -0.9013    1.5671 H       1  UNL1        0.0632
@<TRIPOS>BOND
     1     2     1    1
     2     3     2   ar
     3     3    28    1
     4     4     3   ar
     5     5     4   ar
     6     6     5   ar
     7     6    29    1
     8     7     6   ar
     9     7    30    1
    10     8     7   ar
    11     9     8    1
    12     9    31    1
    13    10     9    1
    14    10    32    1
    15    10    33    1
    16    11    10    1
    17    11    34    1
    18    11    35    1
    19    12    11    1
    20    12    36    1
    21    12    37    1
    22    13    12    1
    23    13    38    1
    24    13    39    1
    25    14    13    1
    26    14    40    1
    27    15    14   am
    28    16    15    2
    29    17    15    1
    30    17    41    1
    31    18    17    2
    32    18    42    1
    33    19    18    1
    34    20    19   ar
    35    20    43    1
    36    21    20   ar
    37    21    44    1
    38    22    21   ar
    39    22    45    1
    40    23    22   ar
    41    23    46    1
    42    24    23   ar
    43    24    19   ar
    44    24    47    1
    45    25     8   ar
    46    25     4   ar
    47    26    25   ar
    48    26    48    1
    49    27    26   ar
    50    27     2   ar
    51    27    49    1
@<TRIPOS>MOLECULE
mol_471_akc_jexppara201307021
>455.sdf
 50 55 0 0 0
SMALL
GASTEIGER

@<TRIPOS>ATOM
      1 C          11.4629    0.5969   21.2358 C.3     1  UNL1        0.0788
      2 O          11.4966   -0.0611   19.9704 O.3     1  UNL1       -0.4944
      3 C          11.8743    0.7185   18.9160 C.ar    1  UNL1        0.1312
      4 C          12.8289    1.7390   19.0305 C.ar    1  UNL1       -0.0163
      5 C          13.2464    2.4811   17.9145 C.ar    1  UNL1       -0.0466
      6 C          14.4705    3.3484   18.0061 C.3     1  UNL1       -0.0396
      7 C          12.6225    2.2763   16.6801 C.ar    1  UNL1       -0.0517
      8 C          11.7100    1.2329   16.5610 C.ar    1  UNL1        0.0081
      9 C          11.3952    0.4052   17.6449 C.ar    1  UNL1        0.0680
     10 C          10.7828   -0.9117   17.3295 C.2     1  UNL1        0.1988
     11 O           9.9405   -1.4606   18.0095 O.2     1  UNL1       -0.2890
     12 C          11.3434   -1.5457   16.0961 C.3     1  UNL1        0.1588
     13 O          10.4924   -1.5115   14.9664 O.3     1  UNL1       -0.3477
     14 C          11.5989   -0.5961   14.8985 C.3     1  UNL1        0.1713
     15 C          11.2814    0.8296   15.2106 C.3     1  UNL1        0.2047
     16 O          10.8438    1.6248   14.3963 O.3     1  UNL1       -0.2153
     17 C          12.7474   -0.7854   13.8948 C.ar    1  UNL1        0.0357
     18 C          12.5691   -0.8325   12.4731 C.ar    1  UNL1        0.1377
     19 O          11.4184   -1.0244   11.7662 O.3     1  UNL1       -0.4940
     20 C          10.1342   -1.2297   12.3021 C.3     1  UNL1        0.0788
     21 C          13.6751   -0.6367   11.5912 C.ar    1  UNL1        0.0726
     22 C          14.9500   -0.3844   12.0967 C.ar    1  UNL1        0.0345
     23 C          15.1607   -0.3926   13.4660 C.ar    1  UNL1       -0.0470
     24 C          14.0994   -0.6263   14.3614 C.ar    1  UNL1       -0.0401
     25 C          14.5223   -0.5999   15.8121 C.3     1  UNL1       -0.0392
     26 C          16.1022   -0.0969   11.2099 C.2     1  UNL1        0.1954
     27 O          17.0710    0.5396   11.5991 O.2     1  UNL1       -0.2891
     28 C          16.0379   -0.6127    9.8319 C.3     1  UNL1        0.1552
     29 O          15.5544   -1.9662    9.7329 O.3     1  UNL1       -0.3515
     30 C          14.6880   -0.9204    9.2608 C.3     1  UNL1        0.1553
     31 C          13.5050   -0.6100   10.0984 C.2     1  UNL1        0.1988
     32 O          12.4795   -0.2589    9.5347 O.2     1  UNL1       -0.2890
     33 H          12.4645    0.6090   21.6764 H       1  UNL1        0.0660
     34 H          11.0584    1.6134   21.1644 H       1  UNL1        0.0660
     35 H          10.8089    0.0254   21.9012 H       1  UNL1        0.0660
     36 H          13.3299    1.9126   19.9829 H       1  UNL1        0.0657
     37 H          14.5175    4.0629   17.1801 H       1  UNL1        0.0278
     38 H          14.4838    3.9065   18.9464 H       1  UNL1        0.0278
     39 H          15.3618    2.7112   17.9586 H       1  UNL1        0.0278
     40 H          12.9379    2.8294   15.7964 H       1  UNL1        0.0624
     41 H          11.9448   -2.4318   16.2411 H       1  UNL1        0.0714
     42 H          10.0742   -2.1996   12.7999 H       1  UNL1        0.0660
     43 H           9.8139   -0.3923   12.9233 H       1  UNL1        0.0660
     44 H           9.4333   -1.2719   11.4607 H       1  UNL1        0.0660
     45 H          16.1638   -0.1952   13.8496 H       1  UNL1        0.0627
     46 H          15.3681   -1.2823   15.9588 H       1  UNL1        0.0278
     47 H          14.8443    0.4080   16.0917 H       1  UNL1        0.0278
     48 H          13.7515   -0.9257   16.5043 H       1  UNL1        0.0278
     49 H          16.8273   -0.3092    9.1569 H       1  UNL1        0.0710
     50 H          14.5454   -0.8511    8.1902 H       1  UNL1        0.0710
@<TRIPOS>BOND
     1     1    33    1
     2     1    34    1
     3     1    35    1
     4     2     1    1
     5     4     3   ar
     6     5     4   ar
     7     6    37    1
     8     6    38    1
     9     6    39    1
    10     7     5   ar
    11     8     7   ar
    12     9     8   ar
    13     9     3   ar
    14    10     9    1
    15    12    10    1
    16    13    12    1
    17    14    13    1
    18    14    12    1
    19    15    14    1
    20    15     8    1
    21    18    17   ar
    22    19    18    1
    23    20    19    1
    24    20    42    1
    25    20    43    1
    26    20    44    1
    27    21    18   ar
    28    22    21   ar
    29    23    22   ar
    30    23    45    1
    31    24    23   ar
    32    24    17   ar
    33    25    24    1
    34    25    46    1
    35    25    47    1
    36    25    48    1
    37    26    22    1
    38    27    26    2
    39    28    26    1
    40    28    49    1
    41    29    28    1
    42    30    29    1
    43    30    28    1
    44    30    50    1
    45    31    30    1
    46    31    21    1
    47    32    31    2
    48     3     2    1
    49     4    36    1
    50     6     5    1
    51     7    40    1
    52    11    10    2
    53    12    41    1
    54    14    17    1
    55    16    15    2
@<TRIPOS>MOLECULE
mol_472_akc_jbmcl201306060
>456.sdf
 44 46 0 0 0
SMALL
GASTEIGER

@<TRIPOS>ATOM
      1 C           4.8804    0.0207    3.8858 C.3     1  UNL1       -0.0121
      2 S           4.5864   -1.7581    4.0669 S.3     1  UNL1       -0.1091
      3 C           3.8813   -2.1310    2.4671 C.ar    1  UNL1        0.1023
      4 N           3.7346   -1.1297    1.5837 N.ar    1  UNL1       -0.2083
      5 C           3.1962   -1.4455    0.4088 C.ar    1  UNL1        0.2141
      6 N           3.0392   -0.4318   -0.5137 N.pl3   1  UNL1       -0.3274
      7 N           2.8349   -2.6730    0.0407 N.ar    1  UNL1       -0.2152
      8 C           2.9917   -3.6552    0.9483 C.ar    1  UNL1        0.0700
      9 C           2.5595   -5.0080    0.5649 C.2     1  UNL1       -0.0356
     10 C           2.0697   -5.3055   -0.6491 C.2     1  UNL1       -0.0526
     11 C           1.5917   -6.6304   -1.0610 C.ar    1  UNL1       -0.0247
     12 C           0.9512   -7.5130   -0.1834 C.ar    1  UNL1       -0.0511
     13 C           0.4147   -8.7158   -0.6539 C.ar    1  UNL1       -0.0194
     14 C           0.4905   -9.0400   -2.0079 C.ar    1  UNL1        0.1210
     15 O          -0.1413  -10.1987   -2.3733 O.3     1  UNL1       -0.4874
     16 C          -0.5034  -10.2770   -3.7534 C.3     1  UNL1        0.1146
     17 C          -1.6109  -11.2830   -3.9502 C.ar    1  UNL1       -0.0104
     18 C          -2.8017  -11.1794   -3.2148 C.ar    1  UNL1       -0.0554
     19 C          -3.8618  -12.0530   -3.4602 C.ar    1  UNL1       -0.0614
     20 C          -3.7433  -13.0342   -4.4426 C.ar    1  UNL1       -0.0617
     21 C          -2.5630  -13.1489   -5.1747 C.ar    1  UNL1       -0.0614
     22 C          -1.5018  -12.2761   -4.9311 C.ar    1  UNL1       -0.0554
     23 C           1.1689   -8.1877   -2.8790 C.ar    1  UNL1       -0.0194
     24 C           1.7018   -6.9845   -2.4101 C.ar    1  UNL1       -0.0511
     25 C           3.5178   -3.4299    2.1978 C.ar    1  UNL1       -0.0042
     26 H           5.5665    0.2168    3.0570 H       1  UNL1        0.0344
     27 H           3.9398    0.5539    3.7211 H       1  UNL1        0.0344
     28 H           5.3350    0.4009    4.8039 H       1  UNL1        0.0344
     29 H           3.0278   -0.8157   -1.4478 H       1  UNL1        0.1452
     30 H           3.6893    0.3161   -0.3246 H       1  UNL1        0.1452
     31 H           2.6536   -5.7756    1.3266 H       1  UNL1        0.0639
     32 H           2.0007   -4.5309   -1.4116 H       1  UNL1        0.0624
     33 H           0.8282   -7.2654    0.8674 H       1  UNL1        0.0625
     34 H          -0.0964   -9.3843    0.0345 H       1  UNL1        0.0654
     35 H          -0.8794   -9.3154   -4.1281 H       1  UNL1        0.0748
     36 H           0.3813  -10.5699   -4.3314 H       1  UNL1        0.0748
     37 H          -2.9081  -10.4088   -2.4545 H       1  UNL1        0.0621
     38 H          -4.7833  -11.9600   -2.8915 H       1  UNL1        0.0618
     39 H          -4.5728  -13.7080   -4.6400 H       1  UNL1        0.0618
     40 H          -2.4718  -13.9124   -5.9425 H       1  UNL1        0.0618
     41 H          -0.5932  -12.3707   -5.5211 H       1  UNL1        0.0621
     42 H           1.2889   -8.4218   -3.9315 H       1  UNL1        0.0654
     43 H           2.1966   -6.3199   -3.1154 H       1  UNL1        0.0625
     44 H           3.6404   -4.2205    2.9256 H       1  UNL1        0.0665
@<TRIPOS>BOND
     1     1    26    1
     2     1    27    1
     3     1    28    1
     4     2     1    1
     5     3     2    1
     6     4     3   ar
     7     5     4   ar
     8     6     5    1
     9     6    29    1
    10     6    30    1
    11     7     5   ar
    12     8     7   ar
    13     9     8    1
    14     9    31    1
    15    10     9    2
    16    10    32    1
    17    11    10    1
    18    12    11   ar
    19    12    33    1
    20    13    12   ar
    21    13    34    1
    22    14    13   ar
    23    15    14    1
    24    16    15    1
    25    16    35    1
    26    16    36    1
    27    17    16    1
    28    18    17   ar
    29    18    37    1
    30    19    18   ar
    31    19    38    1
    32    20    19   ar
    33    20    39    1
    34    21    20   ar
    35    21    40    1
    36    22    21   ar
    37    22    17   ar
    38    22    41    1
    39    23    14   ar
    40    23    42    1
    41    24    23   ar
    42    24    11   ar
    43    24    43    1
    44    25     8   ar
    45    25     3   ar
    46    25    44    1
@<TRIPOS>MOLECULE
mol_473_akc_jexppara201306015
>457.sdf
 89 89 0 0 0
SMALL
GASTEIGER

@<TRIPOS>ATOM
      1 C           0.6793   -2.1019    0.2242 C.3     1  UNL1       -0.0652
      2 C           2.1061   -1.5956    0.3765 C.3     1  UNL1       -0.0545
      3 C           2.2288   -0.2262   -0.2968 C.3     1  UNL1       -0.0375
      4 C           3.6444    0.3485   -0.2119 C.3     1  UNL1        0.0123
      5 N           3.8801    1.6377   -0.9314 N.pl3   1  UNL1       -0.3264
      6 C           2.7276    2.5601   -0.9421 C.3     1  UNL1        0.0123
      7 C           2.7239    3.4695    0.2872 C.3     1  UNL1       -0.0372
      8 C           1.6998    4.5925    0.1602 C.3     1  UNL1       -0.0516
      9 C           0.2869    4.0364    0.1124 C.3     1  UNL1       -0.0530
     10 C          -0.7248    5.1610    0.1233 C.3     1  UNL1       -0.0531
     11 C          -2.1212    4.5722    0.1137 C.3     1  UNL1       -0.0531
     12 C          -3.1310    5.6967    0.1304 C.3     1  UNL1       -0.0531
     13 C          -4.5304    5.1225    0.1225 C.3     1  UNL1       -0.0530
     14 C          -5.5263    6.2601    0.1278 C.3     1  UNL1       -0.0510
     15 C          -6.9364    5.7026    0.1027 C.3     1  UNL1       -0.0290
     16 C          -7.9375    6.8294    0.1361 C.3     1  UNL1        0.0549
     17 O          -7.7191    7.7027   -0.9792 O.3     1  UNL1       -0.3274
     18 P          -8.8337    9.0257   -0.9654 P.3     1  UNL1        0.2127
     19 O         -10.0407    8.0914   -1.0482 O.co2   1  UNL1       -0.4373
     20 O          -8.2559    9.5912    0.3322 O.2     1  UNL1       -0.5172
     21 O          -9.9482   10.3488   -0.9517 O.3     1  UNL1       -0.3221
     22 C         -10.3113   10.7079   -2.2663 C.3     1  UNL1        0.0947
     23 C         -11.2345   11.9105   -2.1829 C.3     1  UNL1       -0.0064
     24 N         -10.5990   13.1525   -1.4871 N.4     1  UNL1        0.2385
     25 C         -10.2443   12.8386   -0.0190 C.3     1  UNL1       -0.0417
     26 C          -9.3414   13.5942   -2.2062 C.3     1  UNL1       -0.0417
     27 C         -11.6264   14.2637   -1.4978 C.3     1  UNL1       -0.0417
     28 C           5.1805    2.0709   -1.2918 C.ar    1  UNL1        0.0908
     29 C           6.3836    1.3249   -1.0537 C.ar    1  UNL1        0.1498
     30 C           7.6736    1.6868   -1.5272 C.ar    1  UNL1       -0.0179
     31 C           7.8670    2.8303   -2.2836 C.ar    1  UNL1        0.0592
     32 C           6.7548    3.6141   -2.5372 C.ar    1  UNL1       -0.0179
     33 C           5.4773    3.2719   -2.0240 C.ar    1  UNL1        0.1498
     34 N           4.5578    4.3721   -2.2574 N.pl3   1  UNL1        0.0583
     35 O           4.5294    5.2737   -1.4152 O.2     1  UNL1       -0.1261
     36 O           3.9888    4.4026   -3.3643 O.2     1  UNL1       -0.1261
     37 C           9.2226    3.2518   -2.7773 C.3     1  UNL1        0.4176
     38 F          10.2283    2.4581   -2.3254 F       1  UNL1       -0.1659
     39 F           9.2996    3.2389   -4.1330 F       1  UNL1       -0.1659
     40 F           9.5320    4.5172   -2.3883 F       1  UNL1       -0.1659
     41 N           6.4653    0.1344   -0.2267 N.pl3   1  UNL1        0.0583
     42 O           6.3679    0.2823    0.9980 O.2     1  UNL1       -0.1261
     43 O           6.7217   -0.9341   -0.8057 O.2     1  UNL1       -0.1261
     44 H           0.5459   -3.0619    0.7296 H       1  UNL1        0.0230
     45 H          -0.0309   -1.3868    0.6532 H       1  UNL1        0.0230
     46 H           0.4303   -2.2315   -0.8342 H       1  UNL1        0.0230
     47 H           2.3553   -1.5168    1.4416 H       1  UNL1        0.0263
     48 H           2.8029   -2.3151   -0.0691 H       1  UNL1        0.0263
     49 H           1.9388   -0.3144   -1.3510 H       1  UNL1        0.0280
     50 H           1.5152    0.4381    0.2012 H       1  UNL1        0.0280
     51 H           3.9034    0.4758    0.8450 H       1  UNL1        0.0464
     52 H           4.2562   -0.4296   -0.6675 H       1  UNL1        0.0464
     53 H           2.6564    3.1052   -1.8807 H       1  UNL1        0.0464
     54 H           1.7870    2.0090   -0.9771 H       1  UNL1        0.0464
     55 H           2.5080    2.8760    1.1834 H       1  UNL1        0.0280
     56 H           3.7087    3.9116    0.4605 H       1  UNL1        0.0280
     57 H           1.8025    5.2680    1.0177 H       1  UNL1        0.0266
     58 H           1.8876    5.1932   -0.7387 H       1  UNL1        0.0266
     59 H           0.1370    3.4387   -0.7940 H       1  UNL1        0.0265
     60 H           0.1186    3.3754    0.9711 H       1  UNL1        0.0265
     61 H          -0.5882    5.7857    1.0139 H       1  UNL1        0.0265
     62 H          -0.5832    5.8050   -0.7536 H       1  UNL1        0.0265
     63 H          -2.2651    3.9497   -0.7784 H       1  UNL1        0.0265
     64 H          -2.2654    3.9245    0.9876 H       1  UNL1        0.0265
     65 H          -2.9853    6.3186    1.0224 H       1  UNL1        0.0265
     66 H          -2.9846    6.3436   -0.7436 H       1  UNL1        0.0265
     67 H          -4.6773    4.4985   -0.7676 H       1  UNL1        0.0265
     68 H          -4.6827    4.4826    1.0000 H       1  UNL1        0.0265
     69 H          -5.3813    6.8835    1.0193 H       1  UNL1        0.0266
     70 H          -5.3518    6.9019   -0.7447 H       1  UNL1        0.0266
     71 H          -7.0796    5.1095   -0.8074 H       1  UNL1        0.0287
     72 H          -7.1003    5.0441    0.9640 H       1  UNL1        0.0287
     73 H          -8.9428    6.4006    0.1042 H       1  UNL1        0.0564
     74 H          -7.8282    7.3824    1.0753 H       1  UNL1        0.0564
     75 H          -9.4127   10.9230   -2.8529 H       1  UNL1        0.0618
     76 H         -10.8314    9.8753   -2.7518 H       1  UNL1        0.0618
     77 H         -11.5287   12.2282   -3.1902 H       1  UNL1        0.0838
     78 H         -12.1346   11.6630   -1.6086 H       1  UNL1        0.0838
     79 H          -9.3453   12.2236    0.0251 H       1  UNL1        0.0778
     80 H         -10.0168   13.7873    0.4764 H       1  UNL1        0.0778
     81 H         -11.1090   12.3639    0.4531 H       1  UNL1        0.0778
     82 H          -9.5922   13.7823   -3.2545 H       1  UNL1        0.0778
     83 H          -8.9750   14.5090   -1.7322 H       1  UNL1        0.0778
     84 H          -8.5820   12.8118   -2.1283 H       1  UNL1        0.0778
     85 H         -11.8726   14.4993   -2.5373 H       1  UNL1        0.0778
     86 H         -12.5167   13.9200   -0.9622 H       1  UNL1        0.0778
     87 H         -11.1986   15.1400   -1.0026 H       1  UNL1        0.0778
     88 H           8.5333    1.0574   -1.2846 H       1  UNL1        0.0646
     89 H           6.8741    4.5321   -3.1189 H       1  UNL1        0.0646
@<TRIPOS>UNITY_ATOM_ATTR
19 1
charge -1
24 1
charge 1
@<TRIPOS>BOND
     1     1    44    1
     2     1    45    1
     3     1    46    1
     4     2     1    1
     5     2    47    1
     6     2    48    1
     7     3     2    1
     8     3    49    1
     9     3    50    1
    10     4     3    1
    11     4    51    1
    12     4    52    1
    13     5     4    1
    14     6     5    1
    15     6    53    1
    16     6    54    1
    17     7     6    1
    18     7    55    1
    19     7    56    1
    20     8     7    1
    21     8    57    1
    22     8    58    1
    23     9     8    1
    24     9    59    1
    25     9    60    1
    26    10     9    1
    27    10    61    1
    28    10    62    1
    29    11    10    1
    30    11    63    1
    31    11    64    1
    32    12    11    1
    33    12    65    1
    34    12    66    1
    35    13    12    1
    36    13    67    1
    37    13    68    1
    38    14    13    1
    39    14    69    1
    40    14    70    1
    41    15    14    1
    42    15    71    1
    43    15    72    1
    44    16    15    1
    45    16    73    1
    46    16    74    1
    47    17    16    1
    48    18    17    1
    49    19    18    1
    50    20    18    2
    51    21    18    1
    52    22    21    1
    53    22    75    1
    54    22    76    1
    55    23    22    1
    56    23    77    1
    57    23    78    1
    58    24    23    1
    59    25    24    1
    60    25    79    1
    61    25    80    1
    62    25    81    1
    63    26    24    1
    64    26    82    1
    65    26    83    1
    66    26    84    1
    67    27    24    1
    68    27    85    1
    69    27    86    1
    70    27    87    1
    71    28     5    1
    72    29    28   ar
    73    30    29   ar
    74    30    88    1
    75    31    30   ar
    76    32    31   ar
    77    32    89    1
    78    33    32   ar
    79    33    28   ar
    80    34    33    1
    81    35    34    2
    82    36    34    2
    83    37    31    1
    84    38    37    1
    85    39    37    1
    86    40    37    1
    87    41    29    1
    88    42    41    2
    89    43    41    2
@<TRIPOS>MOLECULE
mol_474_akc_147563662012689297
>458.sdf
 28 29 0 0 0
SMALL
GASTEIGER

@<TRIPOS>ATOM
      1 O           3.6572    3.3081    6.1078 O.3     1  UNL1       -0.3950
      2 C           3.4730    4.0797    4.9308 C.3     1  UNL1        0.0456
      3 C           4.4137    3.6234    3.8276 C.3     1  UNL1       -0.0141
      4 C           4.2024    2.1518    3.4539 C.3     1  UNL1        0.0130
      5 N           5.0968    1.7601    2.3691 N.pl3   1  UNL1       -0.3220
      6 C           6.4298    1.7275    2.6193 C.ar    1  UNL1        0.1819
      7 N           6.9994    1.5699    3.7957 N.ar    1  UNL1       -0.1257
      8 N           8.3675    1.7412    3.7522 N.ar    1  UNL1       -0.1391
      9 C           8.7966    2.0121    2.5368 C.ar    1  UNL1        0.1404
     10 S           7.5551    1.9965    1.3485 S.2     1  UNL1       -0.0303
     11 C          10.1790    2.3354    2.2747 C.ar    1  UNL1        0.0526
     12 C          11.1944    2.3907    3.2179 C.ar    1  UNL1       -0.0382
     13 C          12.4479    2.7890    2.6606 C.ar    1  UNL1        0.0241
     14 C          12.3412    3.0182    1.3077 C.ar    1  UNL1        0.3116
     15 S          10.7753    2.7499    0.7173 S.2     1  UNL1       -0.0126
     16 N          13.3912    3.4458    0.4203 N.pl3   1  UNL1        0.0870
     17 O          14.5041    3.6244    0.9345 O.co2   1  UNL1       -0.5756
     18 O          13.1210    3.6079   -0.7758 O.2     1  UNL1        0.0420
     19 H           4.5900    3.3898    6.3767 H       1  UNL1        0.2094
     20 H           2.4290    3.9833    4.6175 H       1  UNL1        0.0557
     21 H           3.6571    5.1305    5.1766 H       1  UNL1        0.0557
     22 H           4.2765    4.2567    2.9429 H       1  UNL1        0.0302
     23 H           5.4456    3.7721    4.1682 H       1  UNL1        0.0302
     24 H           4.3446    1.4939    4.3193 H       1  UNL1        0.0462
     25 H           3.1706    2.0066    3.1130 H       1  UNL1        0.0462
     26 H           4.8201    2.0960    1.4525 H       1  UNL1        0.1480
     27 H          11.0391    2.1678    4.2694 H       1  UNL1        0.0632
     28 H          13.3648    2.9049    3.2288 H       1  UNL1        0.0691
@<TRIPOS>UNITY_ATOM_ATTR
16 1
charge 1
17 1
charge -1
@<TRIPOS>BOND
     1     1    19    1
     2     2     1    1
     3     2    20    1
     4     2    21    1
     5     3     2    1
     6     3    22    1
     7     3    23    1
     8     4     3    1
     9     4    24    1
    10     4    25    1
    11     5     4    1
    12     5    26    1
    13     6     5    1
    14     7     6   ar
    15     8     7   ar
    16     9     8   ar
    17    10     9   ar
    18    10     6   ar
    19    11     9    1
    20    12    11   ar
    21    12    27    1
    22    13    12   ar
    23    13    28    1
    24    14    13   ar
    25    15    14   ar
    26    15    11   ar
    27    16    14    1
    28    17    16    1
    29    18    16    2
@<TRIPOS>MOLECULE
mol_475_akc_147563662012689297
>459.sdf
 31 32 0 0 0
SMALL
GASTEIGER

@<TRIPOS>ATOM
      1 C           0.9057    3.9648    0.9421 C.3     1  UNL1        0.0364
      2 O           2.3241    3.9200    0.9998 O.3     1  UNL1       -0.3829
      3 C           2.8929    3.4441   -0.2155 C.3     1  UNL1        0.0487
      4 C           4.4106    3.4656   -0.0995 C.3     1  UNL1       -0.0139
      5 C           4.9163    2.6065    1.0645 C.3     1  UNL1        0.0130
      6 N           6.3764    2.5909    1.1035 N.pl3   1  UNL1       -0.3220
      7 C           7.0126    3.7453    1.4257 C.ar    1  UNL1        0.1819
      8 N           6.5225    4.7321    2.1451 N.ar    1  UNL1       -0.1257
      9 N           7.3463    5.8373    2.1665 N.ar    1  UNL1       -0.1391
     10 C           8.4481    5.6496    1.4698 C.ar    1  UNL1        0.1404
     11 S           8.5845    4.0701    0.8096 S.2     1  UNL1       -0.0303
     12 C           9.4030    6.7121    1.2696 C.ar    1  UNL1        0.0526
     13 C           9.2621    8.0213    1.7056 C.ar    1  UNL1       -0.0382
     14 C          10.3579    8.8543    1.3275 C.ar    1  UNL1        0.0241
     15 C          11.3004    8.1454    0.6172 C.ar    1  UNL1        0.3116
     16 S          10.8791    6.5153    0.4120 S.2     1  UNL1       -0.0126
     17 N          12.5283    8.6571    0.0718 N.pl3   1  UNL1        0.0870
     18 O          12.7605    9.8574    0.2709 O.co2   1  UNL1       -0.5756
     19 O          13.2620    7.8809   -0.5545 O.2     1  UNL1        0.0420
     20 H           0.5761    4.6460    0.1520 H       1  UNL1        0.0523
     21 H           0.4997    2.9634    0.7728 H       1  UNL1        0.0523
     22 H           0.5351    4.3358    1.9013 H       1  UNL1        0.0523
     23 H           2.5407    2.4259   -0.4152 H       1  UNL1        0.0560
     24 H           2.5853    4.0939   -1.0426 H       1  UNL1        0.0560
     25 H           4.8551    3.1222   -1.0413 H       1  UNL1        0.0302
     26 H           4.7333    4.5037    0.0465 H       1  UNL1        0.0302
     27 H           4.5126    2.9499    2.0244 H       1  UNL1        0.0462
     28 H           4.5720    1.5743    0.9298 H       1  UNL1        0.0462
     29 H           6.8098    2.0295    0.3788 H       1  UNL1        0.1480
     30 H           8.3983    8.3675    2.2654 H       1  UNL1        0.0632
     31 H          10.4380    9.9101    1.5629 H       1  UNL1        0.0691
@<TRIPOS>UNITY_ATOM_ATTR
17 1
charge 1
18 1
charge -1
@<TRIPOS>BOND
     1     1    20    1
     2     1    21    1
     3     1    22    1
     4     2     1    1
     5     3     2    1
     6     3    23    1
     7     3    24    1
     8     4     3    1
     9     4    25    1
    10     4    26    1
    11     5     4    1
    12     5    27    1
    13     5    28    1
    14     6     5    1
    15     6    29    1
    16     7     6    1
    17     8     7   ar
    18     9     8   ar
    19    10     9   ar
    20    11    10   ar
    21    11     7   ar
    22    12    10    1
    23    13    12   ar
    24    13    30    1
    25    14    13   ar
    26    14    31    1
    27    15    14   ar
    28    16    15   ar
    29    16    12   ar
    30    17    15    1
    31    18    17    1
    32    19    17    2
@<TRIPOS>MOLECULE
mol_476_akc_cmdc201300176
>460.sdf
 60 63 0 0 0
SMALL
GASTEIGER

@<TRIPOS>ATOM
      1 C           3.8751   -1.7406   -0.5031 C.3     1  UNL1       -0.0613
      2 C           3.1306   -0.5028   -0.0162 C.3     1  UNL1       -0.0305
      3 C           3.2891    0.6466   -0.9809 C.ar    1  UNL1       -0.0475
      4 C           2.3055    0.9210   -1.9332 C.ar    1  UNL1       -0.0566
      5 C           2.5015    1.9240   -2.8882 C.ar    1  UNL1       -0.0376
      6 C           3.7077    2.6379   -2.9350 C.ar    1  UNL1        0.0469
      7 C           4.6734    2.3934   -1.9544 C.ar    1  UNL1       -0.0376
      8 C           4.4602    1.4123   -0.9796 C.ar    1  UNL1       -0.0566
      9 N           3.9676    3.5441   -4.0219 N.ar    1  UNL1       -0.3128
     10 C           4.6437    4.7773   -3.9444 C.ar    1  UNL1        0.0295
     11 C           5.2158    5.3411   -2.6831 C.3     1  UNL1       -0.0234
     12 C           4.5613    5.4046   -5.1850 C.ar    1  UNL1        0.0184
     13 C           5.0688    6.7511   -5.5804 C.3     1  UNL1       -0.0041
     14 N           6.5020    6.7355   -6.0903 N.4     1  UNL1        0.2397
     15 C           6.6138    5.9528   -7.3953 C.3     1  UNL1       -0.0223
     16 C           8.0331    5.9170   -7.9602 C.3     1  UNL1        0.0341
     17 S           8.6620    7.5767   -8.3140 S.3     1  UNL1       -0.1502
     18 C           8.4624    8.2637   -6.6504 C.3     1  UNL1        0.0341
     19 C           7.0152    8.1666   -6.1734 C.3     1  UNL1       -0.0223
     20 C           3.8599    4.5250   -6.0384 C.ar    1  UNL1       -0.0274
     21 C           3.5734    3.3552   -5.3609 C.ar    1  UNL1        0.0545
     22 C           3.0139    2.1291   -5.9705 C.ar    1  UNL1       -0.0011
     23 C           3.4744    0.8509   -5.6317 C.ar    1  UNL1       -0.0516
     24 C           2.9045   -0.2988   -6.1949 C.ar    1  UNL1       -0.0477
     25 C           1.8982   -0.2018   -7.1547 C.ar    1  UNL1        0.0077
     26 S           1.1058   -1.5888   -7.9555 S.3     1  UNL1       -0.1286
     27 C           1.7097   -3.0193   -7.0196 C.3     1  UNL1       -0.0135
     28 C           1.4778    1.0760   -7.5428 C.ar    1  UNL1       -0.0477
     29 C           2.0216    2.2244   -6.9536 C.ar    1  UNL1       -0.0516
     30 H           3.7455   -2.5646    0.2035 H       1  UNL1        0.0233
     31 H           3.5023   -2.0671   -1.4794 H       1  UNL1        0.0233
     32 H           4.9487   -1.5468   -0.6031 H       1  UNL1        0.0233
     33 H           2.0682   -0.7400    0.1159 H       1  UNL1        0.0311
     34 H           3.5053   -0.2066    0.9706 H       1  UNL1        0.0311
     35 H           1.3849    0.3391   -1.9569 H       1  UNL1        0.0621
     36 H           1.7023    2.1076   -3.6024 H       1  UNL1        0.0638
     37 H           5.6399    2.8822   -1.9544 H       1  UNL1        0.0638
     38 H           5.2350    1.2174   -0.2413 H       1  UNL1        0.0621
     39 H           4.5305    5.2228   -1.8389 H       1  UNL1        0.0292
     40 H           6.1791    4.8769   -2.4538 H       1  UNL1        0.0292
     41 H           5.4086    6.4141   -2.7805 H       1  UNL1        0.0292
     42 H           4.4498    7.1881   -6.3741 H       1  UNL1        0.0868
     43 H           5.0370    7.4342   -4.7250 H       1  UNL1        0.0868
     44 H           7.0495    6.2312   -5.3800 H       1  UNL1        0.2037
     45 H           5.9040    6.3929   -8.1063 H       1  UNL1        0.0823
     46 H           6.3148    4.9237   -7.1774 H       1  UNL1        0.0823
     47 H           8.0399    5.3412   -8.8913 H       1  UNL1        0.0429
     48 H           8.7162    5.4209   -7.2623 H       1  UNL1        0.0429
     49 H           9.1365    7.7384   -5.9660 H       1  UNL1        0.0429
     50 H           8.7697    9.3142   -6.6753 H       1  UNL1        0.0429
     51 H           6.9456    8.5799   -5.1612 H       1  UNL1        0.0823
     52 H           6.3336    8.7225   -6.8296 H       1  UNL1        0.0823
     53 H           3.6318    4.6941   -7.0867 H       1  UNL1        0.0643
     54 H           4.2691    0.7196   -4.9010 H       1  UNL1        0.0624
     55 H           3.2734   -1.2618   -5.8535 H       1  UNL1        0.0629
     56 H           2.7939   -3.1170   -7.1184 H       1  UNL1        0.0344
     57 H           1.4348   -2.9385   -5.9644 H       1  UNL1        0.0344
     58 H           1.2513   -3.9257   -7.4251 H       1  UNL1        0.0344
     59 H           0.7101    1.1908   -8.3078 H       1  UNL1        0.0629
     60 H           1.6418    3.1924   -7.2753 H       1  UNL1        0.0624
@<TRIPOS>UNITY_ATOM_ATTR
14 1
charge 1
@<TRIPOS>BOND
     1     1    30    1
     2     1    31    1
     3     1    32    1
     4     2     1    1
     5     2    33    1
     6     2    34    1
     7     3     2    1
     8     4     3   ar
     9     4    35    1
    10     5     4   ar
    11     5    36    1
    12     6     5   ar
    13     7     6   ar
    14     7    37    1
    15     8     7   ar
    16     8     3   ar
    17     8    38    1
    18     9     6    1
    19    10     9   ar
    20    11    10    1
    21    11    39    1
    22    11    40    1
    23    11    41    1
    24    12    10   ar
    25    13    12    1
    26    13    42    1
    27    13    43    1
    28    14    13    1
    29    14    44    1
    30    15    14    1
    31    15    45    1
    32    15    46    1
    33    16    15    1
    34    16    47    1
    35    16    48    1
    36    17    16    1
    37    18    17    1
    38    18    49    1
    39    18    50    1
    40    19    18    1
    41    19    14    1
    42    19    51    1
    43    19    52    1
    44    20    12   ar
    45    20    53    1
    46    21    20   ar
    47    21     9   ar
    48    22    21    1
    49    23    22   ar
    50    23    54    1
    51    24    23   ar
    52    24    55    1
    53    25    24   ar
    54    26    25    1
    55    27    26    1
    56    27    56    1
    57    27    57    1
    58    27    58    1
    59    28    25   ar
    60    28    59    1
    61    29    28   ar
    62    29    22   ar
    63    29    60    1
@<TRIPOS>MOLECULE
mol_477_akc_cmdc201300129
>461.sdf
 108 112 0 0 0
SMALL
GASTEIGER

@<TRIPOS>ATOM
      1 C          17.9475    5.4961   -7.2133 C.3     1  UNL1       -0.0648
      2 C          17.3255    6.6303   -8.0117 C.3     1  UNL1       -0.0477
      3 C          15.7949    6.5166   -8.2117 C.3     1  UNL1        0.0075
      4 C          15.3646    7.6516   -9.1590 C.3     1  UNL1       -0.0568
      5 C          14.9800    6.4946   -6.8920 C.3     1  UNL1        0.0558
      6 N          15.1537    7.7745   -6.1368 N.4     1  UNL1        0.2275
      7 C          13.4706    6.3119   -7.1340 C.2     1  UNL1        0.2621
      8 O          12.7501    7.3108   -7.1492 O.2     1  UNL1       -0.2696
      9 N          13.0065    5.0383   -7.3124 N.am    1  UNL1       -0.2975
     10 C          11.5896    4.7818   -7.6328 C.3     1  UNL1        0.1231
     11 C          11.4718    3.8669   -8.8856 C.3     1  UNL1       -0.0153
     12 C          12.2656    4.4714  -10.0595 C.3     1  UNL1       -0.0602
     13 C          11.8831    2.4033   -8.6153 C.3     1  UNL1       -0.0511
     14 C          11.9018    1.5277   -9.8654 C.3     1  UNL1       -0.0650
     15 C          10.7269    4.3359   -6.4199 C.2     1  UNL1        0.3282
     16 O           9.6394    3.7845   -6.5217 O.2     1  UNL1       -0.2487
     17 O          11.2764    4.7205   -5.2208 O.3     1  UNL1       -0.4572
     18 C          10.5338    4.3433   -4.0307 C.3     1  UNL1        0.1365
     19 C          10.8199    2.8967   -3.6911 C.3     1  UNL1        0.0326
     20 C          10.8816    2.8376   -2.1702 C.3     1  UNL1        0.1433
     21 O          11.0606    4.1804   -1.6952 O.3     1  UNL1       -0.3461
     22 C          11.0332    5.1074   -2.7978 C.3     1  UNL1        0.1320
     23 C          10.1175    6.2848   -2.4110 C.3     1  UNL1        0.1221
     24 O          10.6788    7.0924   -1.3442 O.3     1  UNL1       -0.4619
     25 C          11.5160    8.0948   -1.7400 C.2     1  UNL1        0.3087
     26 O          11.8693    8.2354   -2.9066 O.2     1  UNL1       -0.2508
     27 C          12.0313    8.8752   -0.5343 C.3     1  UNL1        0.0626
     28 C          12.6819   10.2813   -0.8279 C.3     1  UNL1        0.0555
     29 C          11.4749   11.2397   -1.1563 C.ar    1  UNL1       -0.0320
     30 C          10.8966   12.0589   -0.1610 C.ar    1  UNL1       -0.0574
     31 C           9.9117   13.0029   -0.4702 C.ar    1  UNL1       -0.0615
     32 C           9.4520   13.1281   -1.7750 C.ar    1  UNL1       -0.0617
     33 C           9.9387   12.2739   -2.7581 C.ar    1  UNL1       -0.0615
     34 C          10.9162   11.3228   -2.4463 C.ar    1  UNL1       -0.0574
     35 C          13.4826   10.8466    0.4182 C.ar    1  UNL1       -0.0320
     36 C          13.6231   10.1661    1.6363 C.ar    1  UNL1       -0.0574
     37 C          14.3663   10.7181    2.6916 C.ar    1  UNL1       -0.0615
     38 C          14.9766   11.9631    2.5558 C.ar    1  UNL1       -0.0617
     39 C          14.8394   12.6674    1.3692 C.ar    1  UNL1       -0.0615
     40 C          14.1026   12.1191    0.3178 C.ar    1  UNL1       -0.0574
     41 C          13.7663   10.1654   -1.9653 C.ar    1  UNL1       -0.0320
     42 C          13.9691   11.1867   -2.9148 C.ar    1  UNL1       -0.0574
     43 C          14.9640   11.0955   -3.8891 C.ar    1  UNL1       -0.0615
     44 C          15.8189   10.0006   -3.9089 C.ar    1  UNL1       -0.0617
     45 C          15.6657    8.9865   -2.9672 C.ar    1  UNL1       -0.0615
     46 C          14.6582    9.0729   -2.0016 C.ar    1  UNL1       -0.0574
     47 N           9.7471    2.1773   -1.5171 N.ar    1  UNL1       -0.2737
     48 C           9.0389    2.7849   -0.4941 C.ar    1  UNL1        0.0199
     49 C           8.1575    2.1232    0.2697 C.ar    1  UNL1        0.0302
     50 C           7.4238    2.7150    1.4293 C.3     1  UNL1       -0.0332
     51 C           7.9258    0.6884   -0.0137 C.ar    1  UNL1        0.2568
     52 O           7.2043   -0.0047    0.6879 O.2     1  UNL1       -0.2674
     53 N           8.5921    0.1846   -1.0922 N.ar    1  UNL1       -0.2747
     54 C           9.5796    0.8213   -1.7920 C.ar    1  UNL1        0.3313
     55 O          10.2771    0.1981   -2.5910 O.2     1  UNL1       -0.2464
     56 H          19.0319    5.6400   -7.1498 H       1  UNL1        0.0230
     57 H          17.5625    5.4582   -6.1913 H       1  UNL1        0.0230
     58 H          17.7652    4.5311   -7.6956 H       1  UNL1        0.0230
     59 H          17.5800    7.5848   -7.5364 H       1  UNL1        0.0267
     60 H          17.8110    6.6462   -8.9969 H       1  UNL1        0.0267
     61 H          15.5987    5.5731   -8.7397 H       1  UNL1        0.0358
     62 H          14.2954    7.6091   -9.3843 H       1  UNL1        0.0234
     63 H          15.5897    8.6369   -8.7369 H       1  UNL1        0.0234
     64 H          15.8977    7.5776  -10.1140 H       1  UNL1        0.0234
     65 H          15.3218    5.6984   -6.2235 H       1  UNL1        0.0951
     66 H          14.6785    8.5363   -6.6474 H       1  UNL1        0.2002
     67 H          14.6379    7.7437   -5.2422 H       1  UNL1        0.2002
     68 H          16.1233    8.0363   -5.9489 H       1  UNL1        0.2002
     69 H          13.5889    4.2309   -7.1199 H       1  UNL1        0.1497
     70 H          11.1441    5.7460   -7.9140 H       1  UNL1        0.0617
     71 H          10.4145    3.8564   -9.1848 H       1  UNL1        0.0321
     72 H          13.3436    4.3154   -9.9369 H       1  UNL1        0.0233
     73 H          11.9695    4.0179  -11.0112 H       1  UNL1        0.0233
     74 H          12.0867    5.5482  -10.1481 H       1  UNL1        0.0233
     75 H          12.8732    2.3590   -8.1486 H       1  UNL1        0.0266
     76 H          11.1776    1.9606   -7.9028 H       1  UNL1        0.0266
     77 H          10.9727    1.6249  -10.4359 H       1  UNL1        0.0230
     78 H          12.7395    1.7897  -10.5204 H       1  UNL1        0.0230
     79 H          12.0231    0.4754   -9.5893 H       1  UNL1        0.0230
     80 H           9.4595    4.5134   -4.1754 H       1  UNL1        0.0763
     81 H          11.7922    2.5982   -4.1040 H       1  UNL1        0.0346
     82 H          10.0776    2.2282   -4.1389 H       1  UNL1        0.0346
     83 H          11.7729    2.2712   -1.8706 H       1  UNL1        0.0840
     84 H          12.0603    5.4613   -2.9413 H       1  UNL1        0.0668
     85 H           9.8860    6.9159   -3.2769 H       1  UNL1        0.0725
     86 H           9.1669    5.9040   -2.0213 H       1  UNL1        0.0725
     87 H          11.1972    8.9978    0.1715 H       1  UNL1        0.0393
     88 H          12.7522    8.2005   -0.0556 H       1  UNL1        0.0393
     89 H          11.2252   12.0078    0.8762 H       1  UNL1        0.0621
     90 H           9.5188   13.6525    0.3091 H       1  UNL1        0.0618
     91 H           8.7112   13.8844   -2.0224 H       1  UNL1        0.0618
     92 H           9.5698   12.3591   -3.7773 H       1  UNL1        0.0618
     93 H          11.2698   10.6827   -3.2512 H       1  UNL1        0.0621
     94 H          13.1601    9.1977    1.8127 H       1  UNL1        0.0621
     95 H          14.4675   10.1744    3.6275 H       1  UNL1        0.0618
     96 H          15.5519   12.3851    3.3767 H       1  UNL1        0.0618
     97 H          15.3007   13.6463    1.2573 H       1  UNL1        0.0618
     98 H          14.0022   12.7134   -0.5878 H       1  UNL1        0.0621
     99 H          13.3727   12.0977   -2.8909 H       1  UNL1        0.0621
    100 H          15.0899   11.9121   -4.5966 H       1  UNL1        0.0618
    101 H          16.6335    9.9759   -4.6255 H       1  UNL1        0.0618
    102 H          16.3540    8.1459   -2.9400 H       1  UNL1        0.0618
    103 H          14.6036    8.2876   -1.2508 H       1  UNL1        0.0621
    104 H           9.2537    3.8295   -0.2903 H       1  UNL1        0.0816
    105 H           6.3427    2.5883    1.3108 H       1  UNL1        0.0280
    106 H           7.7295    2.2276    2.3616 H       1  UNL1        0.0280
    107 H           7.6241    3.7864    1.5338 H       1  UNL1        0.0280
    108 H           8.4855   -0.8045   -1.2581 H       1  UNL1        0.1734
@<TRIPOS>UNITY_ATOM_ATTR
6 1
charge 1
@<TRIPOS>BOND
     1     1    56    1
     2     1    57    1
     3     1    58    1
     4     2     1    1
     5     2    59    1
     6     2    60    1
     7     4     3    1
     8     4    62    1
     9     4    63    1
    10     4    64    1
    11     5     3    1
    12     5    65    1
    13     6     5    1
    14     6    66    1
    15     6    67    1
    16     6    68    1
    17     7     5    1
    18     8     7    2
    19     9     7   am
    20     9    69    1
    21    10     9    1
    22    10    70    1
    23    11    10    1
    24    11    71    1
    25    12    11    1
    26    12    72    1
    27    12    73    1
    28    12    74    1
    29    13    11    1
    30    13    75    1
    31    13    76    1
    32    14    13    1
    33    14    77    1
    34    14    78    1
    35    14    79    1
    36    15    10    1
    37    16    15    2
    38    17    15    1
    39    19    18    1
    40    19    81    1
    41    19    82    1
    42    20    19    1
    43    21    20    1
    44    22    21    1
    45    22    18    1
    46    22    84    1
    47    23    22    1
    48    23    85    1
    49    23    86    1
    50    24    23    1
    51    25    24    1
    52    26    25    2
    53    27    25    1
    54    27    87    1
    55    27    88    1
    56    28    27    1
    57    29    28    1
    58    30    29   ar
    59    30    89    1
    60    31    30   ar
    61    31    90    1
    62    32    31   ar
    63    32    91    1
    64    33    32   ar
    65    33    92    1
    66    34    33   ar
    67    34    29   ar
    68    34    93    1
    69    35    28    1
    70    36    35   ar
    71    36    94    1
    72    37    36   ar
    73    37    95    1
    74    38    37   ar
    75    38    96    1
    76    39    38   ar
    77    39    97    1
    78    40    39   ar
    79    40    35   ar
    80    40    98    1
    81    41    28    1
    82    42    41   ar
    83    42    99    1
    84    43    42   ar
    85    43   100    1
    86    44    43   ar
    87    44   101    1
    88    45    44   ar
    89    45   102    1
    90    46    45   ar
    91    46    41   ar
    92    46   103    1
    93    48    47   ar
    94    48   104    1
    95    49    48   ar
    96    50    49    1
    97    50   105    1
    98    50   106    1
    99    50   107    1
   100    51    49   ar
   101    52    51    2
   102    53    51   ar
   103    53   108    1
   104    54    53   ar
   105    54    47   ar
   106    55    54    2
   107     3    61    1
   108     3     2    1
   109    18    80    1
   110    18    17    1
   111    20    47    1
   112    20    83    1
@<TRIPOS>MOLECULE
mol_478_akc_s00044_012_0355_9
>462.sdf
 46 48 0 0 0
SMALL
GASTEIGER

@<TRIPOS>ATOM
      1 O           2.6646   -0.1613    0.1519 O.2     1  UNL1       -0.2739
      2 C           1.4517   -0.0478   -0.0011 C.2     1  UNL1        0.2336
      3 C           0.5776   -1.2133   -0.4739 C.3     1  UNL1        0.0915
      4 N          -0.7475   -1.1255    0.1540 N.am    1  UNL1       -0.2883
      5 C          -1.4156   -2.3334    0.6530 C.3     1  UNL1        0.0266
      6 C          -0.6142   -2.9707    1.8033 C.3     1  UNL1       -0.0343
      7 C          -1.2454   -4.2658    2.2972 C.3     1  UNL1       -0.0514
      8 C          -1.4673   -5.2443    1.1499 C.3     1  UNL1       -0.0529
      9 C          -2.3305   -4.6248    0.0545 C.3     1  UNL1       -0.0514
     10 C          -1.7203   -3.3291   -0.4759 C.3     1  UNL1       -0.0343
     11 C          -1.4534    0.0703    0.0091 C.2     1  UNL1        0.2336
     12 O          -2.6659    0.1797    0.1673 O.2     1  UNL1       -0.2739
     13 C          -0.5845    1.2357   -0.4739 C.3     1  UNL1        0.0915
     14 N           0.7502    1.1528    0.1375 N.am    1  UNL1       -0.2883
     15 C           1.4417    2.3700    0.5771 C.3     1  UNL1        0.0266
     16 C           0.6692    3.0723    1.7052 C.3     1  UNL1       -0.0343
     17 C           1.3396    4.3687    2.1413 C.3     1  UNL1       -0.0514
     18 C           1.5740    5.2963    0.9518 C.3     1  UNL1       -0.0529
     19 C           2.4012    4.6102   -0.1309 C.3     1  UNL1       -0.0514
     20 C           1.7500    3.3096   -0.5985 C.3     1  UNL1       -0.0343
     21 H           0.4647   -1.1660   -1.5622 H       1  UNL1        0.0560
     22 H           1.0708   -2.1491   -0.2044 H       1  UNL1        0.0560
     23 H          -2.3810   -2.0273    1.0783 H       1  UNL1        0.0500
     24 H           0.4117   -3.1900    1.4912 H       1  UNL1        0.0283
     25 H          -0.5351   -2.2568    2.6322 H       1  UNL1        0.0283
     26 H          -0.5971   -4.7232    3.0532 H       1  UNL1        0.0266
     27 H          -2.2050   -4.0448    2.7890 H       1  UNL1        0.0266
     28 H          -0.4999   -5.5428    0.7284 H       1  UNL1        0.0265
     29 H          -1.9473   -6.1534    1.5287 H       1  UNL1        0.0265
     30 H          -2.4496   -5.3382   -0.7689 H       1  UNL1        0.0266
     31 H          -3.3338   -4.4232    0.4499 H       1  UNL1        0.0266
     32 H          -2.4073   -2.8714   -1.1986 H       1  UNL1        0.0283
     33 H          -0.8050   -3.5691   -1.0299 H       1  UNL1        0.0283
     34 H          -1.0768    2.1681   -0.1920 H       1  UNL1        0.0560
     35 H          -0.4864    1.1946   -1.5638 H       1  UNL1        0.0560
     36 H           2.4078    2.0661    1.0036 H       1  UNL1        0.0500
     37 H          -0.3538    3.3094    1.3938 H       1  UNL1        0.0283
     38 H           0.5780    2.3969    2.5645 H       1  UNL1        0.0283
     39 H           0.7111    4.8741    2.8831 H       1  UNL1        0.0266
     40 H           2.2957    4.1450    2.6279 H       1  UNL1        0.0266
     41 H           0.6083    5.6065    0.5326 H       1  UNL1        0.0265
     42 H           2.0836    6.2025    1.2867 H       1  UNL1        0.0265
     43 H           2.5258    5.2861   -0.9845 H       1  UNL1        0.0266
     44 H           3.4052    4.3965    0.2564 H       1  UNL1        0.0266
     45 H           2.4124    2.8068   -1.3140 H       1  UNL1        0.0283
     46 H           0.8300    3.5503   -1.1448 H       1  UNL1        0.0283
@<TRIPOS>BOND
     1     2     1    2
     2     3     2    1
     3     3    21    1
     4     3    22    1
     5     4     3    1
     6     5     4    1
     7     5    23    1
     8     6     5    1
     9     6    24    1
    10     6    25    1
    11     7     6    1
    12     7    26    1
    13     7    27    1
    14     8     7    1
    15     8    28    1
    16     8    29    1
    17     9     8    1
    18     9    30    1
    19     9    31    1
    20    10     9    1
    21    10     5    1
    22    10    32    1
    23    10    33    1
    24    11     4   am
    25    12    11    2
    26    13    11    1
    27    13    34    1
    28    13    35    1
    29    14    13    1
    30    14     2   am
    31    15    14    1
    32    15    36    1
    33    16    15    1
    34    16    37    1
    35    16    38    1
    36    17    16    1
    37    17    39    1
    38    17    40    1
    39    18    17    1
    40    18    41    1
    41    18    42    1
    42    19    18    1
    43    19    43    1
    44    19    44    1
    45    20    19    1
    46    20    15    1
    47    20    45    1
    48    20    46    1
@<TRIPOS>MOLECULE
mol_479_akc_s00044_012_0355_9
>463.sdf
 34 36 0 0 0
SMALL
GASTEIGER

@<TRIPOS>ATOM
      1 CL         -0.6934   -0.6155    2.4533 Cl      1  UNL1       -0.0816
      2 C           0.2600   -0.3416    1.0345 C.ar    1  UNL1        0.0623
      3 C           0.9183    0.8932    0.9594 C.ar    1  UNL1       -0.0416
      4 C           1.6366    1.2415   -0.1832 C.ar    1  UNL1       -0.0603
      5 C           1.6818    0.3670   -1.2637 C.ar    1  UNL1       -0.0599
      6 C           1.0110   -0.8574   -1.2021 C.ar    1  UNL1       -0.0388
      7 C           0.3048   -1.2403   -0.0501 C.ar    1  UNL1        0.0551
      8 N          -0.2928   -2.5362   -0.0410 N.am    1  UNL1       -0.2599
      9 C          -0.1554   -3.3925    1.1345 C.3     1  UNL1        0.0967
     10 C           0.1013   -4.8313    0.6901 C.2     1  UNL1        0.2380
     11 O           0.8485   -5.5747    1.3242 O.2     1  UNL1       -0.2735
     12 N          -0.7023   -5.2338   -0.3868 N.am    1  UNL1       -0.2599
     13 C          -1.7520   -4.3289   -0.8530 C.3     1  UNL1        0.0967
     14 C          -1.1671   -2.9297   -1.0632 C.2     1  UNL1        0.2380
     15 O          -1.5559   -2.2033   -1.9779 O.2     1  UNL1       -0.2735
     16 C          -0.6714   -6.5889   -0.8372 C.ar    1  UNL1        0.0551
     17 C          -1.8058   -7.4182   -0.9342 C.ar    1  UNL1        0.0623
     18 CL         -3.3753   -6.9508   -0.3742 Cl      1  UNL1       -0.0816
     19 C          -1.6827   -8.7349   -1.3994 C.ar    1  UNL1       -0.0416
     20 C          -0.4407   -9.2355   -1.7849 C.ar    1  UNL1       -0.0603
     21 C           0.6874   -8.4273   -1.6936 C.ar    1  UNL1       -0.0599
     22 C           0.5741   -7.1202   -1.2127 C.ar    1  UNL1       -0.0388
     23 H           0.8592    1.5982    1.7849 H       1  UNL1        0.0633
     24 H           2.1462    2.1999   -0.2356 H       1  UNL1        0.0618
     25 H           2.2390    0.6336   -2.1586 H       1  UNL1        0.0618
     26 H           1.0718   -1.5267   -2.0579 H       1  UNL1        0.0637
     27 H          -1.0788   -3.3745    1.7235 H       1  UNL1        0.0564
     28 H           0.7026   -3.0766    1.7366 H       1  UNL1        0.0564
     29 H          -2.1433   -4.6733   -1.8156 H       1  UNL1        0.0564
     30 H          -2.5483   -4.2573   -0.1056 H       1  UNL1        0.0564
     31 H          -2.5533   -9.3852   -1.4420 H       1  UNL1        0.0633
     32 H          -0.3519  -10.2592   -2.1405 H       1  UNL1        0.0618
     33 H           1.6600   -8.8128   -1.9898 H       1  UNL1        0.0618
     34 H           1.4727   -6.5087   -1.1536 H       1  UNL1        0.0637
@<TRIPOS>BOND
     1     2     1    1
     2     3     2   ar
     3     3    23    1
     4     4     3   ar
     5     4    24    1
     6     5     4   ar
     7     5    25    1
     8     6     5   ar
     9     6    26    1
    10     7     6   ar
    11     7     2   ar
    12     8     7    1
    13     9     8    1
    14     9    27    1
    15     9    28    1
    16    10     9    1
    17    11    10    2
    18    12    10   am
    19    13    12    1
    20    13    29    1
    21    13    30    1
    22    14    13    1
    23    14     8   am
    24    15    14    2
    25    16    12    1
    26    17    16   ar
    27    18    17    1
    28    19    17   ar
    29    19    31    1
    30    20    19   ar
    31    20    32    1
    32    21    20   ar
    33    21    33    1
    34    22    21   ar
    35    22    16   ar
    36    22    34    1
@<TRIPOS>MOLECULE
mol_47_akc_1475636021000005749
>47.sdf
 34 36 0 0 0
SMALL
GASTEIGER

@<TRIPOS>ATOM
      1 C           1.2609    1.6920   -0.9148 C.3     1  UNL1       -0.0190
      2 C           0.3979    0.5836   -0.4514 C.ar    1  UNL1        0.0825
      3 N           0.7745   -0.1688    0.5876 N.ar    1  UNL1       -0.0814
      4 O          -0.2469   -1.0864    0.7736 O.2     1  UNL1       -0.3389
      5 C          -1.2236   -0.8823   -0.1532 C.ar    1  UNL1        0.2280
      6 C          -0.8492    0.1620   -0.9656 C.ar    1  UNL1        0.0231
      7 N          -2.3456   -1.6771   -0.1572 N.am    1  UNL1       -0.2222
      8 C          -3.4867   -1.5554   -1.0306 C.3     1  UNL1        0.0399
      9 C          -4.3072   -2.8034   -0.7410 C.3     1  UNL1        0.0328
     10 N          -3.8329   -3.2111    0.5565 N.am    1  UNL1       -0.2793
     11 C          -4.4860   -4.2158    1.3706 C.3     1  UNL1        0.0412
     12 C          -5.6971   -3.6565    2.0810 C.ar    1  UNL1       -0.0300
     13 C          -6.9744   -4.1906    1.8563 C.ar    1  UNL1       -0.0560
     14 C          -8.0880   -3.6674    2.5197 C.ar    1  UNL1       -0.0475
     15 C          -7.9299   -2.6089    3.4121 C.ar    1  UNL1        0.0179
     16 BR         -9.4393   -1.8954    4.2991 Br      1  UNL1       -0.0503
     17 C          -6.6680   -2.0733    3.6552 C.ar    1  UNL1       -0.0475
     18 C          -5.5558   -2.5989    2.9942 C.ar    1  UNL1       -0.0560
     19 C          -2.6034   -2.6173    0.8619 C.2     1  UNL1        0.3117
     20 O          -1.9346   -2.8846    1.8465 O.2     1  UNL1       -0.2520
     21 H           1.6040    2.2970   -0.0689 H       1  UNL1        0.0294
     22 H           2.1387    1.3009   -1.4388 H       1  UNL1        0.0294
     23 H           0.7197    2.3520   -1.6003 H       1  UNL1        0.0294
     24 H          -1.3971    0.5738   -1.7981 H       1  UNL1        0.0688
     25 H          -3.1894   -1.4813   -2.0808 H       1  UNL1        0.0485
     26 H          -4.0400   -0.6543   -0.7396 H       1  UNL1        0.0485
     27 H          -4.0716   -3.6048   -1.4502 H       1  UNL1        0.0481
     28 H          -5.3829   -2.6128   -0.7414 H       1  UNL1        0.0481
     29 H          -4.7577   -5.0516    0.7163 H       1  UNL1        0.0514
     30 H          -3.7860   -4.6011    2.1205 H       1  UNL1        0.0514
     31 H          -7.1124   -5.0206    1.1669 H       1  UNL1        0.0621
     32 H          -9.0710   -4.0937    2.3370 H       1  UNL1        0.0629
     33 H          -6.5365   -1.2533    4.3560 H       1  UNL1        0.0629
     34 H          -4.5687   -2.1809    3.1960 H       1  UNL1        0.0621
@<TRIPOS>BOND
     1     1    21    1
     2     1    22    1
     3     1    23    1
     4     2     1    1
     5     3     2   ar
     6     4     3   ar
     7     5     4   ar
     8     6     5   ar
     9     6     2   ar
    10     6    24    1
    11     7     5    1
    12     8     7    1
    13     8    25    1
    14     8    26    1
    15     9     8    1
    16     9    27    1
    17     9    28    1
    18    10     9    1
    19    11    10    1
    20    11    29    1
    21    11    30    1
    22    12    11    1
    23    13    12   ar
    24    13    31    1
    25    14    13   ar
    26    14    32    1
    27    15    14   ar
    28    16    15    1
    29    17    15   ar
    30    17    33    1
    31    18    17   ar
    32    18    12   ar
    33    18    34    1
    34    19    10   am
    35    19     7   am
    36    20    19    2
@<TRIPOS>MOLECULE
mol_480_akc_jm400053v
>464.sdf
 71 76 0 0 0
SMALL
GASTEIGER

@<TRIPOS>ATOM
      1 C           4.9561   -3.1932    0.6566 C.3     1  UNL1       -0.0226
      2 C           4.3374   -1.7964    0.5080 C.3     1  UNL1        0.1223
      3 N           5.0365   -0.8527    1.3459 N.am    1  UNL1       -0.2868
      4 C           4.5415    0.4141    1.5289 C.2     1  UNL1        0.2476
      5 O           5.2717    1.3492    1.8345 O.2     1  UNL1       -0.2701
      6 C           3.0806    0.5629    1.3652 C.ar    1  UNL1        0.0576
      7 C           2.4665    1.8117    1.4760 C.ar    1  UNL1       -0.0478
      8 C           1.0765    1.8936    1.4211 C.ar    1  UNL1       -0.0609
      9 C           0.3152    0.7311    1.2846 C.ar    1  UNL1       -0.0600
     10 C           0.9408   -0.5129    1.1582 C.ar    1  UNL1       -0.0401
     11 C           2.3341   -0.6026    1.1409 C.ar    1  UNL1        0.0411
     12 N           2.9680   -1.8498    1.0171 N.pl3   1  UNL1       -0.3193
     13 C           4.4283   -1.4261   -0.9798 C.ar    1  UNL1       -0.0065
     14 C           3.4128   -1.7149   -1.9060 C.ar    1  UNL1       -0.0532
     15 C           3.5982   -1.4862   -3.2778 C.ar    1  UNL1       -0.0401
     16 C           4.7969   -0.9608   -3.7728 C.ar    1  UNL1        0.0336
     17 N           4.9518   -0.7699   -5.1496 N.pl3   1  UNL1       -0.2835
     18 C           5.8383    0.0314   -5.8745 C.ar    1  UNL1        0.2254
     19 N           6.8694    0.6173   -5.2860 N.ar    1  UNL1       -0.1806
     20 C           7.6055    1.4316   -6.0203 C.ar    1  UNL1        0.2237
     21 N           7.3370    1.6585   -7.2978 N.ar    1  UNL1       -0.1807
     22 C           6.2962    1.0361   -7.8356 C.ar    1  UNL1        0.2237
     23 N           5.5309    0.1966   -7.1510 N.ar    1  UNL1       -0.1806
     24 N           5.9704    1.3046   -9.1444 N.pl3   1  UNL1       -0.2995
     25 C           6.7429    2.2552   -9.9281 C.3     1  UNL1        0.0149
     26 C           5.7939    3.2846  -10.5425 C.3     1  UNL1       -0.0371
     27 C           4.6499    2.6129  -11.3028 C.3     1  UNL1       -0.0502
     28 C           3.9325    1.5788  -10.4349 C.3     1  UNL1       -0.0371
     29 C           4.9151    0.5767   -9.8283 C.3     1  UNL1        0.0149
     30 N           8.6857    2.0529   -5.4387 N.pl3   1  UNL1       -0.2995
     31 C           9.5006    2.9973   -6.1829 C.3     1  UNL1        0.0149
     32 C          10.9659    2.5783   -6.0532 C.3     1  UNL1       -0.0371
     33 C          11.3812    2.4043   -4.5911 C.3     1  UNL1       -0.0502
     34 C          10.4156    1.4925   -3.8327 C.3     1  UNL1       -0.0371
     35 C           8.9640    1.9363   -4.0162 C.3     1  UNL1        0.0149
     36 C           5.7911   -0.6540   -2.8457 C.ar    1  UNL1       -0.0401
     37 C           5.6139   -0.8683   -1.4801 C.ar    1  UNL1       -0.0532
     38 H           4.4457   -3.9283    0.0247 H       1  UNL1        0.0270
     39 H           6.0163   -3.1959    0.3758 H       1  UNL1        0.0270
     40 H           4.8941   -3.5525    1.6939 H       1  UNL1        0.0270
     41 H           6.0413   -0.9024    1.3938 H       1  UNL1        0.1514
     42 H           3.0671    2.7067    1.6159 H       1  UNL1        0.0626
     43 H           0.5863    2.8596    1.5080 H       1  UNL1        0.0618
     44 H          -0.7701    0.7925    1.2802 H       1  UNL1        0.0618
     45 H           0.3305   -1.4069    1.0661 H       1  UNL1        0.0636
     46 H           2.3951   -2.5575    0.5759 H       1  UNL1        0.1484
     47 H           2.4616   -2.1283   -1.5835 H       1  UNL1        0.0622
     48 H           2.7857   -1.7264   -3.9594 H       1  UNL1        0.0636
     49 H           4.1793   -1.0286   -5.7445 H       1  UNL1        0.1550
     50 H           7.2765    1.7169  -10.7207 H       1  UNL1        0.0464
     51 H           7.5016    2.7946   -9.3510 H       1  UNL1        0.0464
     52 H           6.3485    3.9455  -11.2169 H       1  UNL1        0.0280
     53 H           5.3743    3.9135   -9.7471 H       1  UNL1        0.0280
     54 H           3.9351    3.3711  -11.6396 H       1  UNL1        0.0266
     55 H           5.0480    2.1221  -12.2001 H       1  UNL1        0.0266
     56 H           3.3958    2.0961   -9.6294 H       1  UNL1        0.0280
     57 H           3.1844    1.0513  -11.0334 H       1  UNL1        0.0280
     58 H           4.3566   -0.1095   -9.1817 H       1  UNL1        0.0464
     59 H           5.3604   -0.0360  -10.6218 H       1  UNL1        0.0464
     60 H           9.3590    4.0031   -5.7675 H       1  UNL1        0.0464
     61 H           9.2477    3.0599   -7.2467 H       1  UNL1        0.0464
     62 H          11.6078    3.3256   -6.5345 H       1  UNL1        0.0280
     63 H          11.1174    1.6310   -6.5841 H       1  UNL1        0.0280
     64 H          12.3938    1.9884   -4.5430 H       1  UNL1        0.0266
     65 H          11.4118    3.3854   -4.1022 H       1  UNL1        0.0266
     66 H          10.5285    0.4638   -4.1980 H       1  UNL1        0.0280
     67 H          10.6717    1.4850   -2.7670 H       1  UNL1        0.0280
     68 H           8.3186    1.2268   -3.4930 H       1  UNL1        0.0464
     69 H           8.8071    2.9096   -3.5344 H       1  UNL1        0.0464
     70 H           6.7488   -0.2617   -3.1622 H       1  UNL1        0.0636
     71 H           6.4368   -0.6032   -0.8202 H       1  UNL1        0.0622
@<TRIPOS>BOND
     1     1    38    1
     2     1    39    1
     3     1    40    1
     4     2     1    1
     5     3     2    1
     6     3    41    1
     7     4     3   am
     8     5     4    2
     9     6     4    1
    10     7     6   ar
    11     7    42    1
    12     8     7   ar
    13     8    43    1
    14     9     8   ar
    15     9    44    1
    16    10     9   ar
    17    10    45    1
    18    11    10   ar
    19    11     6   ar
    20    12    11    1
    21    12     2    1
    22    12    46    1
    23    13     2    1
    24    14    13   ar
    25    14    47    1
    26    15    14   ar
    27    15    48    1
    28    16    15   ar
    29    17    16    1
    30    17    49    1
    31    18    17    1
    32    19    18   ar
    33    20    19   ar
    34    21    20   ar
    35    22    21   ar
    36    23    22   ar
    37    23    18   ar
    38    24    22    1
    39    25    24    1
    40    25    50    1
    41    25    51    1
    42    26    25    1
    43    26    52    1
    44    26    53    1
    45    27    26    1
    46    27    54    1
    47    27    55    1
    48    28    27    1
    49    28    56    1
    50    28    57    1
    51    29    28    1
    52    29    24    1
    53    29    58    1
    54    29    59    1
    55    30    20    1
    56    31    30    1
    57    31    60    1
    58    31    61    1
    59    32    31    1
    60    32    62    1
    61    32    63    1
    62    33    32    1
    63    33    64    1
    64    33    65    1
    65    34    33    1
    66    34    66    1
    67    34    67    1
    68    35    34    1
    69    35    30    1
    70    35    68    1
    71    35    69    1
    72    36    16   ar
    73    36    70    1
    74    37    36   ar
    75    37    13   ar
    76    37    71    1
@<TRIPOS>MOLECULE
mol_481_akc_jmm0058115_0
>465.sdf
 43 45 0 0 0
SMALL
GASTEIGER

@<TRIPOS>ATOM
      1 O           2.5735    1.8941    1.8209 O.3     1  UNL1       -0.3815
      2 C           2.3794    0.5894    2.3728 C.3     1  UNL1        0.1232
      3 C           3.2529   -0.4723    1.6174 C.3     1  UNL1        0.0081
      4 C           2.8721   -0.8024    0.1704 C.3     1  UNL1       -0.0068
      5 C           3.2213    0.2947   -0.8280 C.3     1  UNL1       -0.0431
      6 C           4.6934    0.6803   -0.7404 C.3     1  UNL1       -0.0124
      7 C           5.1282    1.0223    0.6725 C.3     1  UNL1       -0.0333
      8 N           4.7262   -0.0673    1.6214 N.4     1  UNL1        0.2312
      9 C           0.8931    0.2707    2.4726 C.ar    1  UNL1       -0.0026
     10 C           0.3572   -0.5820    3.4829 C.ar    1  UNL1        0.0068
     11 C           1.1492   -1.2637    4.4398 C.ar    1  UNL1       -0.0522
     12 C           0.5737   -2.0694    5.4193 C.ar    1  UNL1       -0.0605
     13 C          -0.8033   -2.2079    5.4669 C.ar    1  UNL1       -0.0480
     14 C          -1.6158   -1.5430    4.5324 C.ar    1  UNL1        0.0807
     15 C          -1.0512   -0.7384    3.5434 C.ar    1  UNL1        0.0836
     16 N          -1.8662   -0.1173    2.6800 N.ar    1  UNL1       -0.2421
     17 C          -1.3683    0.6900    1.7108 C.ar    1  UNL1        0.1446
     18 C           0.0010    0.8812    1.5724 C.ar    1  UNL1       -0.0252
     19 C          -2.3244    1.4333    0.7797 C.3     1  UNL1        0.4342
     20 F          -3.6411    1.2630    1.0659 F       1  UNL1       -0.1644
     21 F          -2.1020    2.7804    0.8030 F       1  UNL1       -0.1644
     22 F          -2.1608    1.0606   -0.5220 F       1  UNL1       -0.1644
     23 C          -3.1166   -1.6838    4.6077 C.3     1  UNL1        0.4194
     24 F          -3.5110   -2.5144    5.6193 F       1  UNL1       -0.1658
     25 F          -3.7557   -0.5061    4.8465 F       1  UNL1       -0.1658
     26 F          -3.6667   -2.2127    3.4807 F       1  UNL1       -0.1658
     27 H           2.0164    2.5170    2.3292 H       1  UNL1        0.2105
     28 H           2.7761    0.6780    3.3912 H       1  UNL1        0.0701
     29 H           3.2210   -1.4049    2.1932 H       1  UNL1        0.0880
     30 H           1.8079   -1.0521    0.0958 H       1  UNL1        0.0321
     31 H           3.4117   -1.7128   -0.1253 H       1  UNL1        0.0321
     32 H           3.0014   -0.0561   -1.8434 H       1  UNL1        0.0269
     33 H           2.5915    1.1746   -0.6600 H       1  UNL1        0.0269
     34 H           5.3060   -0.1496   -1.1150 H       1  UNL1        0.0317
     35 H           4.8884    1.5338   -1.3992 H       1  UNL1        0.0317
     36 H           6.2187    1.0974    0.7348 H       1  UNL1        0.0814
     37 H           4.7143    1.9679    1.0256 H       1  UNL1        0.0814
     38 H           5.2953   -0.8977    1.4078 H       1  UNL1        0.2017
     39 H           5.0007    0.2264    2.5674 H       1  UNL1        0.2017
     40 H           2.2309   -1.1808    4.4571 H       1  UNL1        0.0624
     41 H           1.1948   -2.5818    6.1512 H       1  UNL1        0.0618
     42 H          -1.2528   -2.8301    6.2415 H       1  UNL1        0.0624
     43 H           0.3581    1.5361    0.7791 H       1  UNL1        0.0642
@<TRIPOS>UNITY_ATOM_ATTR
8 1
charge 1
@<TRIPOS>BOND
     1     1    27    1
     2     4     3    1
     3     4    30    1
     4     4    31    1
     5     5     4    1
     6     5    32    1
     7     5    33    1
     8     6     5    1
     9     6    34    1
    10     6    35    1
    11     7     6    1
    12     7    36    1
    13     7    37    1
    14     8     7    1
    15     8     3    1
    16     8    38    1
    17     8    39    1
    18     9     2    1
    19    10     9   ar
    20    11    10   ar
    21    11    40    1
    22    12    11   ar
    23    12    41    1
    24    13    12   ar
    25    13    42    1
    26    14    13   ar
    27    15    14   ar
    28    15    10   ar
    29    16    15   ar
    30    17    16   ar
    31    18    17   ar
    32    18     9   ar
    33    18    43    1
    34    19    17    1
    35    20    19    1
    36    21    19    1
    37    22    19    1
    38    23    14    1
    39    24    23    1
    40    25    23    1
    41    26    23    1
    42     2    28    1
    43     2     1    1
    44     3    29    1
    45     3     2    1
@<TRIPOS>MOLECULE
mol_482_akc_jmm0058115_0
>466.sdf
 49 50 0 0 0
SMALL
GASTEIGER

@<TRIPOS>ATOM
      1 C           9.6544   -6.6824    4.8054 C.3     1  UNL1       -0.0245
      2 C           8.6758   -7.1168    3.7333 C.3     1  UNL1       -0.0348
      3 N           9.0913   -6.6674    2.3454 N.4     1  UNL1        0.2348
      4 C          10.4914   -7.0789    1.9202 C.3     1  UNL1       -0.0348
      5 C          10.6404   -8.5793    1.7418 C.3     1  UNL1       -0.0245
      6 C           8.0496   -7.0008    1.2919 C.3     1  UNL1       -0.0319
      7 C           6.7113   -6.2930    1.5318 C.3     1  UNL1       -0.0109
      8 C           6.7362   -4.7565    1.6065 C.3     1  UNL1       -0.0300
      9 C           7.0881   -4.0048    0.3080 C.3     1  UNL1        0.0180
     10 C           6.1823   -4.4197   -0.8564 C.3     1  UNL1       -0.0467
     11 N           8.4933   -4.2665   -0.0559 N.pl3   1  UNL1       -0.3407
     12 C           9.4459   -3.2133    0.0756 C.ar    1  UNL1        0.0380
     13 C          10.5995   -3.1707   -0.7736 C.ar    1  UNL1        0.0213
     14 C          10.8002   -3.9970   -1.9104 C.ar    1  UNL1       -0.0494
     15 C          11.9694   -3.9287   -2.6678 C.ar    1  UNL1       -0.0426
     16 C          12.9637   -3.0368   -2.3013 C.ar    1  UNL1        0.0430
     17 CL         14.4390   -2.9924   -3.1814 Cl      1  UNL1       -0.0835
     18 C          12.7719   -2.1849   -1.2175 C.ar    1  UNL1       -0.0173
     19 C          11.6102   -2.2234   -0.4632 C.ar    1  UNL1        0.0741
     20 N          11.5021   -1.3594    0.5477 N.ar    1  UNL1       -0.2548
     21 C          10.3976   -1.3888    1.3079 C.ar    1  UNL1        0.0300
     22 C           9.3780   -2.3064    1.1372 C.ar    1  UNL1       -0.0221
     23 H           9.1939   -6.8086    5.7915 H       1  UNL1        0.0281
     24 H          10.5613   -7.2935    4.7926 H       1  UNL1        0.0281
     25 H           9.9314   -5.6296    4.6961 H       1  UNL1        0.0281
     26 H           8.5381   -8.2023    3.7179 H       1  UNL1        0.0812
     27 H           7.7152   -6.6438    3.9499 H       1  UNL1        0.0812
     28 H           9.1423   -5.6382    2.3524 H       1  UNL1        0.2033
     29 H          10.7077   -6.5537    0.9832 H       1  UNL1        0.0812
     30 H          11.1873   -6.6991    2.6735 H       1  UNL1        0.0812
     31 H          10.2653   -9.1444    2.5992 H       1  UNL1        0.0281
     32 H          10.1186   -8.9255    0.8440 H       1  UNL1        0.0281
     33 H          11.6989   -8.8328    1.6189 H       1  UNL1        0.0281
     34 H           8.4676   -6.7440    0.3149 H       1  UNL1        0.0814
     35 H           7.9033   -8.0866    1.3176 H       1  UNL1        0.0814
     36 H           6.0104   -6.6136    0.7532 H       1  UNL1        0.0317
     37 H           6.2624   -6.6691    2.4586 H       1  UNL1        0.0317
     38 H           5.7318   -4.4339    1.9125 H       1  UNL1        0.0285
     39 H           7.4030   -4.4357    2.4148 H       1  UNL1        0.0285
     40 H           6.9106   -2.9342    0.4657 H       1  UNL1        0.0495
     41 H           6.4410   -3.8613   -1.7628 H       1  UNL1        0.0247
     42 H           6.2842   -5.4818   -1.1013 H       1  UNL1        0.0247
     43 H           5.1325   -4.2179   -0.6211 H       1  UNL1        0.0247
     44 H           8.5321   -4.6038   -1.0167 H       1  UNL1        0.1464
     45 H          10.0395   -4.6938   -2.2516 H       1  UNL1        0.0625
     46 H          12.0964   -4.5668   -3.5385 H       1  UNL1        0.0632
     47 H          13.5480   -1.4702   -0.9492 H       1  UNL1        0.0653
     48 H          10.3591   -0.6437    2.0959 H       1  UNL1        0.0830
     49 H           8.5490   -2.2810    1.8330 H       1  UNL1        0.0651
@<TRIPOS>UNITY_ATOM_ATTR
3 1
charge 1
@<TRIPOS>BOND
     1     1    23    1
     2     1    24    1
     3     1    25    1
     4     2     1    1
     5     2    26    1
     6     2    27    1
     7     3     2    1
     8     3    28    1
     9     4     3    1
    10     4    29    1
    11     4    30    1
    12     5     4    1
    13     5    31    1
    14     5    32    1
    15     5    33    1
    16     6     3    1
    17     6    34    1
    18     6    35    1
    19     7     6    1
    20     7    36    1
    21     7    37    1
    22     8     7    1
    23     8    38    1
    24     8    39    1
    25    10     9    1
    26    10    41    1
    27    10    42    1
    28    10    43    1
    29    11     9    1
    30    11    44    1
    31    12    11    1
    32    13    12   ar
    33    14    13   ar
    34    14    45    1
    35    15    14   ar
    36    15    46    1
    37    16    15   ar
    38    17    16    1
    39    18    16   ar
    40    18    47    1
    41    19    18   ar
    42    19    13   ar
    43    20    19   ar
    44    21    20   ar
    45    21    48    1
    46    22    21   ar
    47    22    12   ar
    48    22    49    1
    49     9    40    1
    50     9     8    1
@<TRIPOS>MOLECULE
mol_483_akc_jmm0058115_0
>467.sdf
 50 51 0 0 0
SMALL
GASTEIGER

@<TRIPOS>ATOM
      1 C          11.1649   -7.7109    1.9337 C.3     1  UNL1       -0.0245
      2 C          10.6113   -6.3001    1.8581 C.3     1  UNL1       -0.0347
      3 N           9.1226   -6.2385    2.1354 N.4     1  UNL1        0.2367
      4 C           8.6889   -6.7897    3.4882 C.3     1  UNL1       -0.0082
      5 C           9.4476   -6.1369    4.6468 C.3     1  UNL1        0.0841
      6 O           9.3478   -4.7219    4.5166 O.3     1  UNL1       -0.3898
      7 C           8.3088   -6.7748    0.9774 C.3     1  UNL1       -0.0318
      8 C           6.8353   -6.3664    1.0228 C.3     1  UNL1       -0.0109
      9 C           6.5257   -4.8612    1.0124 C.3     1  UNL1       -0.0300
     10 C           6.9176   -4.0700   -0.2557 C.3     1  UNL1        0.0180
     11 C           6.3293   -4.7051   -1.5203 C.3     1  UNL1       -0.0467
     12 N           8.3805   -3.9888   -0.3933 N.pl3   1  UNL1       -0.3407
     13 C           9.1404   -3.0083    0.2915 C.ar    1  UNL1        0.0380
     14 C          10.5566   -2.9675    0.1050 C.ar    1  UNL1        0.0213
     15 C          11.2633   -3.7324   -0.8556 C.ar    1  UNL1       -0.0494
     16 C          12.6590   -3.7416   -0.8971 C.ar    1  UNL1       -0.0426
     17 C          13.3679   -2.9727    0.0125 C.ar    1  UNL1        0.0430
     18 CL         15.0838   -3.0631    0.0494 Cl      1  UNL1       -0.0835
     19 C          12.6939   -2.1578    0.9135 C.ar    1  UNL1       -0.0173
     20 C          11.3117   -2.1293    0.9690 C.ar    1  UNL1        0.0741
     21 N          10.7467   -1.3337    1.8792 N.ar    1  UNL1       -0.2548
     22 C           9.4081   -1.3330    1.9855 C.ar    1  UNL1        0.0300
     23 C           8.5812   -2.1641    1.2520 C.ar    1  UNL1       -0.0221
     24 H          12.2316   -7.7001    1.6863 H       1  UNL1        0.0281
     25 H          11.0690   -8.1352    2.9369 H       1  UNL1        0.0281
     26 H          10.6690   -8.3807    1.2257 H       1  UNL1        0.0281
     27 H          11.1108   -5.6346    2.5685 H       1  UNL1        0.0812
     28 H          10.7695   -5.8898    0.8586 H       1  UNL1        0.0812
     29 H           8.9396   -5.2221    2.1918 H       1  UNL1        0.2034
     30 H           7.6316   -6.5322    3.5950 H       1  UNL1        0.0837
     31 H           8.7983   -7.8777    3.4734 H       1  UNL1        0.0837
     32 H           9.0036   -6.4421    5.5998 H       1  UNL1        0.0610
     33 H          10.5039   -6.4201    4.6544 H       1  UNL1        0.0610
     34 H           9.7179   -4.3312    5.3340 H       1  UNL1        0.2096
     35 H           8.7782   -6.4432    0.0474 H       1  UNL1        0.0814
     36 H           8.3881   -7.8671    1.0148 H       1  UNL1        0.0814
     37 H           6.3238   -6.8473    0.1806 H       1  UNL1        0.0317
     38 H           6.3626   -6.8047    1.9095 H       1  UNL1        0.0317
     39 H           5.4392   -4.7589    1.1385 H       1  UNL1        0.0285
     40 H           6.9635   -4.4003    1.9042 H       1  UNL1        0.0285
     41 H           6.4869   -3.0633   -0.1973 H       1  UNL1        0.0495
     42 H           6.5550   -4.0923   -2.3988 H       1  UNL1        0.0247
     43 H           6.7395   -5.7014   -1.7111 H       1  UNL1        0.0247
     44 H           5.2396   -4.7874   -1.4392 H       1  UNL1        0.0247
     45 H           8.6527   -3.9625   -1.3805 H       1  UNL1        0.1464
     46 H          10.7315   -4.3445   -1.5818 H       1  UNL1        0.0625
     47 H          13.1794   -4.3498   -1.6323 H       1  UNL1        0.0632
     48 H          13.2581   -1.5366    1.6091 H       1  UNL1        0.0653
     49 H           9.0005   -0.6381    2.7143 H       1  UNL1        0.0830
     50 H           7.5180   -2.1109    1.4470 H       1  UNL1        0.0651
@<TRIPOS>UNITY_ATOM_ATTR
3 1
charge 1
@<TRIPOS>BOND
     1     1    24    1
     2     1    25    1
     3     1    26    1
     4     2     1    1
     5     2    27    1
     6     2    28    1
     7     4     3    1
     8     4    30    1
     9     4    31    1
    10     5     4    1
    11     5    32    1
    12     5    33    1
    13     6     5    1
    14     6    34    1
    15     7     3    1
    16     7    35    1
    17     7    36    1
    18     8     7    1
    19     8    37    1
    20     8    38    1
    21     9     8    1
    22     9    39    1
    23     9    40    1
    24    11    10    1
    25    11    42    1
    26    11    43    1
    27    11    44    1
    28    12    10    1
    29    12    45    1
    30    13    12    1
    31    14    13   ar
    32    15    14   ar
    33    15    46    1
    34    16    15   ar
    35    16    47    1
    36    17    16   ar
    37    18    17    1
    38    19    17   ar
    39    19    48    1
    40    20    19   ar
    41    20    14   ar
    42    21    20   ar
    43    22    21   ar
    44    22    49    1
    45    23    22   ar
    46    23    13   ar
    47    23    50    1
    48     3    29    1
    49     3     2    1
    50    10    41    1
    51    10     9    1
