@<TRIPOS>MOLECULE
mol_777_akc_d3md00081h
*****
 72 75 0 0 0
SMALL
GASTEIGER

@<TRIPOS>ATOM
      1 C           1.4030   -0.2444    0.1926 C.ar    1  UNL1        0.2047
      2 C           0.5288   -1.3464    0.2076 C.ar    1  UNL1        0.1655
      3 C          -0.8616   -1.1385    0.1730 C.ar    1  UNL1       -0.0126
      4 C          -1.3989    0.1322   -0.0556 C.ar    1  UNL1       -0.0365
      5 C          -0.5209    1.2076   -0.1961 C.ar    1  UNL1       -0.0120
      6 C           0.8643    1.0400   -0.0183 C.ar    1  UNL1        0.1740
      7 O           1.7393    2.1218   -0.0671 O.3     1  UNL1       -0.4485
      8 C           1.2537    3.3479    0.3447 C.ar    1  UNL1        0.1700
      9 C           1.3667    4.4901   -0.4566 C.ar    1  UNL1        0.1624
     10 C           0.6073    3.4371    1.5910 C.ar    1  UNL1       -0.0154
     11 C          -0.0432    4.6085    1.9761 C.ar    1  UNL1       -0.0536
     12 C          -0.0150    5.7362    1.1506 C.ar    1  UNL1       -0.0297
     13 C           0.7288    5.6717   -0.0378 C.ar    1  UNL1       -0.0119
     14 O           1.0514   -2.6147    0.2579 O.3     1  UNL1       -0.4913
     15 C           0.3591   -3.5905   -0.5276 C.3     1  UNL1        0.0790
     16 C          -2.8920    0.3428   -0.1504 C.3     1  UNL1       -0.0095
     17 C          -3.5570    0.4194    1.1964 C.2     1  UNL1       -0.0868
     18 C          -4.3345    1.4301    1.5982 C.2     1  UNL1       -0.1023
     19 O           2.7723   -0.3166    0.2907 O.3     1  UNL1       -0.4804
     20 O           1.9901    4.6395   -1.6647 O.3     1  UNL1       -0.4914
     21 C           2.8253    3.5952   -2.1380 C.3     1  UNL1        0.0790
     22 C          -0.7392    7.0000    1.5516 C.3     1  UNL1        0.0243
     23 C           3.3082   -1.2451    1.2456 C.3     1  UNL1        0.1150
     24 C           4.5749   -0.7004    1.8958 C.ar    1  UNL1       -0.0102
     25 C           6.9226    0.2808    3.1600 C.ar    1  UNL1        0.1201
     26 C           6.1053    1.1348    2.4164 C.ar    1  UNL1       -0.0196
     27 C           4.9434    0.6483    1.7978 C.ar    1  UNL1       -0.0519
     28 C           5.3934   -1.5484    2.6556 C.ar    1  UNL1       -0.0519
     29 C           6.5518   -1.0618    3.2774 C.ar    1  UNL1       -0.0196
     30 O           8.0745    0.6281    3.8160 O.3     1  UNL1       -0.4951
     31 C           8.5326    1.9615    3.6339 C.3     1  UNL1        0.0788
     32 N          -2.1072    7.1951    1.0724 N.3     1  UNL1       -0.2938
     33 C          -3.3057    5.0592    0.4427 C.3     1  UNL1        0.0604
     34 C          -3.0942    6.1851    1.4670 C.3     1  UNL1        0.0228
     35 C          -2.2630    7.5740   -0.3366 C.3     1  UNL1        0.0228
     36 C          -2.5132    6.4078   -1.3066 C.3     1  UNL1        0.0604
     37 O          -3.5918    5.5780   -0.8607 O.3     1  UNL1       -0.3772
     38 H          -1.5439   -1.9764    0.2967 H       1  UNL1        0.0658
     39 H          -0.9295    2.1909   -0.4183 H       1  UNL1        0.0658
     40 H           0.5567    2.5670    2.2421 H       1  UNL1        0.0655
     41 H          -0.5877    4.6253    2.9176 H       1  UNL1        0.0622
     42 H           0.8033    6.5547   -0.6709 H       1  UNL1        0.0658
     43 H          -0.4023   -3.1828   -1.2031 H       1  UNL1        0.0660
     44 H           1.0921   -4.1078   -1.1532 H       1  UNL1        0.0660
     45 H          -0.1037   -4.3216    0.1423 H       1  UNL1        0.0660
     46 H          -3.0963    1.2487   -0.7363 H       1  UNL1        0.0355
     47 H          -3.3329   -0.4846   -0.7193 H       1  UNL1        0.0355
     48 H          -3.4070   -0.4199    1.8723 H       1  UNL1        0.0570
     49 H          -4.7998    1.4293    2.5778 H       1  UNL1        0.0532
     50 H          -4.5369    2.2806    0.9512 H       1  UNL1        0.0532
     51 H           3.6005    3.3327   -1.4106 H       1  UNL1        0.0660
     52 H           2.2332    2.7272   -2.4394 H       1  UNL1        0.0660
     53 H           3.3330    3.9664   -3.0354 H       1  UNL1        0.0660
     54 H          -0.7549    7.0507    2.6490 H       1  UNL1        0.0476
     55 H          -0.1264    7.8641    1.2626 H       1  UNL1        0.0476
     56 H           2.5947   -1.4698    2.0482 H       1  UNL1        0.0748
     57 H           3.5712   -2.1634    0.7072 H       1  UNL1        0.0748
     58 H           6.3376    2.1873    2.2975 H       1  UNL1        0.0654
     59 H           4.3284    1.3441    1.2292 H       1  UNL1        0.0622
     60 H           5.1410   -2.6010    2.7727 H       1  UNL1        0.0622
     61 H           7.1743   -1.7348    3.8615 H       1  UNL1        0.0654
     62 H           8.7525    2.1681    2.5809 H       1  UNL1        0.0660
     63 H           7.8189    2.6859    4.0388 H       1  UNL1        0.0660
     64 H           9.4671    2.0704    4.1946 H       1  UNL1        0.0660
     65 H          -2.4481    4.3828    0.3802 H       1  UNL1        0.0572
     66 H          -4.1720    4.4659    0.7447 H       1  UNL1        0.0572
     67 H          -4.0526    6.7109    1.5727 H       1  UNL1        0.0449
     68 H          -2.8758    5.7685    2.4568 H       1  UNL1        0.0449
     69 H          -3.1464    8.2255   -0.3814 H       1  UNL1        0.0449
     70 H          -1.4246    8.1879   -0.6841 H       1  UNL1        0.0449
     71 H          -2.7941    6.8054   -2.2876 H       1  UNL1        0.0572
     72 H          -1.6229    5.7904   -1.4510 H       1  UNL1        0.0572
@<TRIPOS>BOND
     1     1     2   ar
     2     2     3   ar
     3     3     4   ar
     4     4     5   ar
     5     5     6   ar
     6     1     6   ar
     7     6     7    1
     8     7     8    1
     9    10    11   ar
    10    11    12   ar
    11    12    13   ar
    12     9    13   ar
    13     9     8   ar
    14     8    10   ar
    15     2    14    1
    16    14    15    1
    17     4    16    1
    18    16    17    1
    19    17    18    2
    20     1    19    1
    21     9    20    1
    22    20    21    1
    23    12    22    1
    24    19    23    1
    25    23    24    1
    26    25    26   ar
    27    26    27   ar
    28    28    29   ar
    29    25    29   ar
    30    27    24   ar
    31    24    28   ar
    32    25    30    1
    33    30    31    1
    34    22    32    1
    35    33    34    1
    36    35    36    1
    37    36    37    1
    38    33    37    1
    39    34    32    1
    40    32    35    1
    41     3    38    1
    42     5    39    1
    43    10    40    1
    44    11    41    1
    45    13    42    1
    46    15    43    1
    47    15    44    1
    48    15    45    1
    49    16    46    1
    50    16    47    1
    51    17    48    1
    52    18    49    1
    53    18    50    1
    54    21    51    1
    55    21    52    1
    56    21    53    1
    57    22    54    1
    58    22    55    1
    59    23    56    1
    60    23    57    1
    61    26    58    1
    62    27    59    1
    63    28    60    1
    64    29    61    1
    65    31    62    1
    66    31    63    1
    67    31    64    1
    68    33    65    1
    69    33    66    1
    70    34    67    1
    71    34    68    1
    72    35    69    1
    73    35    70    1
    74    36    71    1
    75    36    72    1
@<TRIPOS>MOLECULE
mol_778_akc_md21060333
*****
 35 37 0 0 0
SMALL
GASTEIGER

@<TRIPOS>ATOM
      1 C          -3.9768   -0.7593   -1.2034 C.2     1  UNL1       -0.0073
      2 C          -4.9462    0.3441   -1.3099 C.2     1  UNL1        0.1824
      3 C          -5.0896    1.2088   -0.1232 C.2     1  UNL1       -0.0002
      4 C          -4.1113    1.2098    0.7930 C.2     1  UNL1       -0.0081
      5 C          -2.9152    0.3431    0.6476 C.2     1  UNL1        0.1831
      6 C          -3.0583   -0.8549   -0.2236 C.2     1  UNL1        0.0093
      7 O          -5.6407    0.4720   -2.3093 O.2     1  UNL1       -0.2876
      8 O          -1.8802    0.6316    1.2325 O.2     1  UNL1       -0.2876
      9 C          -6.3357    2.0359   -0.0430 C.3     1  UNL1       -0.0360
     10 C          -2.1646   -2.0984   -0.0589 C.3     1  UNL1        0.0023
     11 C          -3.5525   -3.6084    1.3116 C.3     1  UNL1       -0.0489
     12 C          -3.0654   -3.3951   -0.1234 C.3     1  UNL1       -0.0427
     13 C          -1.4566   -2.3481    1.3258 C.3     1  UNL1       -0.0195
     14 C          -2.3337   -3.3029    2.1183 C.3     1  UNL1       -0.0343
     15 C          -1.1805   -2.1218   -1.2461 C.3     1  UNL1       -0.0549
     16 C           0.0187   -2.6760    1.3097 C.3     1  UNL1       -0.0585
     17 C          -2.0687   -1.9424    2.6630 C.3     1  UNL1       -0.0432
     18 H          -4.0920   -1.5131   -1.9741 H       1  UNL1        0.0660
     19 H          -4.1287    1.8491    1.6681 H       1  UNL1        0.0660
     20 H          -7.2100    1.3824    0.0531 H       1  UNL1        0.0279
     21 H          -6.3265    2.7084    0.8201 H       1  UNL1        0.0279
     22 H          -6.4607    2.6458   -0.9428 H       1  UNL1        0.0279
     23 H          -4.3702   -2.9208    1.5589 H       1  UNL1        0.0268
     24 H          -3.9041   -4.6317    1.4690 H       1  UNL1        0.0268
     25 H          -3.9051   -3.3531   -0.8220 H       1  UNL1        0.0274
     26 H          -2.4524   -4.2584   -0.4152 H       1  UNL1        0.0274
     27 H          -1.8864   -4.1673    2.5896 H       1  UNL1        0.0306
     28 H          -0.4703   -1.2901   -1.1825 H       1  UNL1        0.0238
     29 H          -0.6035   -3.0519   -1.2846 H       1  UNL1        0.0238
     30 H          -1.6960   -2.0432   -2.2103 H       1  UNL1        0.0238
     31 H           0.2042   -3.5965    0.7444 H       1  UNL1        0.0235
     32 H           0.5985   -1.8620    0.8656 H       1  UNL1        0.0235
     33 H           0.4089   -2.8431    2.3196 H       1  UNL1        0.0235
     34 H          -1.4013   -1.8522    3.5172 H       1  UNL1        0.0274
     35 H          -2.8965   -1.2504    2.7253 H       1  UNL1        0.0274
@<TRIPOS>BOND
     1     1     2    1
     2     2     3    1
     3     3     4    2
     4     4     5    1
     5     5     6    1
     6     1     6    2
     7     2     7    2
     8     5     8    2
     9     3     9    1
    10    11    12    1
    11    13    14    1
    12    11    14    1
    13    12    10    1
    14    10    13    1
    15    13    16    1
    16    13    17    1
    17    14    17    1
    18     1    18    1
    19     4    19    1
    20     9    20    1
    21     9    21    1
    22     9    22    1
    23    11    23    1
    24    11    24    1
    25    12    25    1
    26    12    26    1
    27    14    27    1
    28    15    28    1
    29    15    29    1
    30    15    30    1
    31    16    31    1
    32    16    32    1
    33    16    33    1
    34    17    34    1
    35    17    35    1
    36    10    15    1
    37    10     6    1
@<TRIPOS>MOLECULE
mol_779_akc_jejmech2023115524
*****
 47 50 0 0 0
SMALL
GASTEIGER

@<TRIPOS>ATOM
      1 C          -0.1243    0.5599    0.5751 C.ar    1  UNL1        0.0649
      2 C          -1.3183    1.2357    0.8568 C.ar    1  UNL1       -0.0474
      3 C          -1.2736    2.4924    1.4583 C.ar    1  UNL1       -0.0609
      4 C          -0.0416    3.0648    1.7735 C.ar    1  UNL1       -0.0597
      5 C           1.1434    2.3840    1.4784 C.ar    1  UNL1       -0.0355
      6 C           1.1076    1.1256    0.8716 C.ar    1  UNL1        0.0785
      7 N           2.3169    0.4855    0.5753 N.ar    1  UNL1       -0.2288
      8 C           2.2961   -0.7138    0.0748 C.ar    1  UNL1        0.1438
      9 N           1.1106   -1.4096   -0.1631 N.ar    1  UNL1       -0.2954
     10 C          -0.1312   -0.7870   -0.0127 C.ar    1  UNL1        0.2618
     11 O          -1.2021   -1.3025   -0.3287 O.2     1  UNL1       -0.2669
     12 C           1.0485   -2.8142   -0.5440 C.3     1  UNL1        0.0167
     13 C           3.6194   -1.3336   -0.2414 C.ar    1  UNL1        0.0178
     14 C           4.6677   -1.1721    0.6732 C.ar    1  UNL1       -0.0476
     15 C           3.8631   -1.9875   -1.4552 C.ar    1  UNL1       -0.0476
     16 C           5.1237   -2.5329   -1.7214 C.ar    1  UNL1       -0.0193
     17 C           6.1577   -2.3722   -0.8040 C.ar    1  UNL1        0.1212
     18 C           5.9327   -1.6997    0.3968 C.ar    1  UNL1       -0.0193
     19 O           7.4125   -2.8922   -0.9885 O.3     1  UNL1       -0.4828
     20 C           7.9841   -2.5936   -2.2593 C.3     1  UNL1        0.1655
     21 C           8.1387   -3.8009   -3.1831 C.2     1  UNL1        0.2559
     22 O           8.3731   -3.6393   -4.3796 O.2     1  UNL1       -0.2717
     23 N           8.0028   -5.0168   -2.5525 N.am    1  UNL1       -0.2676
     24 C           8.1559   -6.2658   -3.1564 C.ar    1  UNL1        0.1249
     25 N           7.4671   -7.2665   -2.5702 N.ar    1  UNL1       -0.2401
     26 C           8.9646   -6.4650   -4.2697 C.ar    1  UNL1       -0.0215
     27 C           9.0259   -7.7322   -4.8430 C.ar    1  UNL1       -0.0571
     28 C           8.2716   -8.7592   -4.2953 C.ar    1  UNL1       -0.0435
     29 C           7.5198   -8.4808   -3.1661 C.ar    1  UNL1        0.0297
     30 H          -2.2764    0.7803    0.6167 H       1  UNL1        0.0626
     31 H          -2.1958    3.0213    1.6849 H       1  UNL1        0.0618
     32 H          -0.0007    4.0422    2.2479 H       1  UNL1        0.0618
     33 H           2.1020    2.8346    1.7213 H       1  UNL1        0.0639
     34 H           0.1862   -3.2983   -0.0734 H       1  UNL1        0.0457
     35 H           0.9228   -2.8737   -1.6298 H       1  UNL1        0.0457
     36 H           1.9416   -3.3607   -0.2358 H       1  UNL1        0.0457
     37 H           4.5070   -0.6259    1.6012 H       1  UNL1        0.0626
     38 H           3.0842   -2.0739   -2.2081 H       1  UNL1        0.0626
     39 H           5.2741   -3.0775   -2.6500 H       1  UNL1        0.0654
     40 H           6.7409   -1.5671    1.1109 H       1  UNL1        0.0654
     41 H           7.4405   -1.8071   -2.7994 H       1  UNL1        0.0795
     42 H           8.9957   -2.2145   -2.0764 H       1  UNL1        0.0795
     43 H           7.5261   -5.0393   -1.6582 H       1  UNL1        0.1563
     44 H           9.5603   -5.6630   -4.6914 H       1  UNL1        0.0652
     45 H           9.6507   -7.9058   -5.7145 H       1  UNL1        0.0619
     46 H           8.2720   -9.7498   -4.7357 H       1  UNL1        0.0633
     47 H           6.9115   -9.2515   -2.7008 H       1  UNL1        0.0830
@<TRIPOS>BOND
     1     1     2   ar
     2     1     6   ar
     3     1    10   ar
     4     2     3   ar
     5     3     4   ar
     6     4     5   ar
     7     5     6   ar
     8     6     7   ar
     9     7     8   ar
    10     8     9   ar
    11     9    10   ar
    12    10    11    2
    13     9    12    1
    14     8    13    1
    15    14    13   ar
    16    13    15   ar
    17    14    18   ar
    18    15    16   ar
    19    16    17   ar
    20    17    18   ar
    21    17    19    1
    22    19    20    1
    23    20    21    1
    24    21    22    2
    25    21    23   am
    26    23    24    1
    27    25    24   ar
    28    24    26   ar
    29    25    29   ar
    30    26    27   ar
    31    27    28   ar
    32    28    29   ar
    33     2    30    1
    34     3    31    1
    35     4    32    1
    36     5    33    1
    37    12    34    1
    38    12    35    1
    39    12    36    1
    40    14    37    1
    41    15    38    1
    42    16    39    1
    43    18    40    1
    44    20    41    1
    45    20    42    1
    46    23    43    1
    47    26    44    1
    48    27    45    1
    49    28    46    1
    50    29    47    1
@<TRIPOS>MOLECULE
mol_77_akc_acsjmedchem6b01447
>76.sdf
 64 70 0 0 0
SMALL
GASTEIGER

@<TRIPOS>ATOM
      1 C          10.6230   -3.2116   -5.4664 C.3     1  UNL1        0.0790
      2 O           9.9903   -2.2596   -6.3052 O.3     1  UNL1       -0.4915
      3 C           8.9647   -1.5066   -5.7972 C.ar    1  UNL1        0.1615
      4 C           8.4567   -1.4722   -4.4896 C.ar    1  UNL1        0.1618
      5 O           9.0591   -2.2260   -3.5150 O.3     1  UNL1       -0.4914
      6 C           8.2021   -2.7030   -2.4822 C.3     1  UNL1        0.0790
      7 C           7.3868   -0.6076   -4.1881 C.ar    1  UNL1       -0.0122
      8 C           6.7900    0.2062   -5.1654 C.ar    1  UNL1       -0.0316
      9 C           7.3187    0.1602   -6.4651 C.ar    1  UNL1       -0.0540
     10 C           8.3855   -0.6850   -6.7716 C.ar    1  UNL1       -0.0160
     11 C           5.6499    1.1387   -4.7703 C.3     1  UNL1        0.0444
     12 C           5.9995    2.5847   -4.9771 C.2     1  UNL1        0.0239
     13 C           5.5471    3.3471   -5.9935 C.2     1  UNL1        0.0171
     14 C           5.9470    4.7861   -5.9178 C.3     1  UNL1       -0.0071
     15 C           6.7778    4.8759   -4.6389 C.3     1  UNL1        0.0154
     16 C           6.7309    3.4738   -4.0894 C.2     1  UNL1        0.1619
     17 O           7.2054    3.1198   -3.0232 O.2     1  UNL1       -0.2923
     18 N           4.7116    2.8361   -6.9702 N.pl3   1  UNL1       -0.3021
     19 C           4.1709    1.6009   -6.7564 C.ar    1  UNL1        0.1310
     20 C           4.5006    0.7837   -5.6779 C.ar    1  UNL1        0.0322
     21 C           3.4510   -0.1507   -5.6534 C.ar    1  UNL1        0.1011
     22 N           2.6417   -0.0331   -6.7203 N.ar    1  UNL1       -0.1643
     23 N           3.1272    1.0035   -7.4264 N.ar    1  UNL1       -0.2175
     24 C           2.5237    1.3676   -8.6557 C.ar    1  UNL1        0.0689
     25 C           1.1897    1.0132   -8.8980 C.ar    1  UNL1       -0.0347
     26 C           0.5683    1.4063  -10.0888 C.ar    1  UNL1       -0.0400
     27 C           1.2886    2.1146  -11.0544 C.ar    1  UNL1        0.0594
     28 CL          0.4594    2.5849  -12.4936 Cl      1  UNL1       -0.0820
     29 C           2.6364    2.4226  -10.8339 C.ar    1  UNL1        0.0613
     30 CL          3.6051    3.2478  -12.0004 Cl      1  UNL1       -0.0820
     31 C           3.2536    2.0524   -9.6322 C.ar    1  UNL1       -0.0164
     32 C           3.0114   -1.0675   -4.6023 C.ar    1  UNL1        0.0275
     33 C           2.5648   -2.3485   -4.8630 C.ar    1  UNL1        0.0120
     34 N           1.5457   -2.5945   -3.9827 N.ar    1  UNL1       -0.3600
     35 C           1.4612   -1.5809   -3.0554 C.ar    1  UNL1        0.0471
     36 C           2.4931   -0.6749   -3.3297 C.ar    1  UNL1        0.0089
     37 C           2.6601    0.4188   -2.4521 C.ar    1  UNL1       -0.0520
     38 C           1.7902    0.5769   -1.3656 C.ar    1  UNL1       -0.0611
     39 C           0.7095   -0.2821   -1.1923 C.ar    1  UNL1       -0.0598
     40 C           0.5203   -1.3750   -2.0398 C.ar    1  UNL1       -0.0378
     41 H          11.2150   -2.7164   -4.6910 H       1  UNL1        0.0660
     42 H           9.9054   -3.9246   -5.0472 H       1  UNL1        0.0660
     43 H          11.3156   -3.7866   -6.0880 H       1  UNL1        0.0660
     44 H           7.9500   -1.9045   -1.7780 H       1  UNL1        0.0660
     45 H           7.2993   -3.1669   -2.8943 H       1  UNL1        0.0660
     46 H           8.7491   -3.4689   -1.9246 H       1  UNL1        0.0660
     47 H           7.0198   -0.5282   -3.1685 H       1  UNL1        0.0658
     48 H           6.9139    0.7865   -7.2570 H       1  UNL1        0.0622
     49 H           8.7754   -0.7039   -7.7871 H       1  UNL1        0.0655
     50 H           5.3635    0.9771   -3.7256 H       1  UNL1        0.0449
     51 H           5.0647    5.4304   -5.8525 H       1  UNL1        0.0330
     52 H           6.5294    5.0855   -6.7921 H       1  UNL1        0.0330
     53 H           7.8123    5.1620   -4.8523 H       1  UNL1        0.0349
     54 H           6.3313    5.5752   -3.9238 H       1  UNL1        0.0349
     55 H           4.2552    3.5293   -7.5635 H       1  UNL1        0.1533
     56 H           0.6112    0.4642   -8.1590 H       1  UNL1        0.0639
     57 H          -0.4782    1.1595  -10.2517 H       1  UNL1        0.0633
     58 H           4.3130    2.2549   -9.4987 H       1  UNL1        0.0654
     59 H           2.7178   -2.9897   -5.7199 H       1  UNL1        0.0814
     60 H           0.8854   -3.3549   -4.0639 H       1  UNL1        0.1654
     61 H           3.4599    1.1360   -2.5954 H       1  UNL1        0.0624
     62 H           1.9418    1.3995   -0.6712 H       1  UNL1        0.0618
     63 H           0.0015   -0.1016   -0.3868 H       1  UNL1        0.0618
     64 H          -0.3360   -2.0304   -1.9200 H       1  UNL1        0.0638
@<TRIPOS>BOND
     1     1    41    1
     2     1    42    1
     3     1    43    1
     4     2     1    1
     5     3     2    1
     6     4     3   ar
     7     5     4    1
     8     6     5    1
     9     6    44    1
    10     6    45    1
    11     6    46    1
    12     7     4   ar
    13     7    47    1
    14     8     7   ar
    15     9     8   ar
    16     9    48    1
    17    10     9   ar
    18    10     3   ar
    19    10    49    1
    20    12    11    1
    21    13    12    2
    22    14    13    1
    23    14    51    1
    24    14    52    1
    25    15    14    1
    26    15    53    1
    27    15    54    1
    28    16    15    1
    29    16    12    1
    30    17    16    2
    31    18    13    1
    32    18    55    1
    33    19    18    1
    34    20    19   ar
    35    20    11    1
    36    21    20   ar
    37    22    21   ar
    38    23    22   ar
    39    23    19   ar
    40    24    23    1
    41    25    24   ar
    42    25    56    1
    43    26    25   ar
    44    26    57    1
    45    27    26   ar
    46    28    27    1
    47    29    27   ar
    48    30    29    1
    49    31    29   ar
    50    31    24   ar
    51    31    58    1
    52    32    21    1
    53    33    32   ar
    54    33    59    1
    55    34    33   ar
    56    34    60    1
    57    35    34   ar
    58    36    35   ar
    59    36    32   ar
    60    37    36   ar
    61    37    61    1
    62    38    37   ar
    63    38    62    1
    64    39    38   ar
    65    39    63    1
    66    40    39   ar
    67    40    35   ar
    68    40    64    1
    69    11    50    1
    70    11     8    1
@<TRIPOS>MOLECULE
mol_780_akc_rs3rs_2711791v1
*****
 52 55 0 0 0
SMALL
GASTEIGER

@<TRIPOS>ATOM
      1 C           0.9787    2.8539   -2.9618 C.3     1  UNL1       -0.0135
      2 S           0.0187    4.3993   -2.9867 S.3     1  UNL1       -0.1285
      3 C          -1.0245    4.1195   -1.5676 C.ar    1  UNL1        0.0094
      4 C          -1.9825    3.0993   -1.5794 C.ar    1  UNL1       -0.0472
      5 C          -2.7431    2.8338   -0.4418 C.ar    1  UNL1       -0.0451
      6 C          -2.5393    3.5880    0.7193 C.ar    1  UNL1        0.0342
      7 S          -3.4951    3.1977    2.1980 S.3     1  UNL1       -0.0857
      8 C          -2.2401    3.5894    3.4187 C.ar    1  UNL1        0.0341
      9 C          -2.1744    2.8448    4.5995 C.ar    1  UNL1       -0.0462
     10 C          -1.1159    3.0392    5.4832 C.ar    1  UNL1       -0.0606
     11 C          -0.1233    3.9700    5.1893 C.ar    1  UNL1       -0.0599
     12 C          -0.2200    4.7589    4.0397 C.ar    1  UNL1       -0.0393
     13 C          -1.2979    4.6088    3.1548 C.ar    1  UNL1        0.0479
     14 N          -1.4085    5.3543    1.9583 N.pl3   1  UNL1       -0.2981
     15 C          -0.9675    6.7531    1.9678 C.3     1  UNL1        0.0224
     16 C          -2.0578    7.7050    1.4393 C.3     1  UNL1        0.0064
     17 C          -3.2929    8.0136    2.3218 C.3     1  UNL1       -0.0197
     18 C          -2.9313    8.3509    3.7774 C.3     1  UNL1       -0.0094
     19 C          -4.1486    8.8280    4.5628 C.3     1  UNL1       -0.0432
     20 C          -5.2510    7.7824    4.5318 C.3     1  UNL1       -0.0123
     21 C          -5.6121    7.3798    3.1100 C.3     1  UNL1       -0.0319
     22 N          -4.3718    6.9360    2.3350 N.4     1  UNL1        0.2353
     23 C          -4.8233    6.4873    0.9665 C.3     1  UNL1       -0.0428
     24 C          -1.6135    4.6594    0.7391 C.ar    1  UNL1        0.0489
     25 C          -0.8695    4.9157   -0.4230 C.ar    1  UNL1       -0.0258
     26 H           1.6753    2.8475   -3.8049 H       1  UNL1        0.0344
     27 H           0.3255    1.9814   -3.0508 H       1  UNL1        0.0344
     28 H           1.5558    2.7792   -2.0353 H       1  UNL1        0.0344
     29 H          -2.1279    2.4914   -2.4706 H       1  UNL1        0.0629
     30 H          -3.4643    2.0156   -0.4600 H       1  UNL1        0.0630
     31 H          -2.9177    2.0802    4.8168 H       1  UNL1        0.0629
     32 H          -1.0407    2.4313    6.3816 H       1  UNL1        0.0618
     33 H           0.7428    4.0632    5.8412 H       1  UNL1        0.0618
     34 H           0.6039    5.4314    3.8105 H       1  UNL1        0.0636
     35 H          -0.6902    7.0910    2.9727 H       1  UNL1        0.0470
     36 H          -0.0542    6.8737    1.3730 H       1  UNL1        0.0470
     37 H          -1.5538    8.6720    1.2963 H       1  UNL1        0.0335
     38 H          -2.3697    7.4102    0.4327 H       1  UNL1        0.0335
     39 H          -3.7838    8.8884    1.8745 H       1  UNL1        0.0851
     40 H          -2.1658    9.1353    3.7996 H       1  UNL1        0.0320
     41 H          -2.5125    7.4729    4.2840 H       1  UNL1        0.0320
     42 H          -4.5187    9.7689    4.1360 H       1  UNL1        0.0269
     43 H          -3.8681    9.0388    5.6009 H       1  UNL1        0.0269
     44 H          -6.1435    8.1773    5.0310 H       1  UNL1        0.0317
     45 H          -4.9380    6.8961    5.0972 H       1  UNL1        0.0317
     46 H          -6.0478    8.2238    2.5624 H       1  UNL1        0.0814
     47 H          -6.3152    6.5470    3.1182 H       1  UNL1        0.0814
     48 H          -3.9780    6.0983    2.7955 H       1  UNL1        0.2033
     49 H          -3.9995    5.9888    0.4643 H       1  UNL1        0.0778
     50 H          -5.6469    5.7786    1.0910 H       1  UNL1        0.0778
     51 H          -5.1490    7.3658    0.4024 H       1  UNL1        0.0778
     52 H          -0.1028    5.6848   -0.4359 H       1  UNL1        0.0647
@<TRIPOS>UNITY_ATOM_ATTR
22 1
charge 1
@<TRIPOS>BOND
     1     1     2    1
     2     2     3    1
     3     3     4   ar
     4     4     5   ar
     5     5     6   ar
     6     6     7    1
     7     7     8    1
     8     8     9   ar
     9     9    10   ar
    10    10    11   ar
    11    11    12   ar
    12    12    13   ar
    13     8    13   ar
    14    13    14    1
    15    14    15    1
    16    15    16    1
    17    17    18    1
    18    18    19    1
    19    19    20    1
    20    20    21    1
    21    21    22    1
    22    17    22    1
    23    22    23    1
    24    14    24    1
    25     6    24   ar
    26    24    25   ar
    27     3    25   ar
    28     1    26    1
    29     1    27    1
    30     1    28    1
    31     4    29    1
    32     5    30    1
    33     9    31    1
    34    10    32    1
    35    11    33    1
    36    12    34    1
    37    15    35    1
    38    15    36    1
    39    16    37    1
    40    16    38    1
    41    18    40    1
    42    18    41    1
    43    19    42    1
    44    19    43    1
    45    20    44    1
    46    20    45    1
    47    21    46    1
    48    21    47    1
    49    22    48    1
    50    23    49    1
    51    23    50    1
    52    23    51    1
    53    25    52    1
    54    17    39    1
    55    17    16    1
@<TRIPOS>MOLECULE
mol_781_akc_cbdv202300523
Molecule
 47 48 0 0 0
SMALL
GASTEIGER
****
Time = Mon Jun 19 08:54:26 2023
@<TRIPOS>ATOM
      1 C           0.7848   -0.3569   -0.3636 C.2     1  UNL1       -0.0765
      2 C           0.0190   -1.6248   -0.1358 C.3     1  UNL1       -0.0317
      3 C          -1.3441   -1.4374    0.5333 C.3     1  UNL1       -0.0443
      4 C          -2.1124   -0.1228    0.2261 C.3     1  UNL1       -0.0165
      5 C          -1.3464    0.8856   -0.6576 C.3     1  UNL1       -0.0297
      6 C           0.1434    0.7959   -0.5922 C.2     1  UNL1       -0.0847
      7 C           2.2812   -0.4656   -0.4103 C.3     1  UNL1       -0.0438
      8 C          -3.6053   -0.3740   -0.2574 C.3     1  UNL1        0.0312
      9 C          -4.3874   -0.9983    0.9215 C.3     1  UNL1       -0.0437
     10 C          -4.2712    0.9732   -0.6151 C.3     1  UNL1       -0.0437
     11 N          -3.5742   -1.3118   -1.4248 N.am    1  UNL1       -0.3202
     12 C          -4.5619   -1.9485   -2.1326 C.2     1  UNL1        0.1472
     13 S          -6.2032   -1.6706   -2.0703 S.2     1  UNL1       -0.0174
     14 N          -4.1273   -2.9398   -2.9936 N.am    1  UNL1       -0.2456
     15 N          -2.7995   -3.3300   -3.1009 N.am    1  UNL1       -0.2311
     16 C          -2.3219   -4.5352   -3.5770 C.2     1  UNL1        0.2602
     17 O          -1.1152   -4.5583   -3.8680 O.2     1  UNL1       -0.2687
     18 C          -3.1090   -5.7899   -3.7807 C.ar    1  UNL1        0.0410
     19 C          -5.0155   -7.2318   -3.6903 C.ar    1  UNL1        0.0283
     20 C          -4.4292   -6.0047   -3.3945 C.ar    1  UNL1       -0.0314
     21 C          -2.4340   -6.8509   -4.4079 C.ar    1  UNL1       -0.0314
     22 C          -3.0974   -8.0443   -4.6446 C.ar    1  UNL1        0.0283
     23 N          -4.3849   -8.2491   -4.3085 N.ar    1  UNL1       -0.2632
     24 H          -0.1124   -2.1239   -1.1047 H       1  UNL1        0.0310
     25 H           0.6089   -2.3095    0.4867 H       1  UNL1        0.0310
     26 H          -1.1917   -1.4795    1.6208 H       1  UNL1        0.0272
     27 H          -1.9472   -2.3247    0.3095 H       1  UNL1        0.0272
     28 H          -2.1973    0.3854    1.2009 H       1  UNL1        0.0324
     29 H          -1.6285    1.8991   -0.3394 H       1  UNL1        0.0311
     30 H          -1.6375    0.7955   -1.7103 H       1  UNL1        0.0311
     31 H           0.7035    1.7047   -0.8032 H       1  UNL1        0.0572
     32 H           2.6797   -0.6652    0.5889 H       1  UNL1        0.0274
     33 H           2.5834   -1.2822   -1.0757 H       1  UNL1        0.0274
     34 H           2.7484    0.4514   -0.7861 H       1  UNL1        0.0274
     35 H          -4.2493   -0.4150    1.8392 H       1  UNL1        0.0250
     36 H          -5.4643   -1.0248    0.7333 H       1  UNL1        0.0250
     37 H          -4.0694   -2.0265    1.1234 H       1  UNL1        0.0250
     38 H          -3.8477    1.4129   -1.5236 H       1  UNL1        0.0250
     39 H          -5.3463    0.8747   -0.7867 H       1  UNL1        0.0250
     40 H          -4.1493    1.6951    0.2007 H       1  UNL1        0.0250
     41 H          -2.6456   -1.5562   -1.7279 H       1  UNL1        0.1483
     42 H          -4.8096   -3.3282   -3.6390 H       1  UNL1        0.1718
     43 H          -2.1183   -2.5892   -3.2429 H       1  UNL1        0.1731
     44 H          -6.0515   -7.4333   -3.4325 H       1  UNL1        0.0830
     45 H          -5.0146   -5.2773   -2.8559 H       1  UNL1        0.0640
     46 H          -1.3948   -6.7617   -4.7134 H       1  UNL1        0.0640
     47 H          -2.5963   -8.8832   -5.1179 H       1  UNL1        0.0830
@<TRIPOS>BOND
     1     1     2    1
     2     1     6    2
     3     1     7    1
     4     2     3    1
     5     2    24    1
     6     2    25    1
     7     3     4    1
     8     3    26    1
     9     3    27    1
    10     4     5    1
    11     5     6    1
    12     5    29    1
    13     5    30    1
    14     6    31    1
    15     7    32    1
    16     7    33    1
    17     7    34    1
    18     8     9    1
    19     8    10    1
    20     8    11    1
    21     9    35    1
    22     9    36    1
    23     9    37    1
    24    10    38    1
    25    10    39    1
    26    10    40    1
    27    11    12    1
    28    11    41    1
    29    12    13    2
    30    12    14    1
    31    14    15    1
    32    14    42    1
    33    15    16   am
    34    15    43    1
    35    16    17    2
    36    16    18    1
    37    18    20   ar
    38    18    21   ar
    39    19    20   ar
    40    19    23   ar
    41    19    44    1
    42    20    45    1
    43    21    22   ar
    44    21    46    1
    45    22    23   ar
    46    22    47    1
    47     4    28    1
    48     4     8    1
@<TRIPOS>MOLECULE
mol_782_akc_0739110220232224897
*****
 73 77 0 0 0
SMALL
GASTEIGER

@<TRIPOS>ATOM
      1 C          -2.2738    0.9396    0.0999 C.3     1  UNL1       -0.0228
      2 C          -0.8938    1.5699   -0.1705 C.3     1  UNL1       -0.0086
      3 C           0.2807    0.6292    0.0023 C.2     1  UNL1        0.0158
      4 C           0.1775   -0.7107    0.1384 C.2     1  UNL1        0.0240
      5 C          -1.1890   -1.2997    0.1353 C.2     1  UNL1        0.1621
      6 C          -2.2897   -0.4745   -0.4960 C.3     1  UNL1        0.0157
      7 C           1.4189   -1.5937    0.3142 C.3     1  UNL1        0.0471
      8 C           2.7203   -0.8230   -0.0197 C.2     1  UNL1        0.0650
      9 C           2.7154    0.5325   -0.1223 C.2     1  UNL1        0.0157
     10 N           1.5218    1.2246   -0.0006 N.pl3   1  UNL1       -0.3205
     11 C           3.9678   -1.5786   -0.2702 C.2     1  UNL1        0.3375
     12 O           4.8522   -1.2025   -1.0329 O.2     1  UNL1       -0.2452
     13 O           4.0165   -2.7203    0.4532 O.3     1  UNL1       -0.4616
     14 O          -1.4183   -2.3988    0.6429 O.2     1  UNL1       -0.2923
     15 C           1.2902   -2.9500   -0.3994 C.ar    1  UNL1       -0.0350
     16 C           1.0558   -3.0505   -1.7780 C.ar    1  UNL1       -0.0542
     17 C           0.9074   -4.3078   -2.3896 C.ar    1  UNL1       -0.0196
     18 C           1.0335   -5.4836   -1.6451 C.ar    1  UNL1        0.1211
     19 C           1.2767   -5.3908   -0.2758 C.ar    1  UNL1       -0.0196
     20 C           1.3922   -4.1420    0.3425 C.ar    1  UNL1       -0.0542
     21 O           0.9317   -6.7647   -2.1233 O.3     1  UNL1       -0.4858
     22 C           1.0485   -6.9329   -3.5415 C.3     1  UNL1        0.1346
     23 N           1.6408  -10.4907   -4.1163 N.ar    1  UNL1       -0.2470
     24 N           1.7592   -9.9656   -5.3513 N.ar    1  UNL1       -0.0650
     25 N           1.5363   -8.6618   -5.2562 N.ar    1  UNL1       -0.1310
     26 C           1.3155   -8.3511   -3.9351 C.ar    1  UNL1        0.1199
     27 C           1.4147   -9.5100   -3.1903 C.ar    1  UNL1        0.0524
     28 C           1.8889  -11.9082   -3.8897 C.3     1  UNL1        0.0682
     29 C           0.6438  -12.7584   -4.0137 C.ar    1  UNL1       -0.0261
     30 C          -0.0643  -12.8558   -5.2226 C.ar    1  UNL1       -0.0568
     31 C          -1.2372  -13.6135   -5.3031 C.ar    1  UNL1       -0.0614
     32 C          -1.7092  -14.2955   -4.1837 C.ar    1  UNL1       -0.0617
     33 C          -0.9877  -14.2529   -2.9938 C.ar    1  UNL1       -0.0614
     34 C           0.1851  -13.4980   -2.9116 C.ar    1  UNL1       -0.0568
     35 C           3.9037    1.4389   -0.3695 C.3     1  UNL1       -0.0260
     36 C          -2.5567    0.8821    1.6160 C.3     1  UNL1       -0.0591
     37 C          -3.3601    1.8022   -0.5634 C.3     1  UNL1       -0.0591
     38 C           5.1692   -3.5358    0.2044 C.3     1  UNL1        0.0900
     39 C           5.1307   -4.2072   -1.1622 C.3     1  UNL1       -0.0306
     40 H          -0.7612    2.4472    0.4768 H       1  UNL1        0.0331
     41 H          -0.8526    1.9424   -1.2037 H       1  UNL1        0.0331
     42 H          -3.2540   -0.9662   -0.3234 H       1  UNL1        0.0350
     43 H          -2.1203   -0.4571   -1.5805 H       1  UNL1        0.0350
     44 H           1.4710   -1.8025    1.3947 H       1  UNL1        0.0450
     45 H           1.5576    2.2293   -0.1602 H       1  UNL1        0.1516
     46 H           0.9625   -2.1527   -2.3823 H       1  UNL1        0.0622
     47 H           0.6851   -4.3291   -3.4517 H       1  UNL1        0.0654
     48 H           1.3830   -6.2964    0.3165 H       1  UNL1        0.0654
     49 H           1.5766   -4.1102    1.4156 H       1  UNL1        0.0622
     50 H           0.1134   -6.6122   -4.0175 H       1  UNL1        0.0764
     51 H           1.8772   -6.3240   -3.9233 H       1  UNL1        0.0764
     52 H           1.3403   -9.7060   -2.1311 H       1  UNL1        0.0846
     53 H           2.6575  -12.2415   -4.5963 H       1  UNL1        0.0559
     54 H           2.3136  -11.9923   -2.8822 H       1  UNL1        0.0559
     55 H           0.2834  -12.3325   -6.1126 H       1  UNL1        0.0621
     56 H          -1.7889  -13.6643   -6.2391 H       1  UNL1        0.0618
     57 H          -2.6352  -14.8620   -4.2398 H       1  UNL1        0.0618
     58 H          -1.3422  -14.8030   -2.1257 H       1  UNL1        0.0618
     59 H           0.7343  -13.4909   -1.9727 H       1  UNL1        0.0621
     60 H           3.7343    2.0306   -1.2768 H       1  UNL1        0.0290
     61 H           4.0135    2.1355    0.4700 H       1  UNL1        0.0290
     62 H           4.8665    0.9439   -0.4791 H       1  UNL1        0.0290
     63 H          -2.5849    1.8862    2.0508 H       1  UNL1        0.0235
     64 H          -3.5215    0.4019    1.8140 H       1  UNL1        0.0235
     65 H          -1.7910    0.3176    2.1601 H       1  UNL1        0.0235
     66 H          -4.3565    1.3749   -0.4088 H       1  UNL1        0.0235
     67 H          -3.3615    2.8179   -0.1504 H       1  UNL1        0.0235
     68 H          -3.1977    1.8850   -1.6443 H       1  UNL1        0.0235
     69 H           6.0761   -2.9330    0.3253 H       1  UNL1        0.0695
     70 H           5.1872   -4.3050    0.9836 H       1  UNL1        0.0695
     71 H           4.9671   -3.4918   -1.9738 H       1  UNL1        0.0262
     72 H           6.0728   -4.7293   -1.3531 H       1  UNL1        0.0262
     73 H           4.3138   -4.9324   -1.2169 H       1  UNL1        0.0262
@<TRIPOS>BOND
     1     1     2    1
     2     2     3    1
     3     3     4    2
     4     4     5    1
     5     5     6    1
     6     1     6    1
     7     4     7    1
     8     7     8    1
     9     8     9    2
    10     9    10    1
    11     3    10    1
    12    11    12    2
    13    11    13    1
    14     8    11    1
    15     5    14    2
    16    15    16   ar
    17    16    17   ar
    18    17    18   ar
    19    18    19   ar
    20    19    20   ar
    21    15    20   ar
    22    23    24   ar
    23    24    25   ar
    24    25    26   ar
    25    26    27   ar
    26    23    27   ar
    27    28    29    1
    28    29    30   ar
    29    30    31   ar
    30    31    32   ar
    31    32    33   ar
    32    33    34   ar
    33    29    34   ar
    34    23    28    1
    35    22    26    1
    36    21    22    1
    37    18    21    1
    38     7    15    1
    39     9    35    1
    40     1    36    1
    41     1    37    1
    42    38    39    1
    43    13    38    1
    44     2    40    1
    45     2    41    1
    46     6    42    1
    47     6    43    1
    48     7    44    1
    49    10    45    1
    50    16    46    1
    51    17    47    1
    52    19    48    1
    53    20    49    1
    54    22    50    1
    55    22    51    1
    56    27    52    1
    57    28    53    1
    58    28    54    1
    59    30    55    1
    60    31    56    1
    61    32    57    1
    62    33    58    1
    63    34    59    1
    64    35    60    1
    65    35    61    1
    66    35    62    1
    67    36    63    1
    68    36    64    1
    69    36    65    1
    70    37    66    1
    71    37    67    1
    72    37    68    1
    73    38    69    1
    74    38    70    1
    75    39    71    1
    76    39    72    1
    77    39    73    1
@<TRIPOS>MOLECULE
mol_783_akc_0739110220232224897
*****
 73 77 0 0 0
SMALL
GASTEIGER

@<TRIPOS>ATOM
      1 C          -2.1109    0.9989   -0.0674 C.3     1  UNL1       -0.0228
      2 C          -0.7360    1.5962   -0.4182 C.3     1  UNL1       -0.0086
      3 C           0.4211    0.6876   -0.0986 C.2     1  UNL1        0.0158
      4 C           0.3004   -0.6452    0.0390 C.2     1  UNL1        0.0240
      5 C          -1.0088   -1.3045   -0.2081 C.2     1  UNL1        0.1621
      6 C          -2.1977   -0.4428   -0.5954 C.3     1  UNL1        0.0157
      7 C           1.5151   -1.5082    0.3497 C.3     1  UNL1        0.0471
      8 C           2.8381   -0.7842    0.0184 C.2     1  UNL1        0.0650
      9 C           2.8605    0.5704   -0.0972 C.2     1  UNL1        0.0157
     10 N           1.6651    1.2807    0.0135 N.pl3   1  UNL1       -0.3205
     11 C           3.9669   -1.7218   -0.2273 C.2     1  UNL1        0.3375
     12 O           3.8038   -2.8770   -0.6008 O.2     1  UNL1       -0.2452
     13 O           5.1671   -1.1523    0.0199 O.3     1  UNL1       -0.4616
     14 O          -1.1046   -2.5305   -0.1888 O.2     1  UNL1       -0.2923
     15 C           1.5096   -1.9658    1.8152 C.ar    1  UNL1       -0.0350
     16 C           1.4835   -3.3303    2.1439 C.ar    1  UNL1       -0.0542
     17 C           1.5182   -3.7433    3.4811 C.ar    1  UNL1       -0.0196
     18 C           1.5837   -2.8051    4.5188 C.ar    1  UNL1        0.1211
     19 C           1.5710   -1.4482    4.2013 C.ar    1  UNL1       -0.0196
     20 C           1.5429   -1.0337    2.8669 C.ar    1  UNL1       -0.0542
     21 O           1.6576   -3.3247    5.7838 O.3     1  UNL1       -0.4858
     22 C           2.0819   -2.4118    6.8068 C.3     1  UNL1        0.1346
     23 N           3.2020   -4.4738    9.5801 N.ar    1  UNL1       -0.2470
     24 N           3.5519   -3.2349    9.9774 N.ar    1  UNL1       -0.0650
     25 N           3.1407   -2.3864    9.0465 N.ar    1  UNL1       -0.1310
     26 C           2.5359   -3.1045    8.0435 C.ar    1  UNL1        0.1199
     27 C           2.5289   -4.4380    8.3929 C.ar    1  UNL1        0.0524
     28 C           3.7668   -5.6371   10.2389 C.3     1  UNL1        0.0682
     29 C           2.8926   -6.1955   11.3316 C.ar    1  UNL1       -0.0261
     30 C           2.3585   -7.4882   11.2187 C.ar    1  UNL1       -0.0568
     31 C           1.6456   -8.0559   12.2760 C.ar    1  UNL1       -0.0614
     32 C           1.4536   -7.3376   13.4541 C.ar    1  UNL1       -0.0617
     33 C           1.9566   -6.0434   13.5695 C.ar    1  UNL1       -0.0614
     34 C           2.6705   -5.4732   12.5140 C.ar    1  UNL1       -0.0568
     35 C           4.0430    1.4592   -0.3990 C.3     1  UNL1       -0.0260
     36 C          -2.3422    1.0273    1.4573 C.3     1  UNL1       -0.0591
     37 C          -3.2014    1.8557   -0.7363 C.3     1  UNL1       -0.0591
     38 C           6.3202   -1.9537   -0.2716 C.3     1  UNL1        0.0900
     39 C           6.6817   -2.7820    0.9442 C.3     1  UNL1       -0.0306
     40 H          -0.6110    2.5521    0.1076 H       1  UNL1        0.0331
     41 H          -0.6840    1.8248   -1.4913 H       1  UNL1        0.0331
     42 H          -3.1065   -0.9260   -0.2164 H       1  UNL1        0.0350
     43 H          -2.2479   -0.4486   -1.6917 H       1  UNL1        0.0350
     44 H           1.4444   -2.3881   -0.3030 H       1  UNL1        0.0450
     45 H           1.7137    2.2764   -0.1934 H       1  UNL1        0.1516
     46 H           1.4451   -4.0829    1.3569 H       1  UNL1        0.0622
     47 H           1.5069   -4.8044    3.7147 H       1  UNL1        0.0654
     48 H           1.5848   -0.6782    4.9669 H       1  UNL1        0.0654
     49 H           1.5549    0.0337    2.6559 H       1  UNL1        0.0622
     50 H           2.9348   -1.8192    6.4499 H       1  UNL1        0.0764
     51 H           1.2515   -1.7426    7.0603 H       1  UNL1        0.0764
     52 H           2.1780   -5.3237    7.8848 H       1  UNL1        0.0846
     53 H           3.9537   -6.3872    9.4613 H       1  UNL1        0.0559
     54 H           4.7439   -5.3553   10.6495 H       1  UNL1        0.0559
     55 H           2.5108   -8.0745   10.3149 H       1  UNL1        0.0621
     56 H           1.2513   -9.0650   12.1859 H       1  UNL1        0.0618
     57 H           0.9146   -7.7874   14.2839 H       1  UNL1        0.0618
     58 H           1.8044   -5.4810   14.4873 H       1  UNL1        0.0618
     59 H           3.0685   -4.4656   12.6284 H       1  UNL1        0.0621
     60 H           3.8490    2.0301   -1.3143 H       1  UNL1        0.0290
     61 H           4.1787    2.1754    0.4201 H       1  UNL1        0.0290
     62 H           4.9947    0.9563   -0.5471 H       1  UNL1        0.0290
     63 H          -2.1613    2.0293    1.8630 H       1  UNL1        0.0235
     64 H          -3.3754    0.7558    1.7016 H       1  UNL1        0.0235
     65 H          -1.6858    0.3328    1.9911 H       1  UNL1        0.0235
     66 H          -4.1992    1.4425   -0.5528 H       1  UNL1        0.0235
     67 H          -3.1861    2.8827   -0.3543 H       1  UNL1        0.0235
     68 H          -3.0581    1.9041   -1.8221 H       1  UNL1        0.0235
     69 H           6.1650   -2.5795   -1.1585 H       1  UNL1        0.0695
     70 H           7.1369   -1.2633   -0.5076 H       1  UNL1        0.0695
     71 H           5.8951   -3.5102    1.1643 H       1  UNL1        0.0262
     72 H           7.6212   -3.3167    0.7853 H       1  UNL1        0.0262
     73 H           6.7792   -2.1408    1.8262 H       1  UNL1        0.0262
@<TRIPOS>BOND
     1     1     2    1
     2     2     3    1
     3     3     4    2
     4     4     5    1
     5     5     6    1
     6     1     6    1
     7     4     7    1
     8     7     8    1
     9     8     9    2
    10     9    10    1
    11     3    10    1
    12    11    12    2
    13    11    13    1
    14     8    11    1
    15     5    14    2
    16    15    16   ar
    17    16    17   ar
    18    17    18   ar
    19    18    19   ar
    20    19    20   ar
    21    15    20   ar
    22    23    24   ar
    23    24    25   ar
    24    25    26   ar
    25    26    27   ar
    26    23    27   ar
    27    28    29    1
    28    29    30   ar
    29    30    31   ar
    30    31    32   ar
    31    32    33   ar
    32    33    34   ar
    33    29    34   ar
    34    23    28    1
    35    22    26    1
    36    21    22    1
    37    18    21    1
    38     9    35    1
    39     1    36    1
    40     1    37    1
    41    38    39    1
    42    13    38    1
    43     2    40    1
    44     2    41    1
    45     6    42    1
    46     6    43    1
    47    10    45    1
    48    16    46    1
    49    17    47    1
    50    19    48    1
    51    20    49    1
    52    22    50    1
    53    22    51    1
    54    27    52    1
    55    28    53    1
    56    28    54    1
    57    30    55    1
    58    31    56    1
    59    32    57    1
    60    33    58    1
    61    34    59    1
    62    35    60    1
    63    35    61    1
    64    35    62    1
    65    36    63    1
    66    36    64    1
    67    36    65    1
    68    37    66    1
    69    37    67    1
    70    37    68    1
    71    38    69    1
    72    38    70    1
    73    39    71    1
    74    39    72    1
    75    39    73    1
    76     7    44    1
    77     7    15    1
@<TRIPOS>MOLECULE
mol_784_akc_jheliyon2023e17801
*****
 32 34 0 0 0
SMALL
GASTEIGER

@<TRIPOS>ATOM
      1 C          -2.4795    0.7168    0.0320 C.2     1  UNL1        0.0115
      2 C          -2.6017   -0.6099    0.0282 C.2     1  UNL1        0.1043
      3 S          -1.2702   -1.6921    0.0189 S.O2    1  UNL1        0.0264
      4 C           0.1700   -0.6787    0.0105 C.ar    1  UNL1        0.1045
      5 C           1.4145   -1.3303   -0.0038 C.ar    1  UNL1       -0.0331
      6 C           2.5868   -0.5788   -0.0128 C.ar    1  UNL1       -0.0246
      7 C           2.5050    0.8075   -0.0094 C.ar    1  UNL1        0.1242
      8 C           1.2730    1.4558    0.0030 C.ar    1  UNL1       -0.0138
      9 C           0.0844    0.7095    0.0139 C.ar    1  UNL1        0.0496
     10 C          -1.1971    1.4454    0.0245 C.2     1  UNL1        0.1898
     11 O          -1.2138    2.6704    0.0248 O.2     1  UNL1       -0.2872
     12 O          -1.2191   -2.4046    1.2812 O.2     1  UNL1       -0.1643
     13 O          -1.2323   -2.4009   -1.2474 O.2     1  UNL1       -0.1643
     14 F           3.6308    1.5319   -0.0188 F       1  UNL1       -0.2055
     15 C          -3.8681   -1.3397    0.0036 C.ar    1  UNL1        0.0003
     16 C          -4.4376   -1.7089   -1.2216 C.ar    1  UNL1       -0.0522
     17 C          -5.5939   -2.4914   -1.2570 C.ar    1  UNL1       -0.0495
     18 C          -6.2085   -2.9086   -0.0683 C.ar    1  UNL1        0.0548
     19 C          -5.6681   -2.4872    1.1567 C.ar    1  UNL1       -0.0495
     20 C          -4.5091   -1.7055    1.1931 C.ar    1  UNL1       -0.0522
     21 C          -7.4105   -3.8229   -0.0915 C.3     1  UNL1        0.4174
     22 F          -7.8033   -4.1744   -1.3478 F       1  UNL1       -0.1659
     23 F          -7.1838   -4.9931    0.5678 F       1  UNL1       -0.1659
     24 F          -8.5027   -3.2656    0.4995 F       1  UNL1       -0.1659
     25 H          -3.3580    1.3570    0.0314 H       1  UNL1        0.0675
     26 H           1.4684   -2.4186   -0.0087 H       1  UNL1        0.0638
     27 H           3.5591   -1.0633   -0.0233 H       1  UNL1        0.0647
     28 H           1.2548    2.5437    0.0034 H       1  UNL1        0.0654
     29 H          -3.9629   -1.4295   -2.1613 H       1  UNL1        0.0624
     30 H          -5.9959   -2.7985   -2.2220 H       1  UNL1        0.0623
     31 H          -6.1350   -2.7936    2.0926 H       1  UNL1        0.0623
     32 H          -4.0937   -1.4242    2.1598 H       1  UNL1        0.0624
@<TRIPOS>BOND
     1     1     2    2
     2     2     3    1
     3     3     4    1
     4     4     5   ar
     5     5     6   ar
     6     6     7   ar
     7     7     8   ar
     8     8     9   ar
     9     4     9   ar
    10     9    10    1
    11     1    10    1
    12    10    11    2
    13     3    12    2
    14     3    13    2
    15     7    14    1
    16    16    17   ar
    17    17    18   ar
    18    18    19   ar
    19    19    20   ar
    20    15    16   ar
    21    15    20   ar
    22     2    15    1
    23    18    21    1
    24    21    22    1
    25    21    23    1
    26    21    24    1
    27     1    25    1
    28     5    26    1
    29     6    27    1
    30     8    28    1
    31    16    29    1
    32    17    30    1
    33    19    31    1
    34    20    32    1
@<TRIPOS>MOLECULE
mol_785_akc_d3md00243h
(E)-4-[2-(5-nitrofurfurylene)hydrazinyl]-2-(4-fluorophenyl)quinazoline
 40 43 0 0 0
SMALL
GASTEIGER

@<TRIPOS>ATOM
      1 C           2.5295    0.7068    0.0277 C.ar    1  UNL1       -0.0610
      2 C           2.5006   -0.6790    0.0766 C.ar    1  UNL1       -0.0597
      3 C           1.2727   -1.3466    0.0913 C.ar    1  UNL1       -0.0356
      4 C           0.0619   -0.6650    0.0538 C.ar    1  UNL1        0.0767
      5 N          -1.0698   -1.3746    0.0764 N.ar    1  UNL1       -0.2271
      6 C          -2.2304   -0.7030    0.0048 C.ar    1  UNL1        0.1624
      7 N          -2.3263    0.6293   -0.1122 N.ar    1  UNL1       -0.2105
      8 C          -1.1823    1.3426   -0.1174 C.ar    1  UNL1        0.1496
      9 C           0.0823    0.7324   -0.0216 C.ar    1  UNL1        0.0418
     10 C           1.3299    1.4121   -0.0281 C.ar    1  UNL1       -0.0492
     11 C          -3.4875   -1.4815    0.0528 C.ar    1  UNL1        0.0194
     12 C          -3.4815   -2.8880    0.1685 C.ar    1  UNL1       -0.0483
     13 C          -4.6714   -3.6225    0.2261 C.ar    1  UNL1       -0.0258
     14 C          -5.8884   -2.9595    0.1668 C.ar    1  UNL1        0.1234
     15 C          -5.9384   -1.5783    0.0486 C.ar    1  UNL1       -0.0258
     16 C          -4.7470   -0.8472   -0.0073 C.ar    1  UNL1       -0.0483
     17 F          -7.0281   -3.6604    0.2268 F       1  UNL1       -0.2055
     18 N          -1.2445    2.7618   -0.3307 N.pl3   1  UNL1       -0.2203
     19 N          -2.4605    3.3721   -0.5495 N.2     1  UNL1       -0.1856
     20 O          -4.9311    3.0177   -3.1353 O.2     1  UNL1       -0.3992
     21 C          -4.3397    3.5339   -2.0136 C.ar    1  UNL1        0.1545
     22 C          -3.0850    2.9664   -1.6132 C.2     1  UNL1        0.0880
     23 C          -5.1179    4.5606   -1.5058 C.ar    1  UNL1       -0.0078
     24 C          -6.2385    4.6943   -2.3678 C.ar    1  UNL1        0.0595
     25 C          -6.0708    3.7292   -3.3318 C.ar    1  UNL1        0.4380
     26 N          -6.8514    3.3709   -4.4723 N.pl3   1  UNL1        0.1186
     27 O          -7.8921    4.0152   -4.6483 O.2     1  UNL1        0.0446
     28 O          -6.4367    2.4543   -5.1928 O.co2   1  UNL1       -0.5735
     29 H           3.4789    1.2366    0.0207 H       1  UNL1        0.0618
     30 H           3.4276   -1.2466    0.0999 H       1  UNL1        0.0618
     31 H           1.2624   -2.4343    0.1241 H       1  UNL1        0.0639
     32 H           1.3734    2.4969   -0.0885 H       1  UNL1        0.0625
     33 H          -2.5359   -3.4266    0.2175 H       1  UNL1        0.0625
     34 H          -4.6512   -4.7037    0.3183 H       1  UNL1        0.0646
     35 H          -6.8993   -1.0760    0.0031 H       1  UNL1        0.0646
     36 H          -4.8070    0.2369   -0.0948 H       1  UNL1        0.0625
     37 H          -0.7058    3.2137    0.4088 H       1  UNL1        0.1760
     38 H          -2.6724    2.1812   -2.2723 H       1  UNL1        0.0883
     39 H          -4.8857    5.1494   -0.6272 H       1  UNL1        0.0658
     40 H          -7.0535    5.4021   -2.2994 H       1  UNL1        0.0722
@<TRIPOS>UNITY_ATOM_ATTR
26 1
charge 1
28 1
charge -1
@<TRIPOS>BOND
     1     1     2   ar
     2     2     3   ar
     3     3     4   ar
     4     4     5   ar
     5     5     6   ar
     6     6     7   ar
     7     7     8   ar
     8     8     9   ar
     9     4     9   ar
    10     9    10   ar
    11     1    10   ar
    12    11    12   ar
    13    12    13   ar
    14    13    14   ar
    15    14    15   ar
    16    15    16   ar
    17    11    16   ar
    18    14    17    1
    19     6    11    1
    20    18    19    1
    21    20    21   ar
    22    21    22    1
    23    21    23   ar
    24    23    24   ar
    25    24    25   ar
    26    20    25   ar
    27    26    27    2
    28    26    28    1
    29    25    26    1
    30    19    22    2
    31     8    18    1
    32     1    29    1
    33     2    30    1
    34     3    31    1
    35    10    32    1
    36    12    33    1
    37    13    34    1
    38    15    35    1
    39    16    36    1
    40    18    37    1
    41    22    38    1
    42    23    39    1
    43    24    40    1
@<TRIPOS>MOLECULE
mol_786_akc_jintimp2023110750
2-{[(5-bromo-1H-indol-3-yl)-methylene]amino}-5,6,7,8-tetrahydro-4H-cyclohepta[b]thiophene-3-carbonitrile
 40 43 0 0 0
SMALL
GASTEIGER

@<TRIPOS>ATOM
      1 S          -2.5011    0.8900   -0.5856 S.2     1  UNL1       -0.0727
      2 C          -2.1980   -1.6150   -0.2025 C.ar    1  UNL1        0.0877
      3 C          -3.1915   -0.6871   -0.4816 C.ar    1  UNL1        0.1189
      4 C          -0.9266    0.3545   -0.2384 C.ar    1  UNL1       -0.0037
      5 C          -0.8761   -1.0194   -0.0659 C.ar    1  UNL1       -0.0177
      6 C           0.3960   -1.7863    0.2149 C.3     1  UNL1       -0.0256
      7 C           1.5778   -1.2954   -0.6246 C.3     1  UNL1       -0.0490
      8 C           2.2791   -0.0492   -0.0750 C.3     1  UNL1       -0.0524
      9 C           1.3892    0.9943    0.5996 C.3     1  UNL1       -0.0486
     10 C           0.1663    1.3908   -0.2175 C.3     1  UNL1       -0.0211
     11 C          -2.4620   -3.0157   -0.0719 C.1     1  UNL1        0.1021
     12 N          -2.6799   -4.1545    0.0460 N.1     1  UNL1       -0.1908
     13 N          -4.5305   -0.6675   -0.6715 N.2     1  UNL1       -0.2465
     14 C          -5.3659   -1.5628   -0.2790 C.2     1  UNL1        0.0380
     15 C          -7.1211    0.1726   -0.6469 C.ar    1  UNL1        0.0113
     16 C          -6.7539   -1.1124   -0.2740 C.ar    1  UNL1        0.0181
     17 C          -7.9470   -1.7435    0.2117 C.ar    1  UNL1        0.0093
     18 C          -8.3137   -3.0515    0.5976 C.ar    1  UNL1       -0.0380
     19 C          -9.5796   -3.2594    1.1662 C.ar    1  UNL1        0.0186
     20 C         -10.4435   -2.1998    1.4310 C.ar    1  UNL1       -0.0458
     21 C         -10.1118   -0.9049    1.0380 C.ar    1  UNL1       -0.0367
     22 C          -8.8929   -0.7238    0.3796 C.ar    1  UNL1        0.0472
     23 N          -8.3835    0.4103   -0.2010 N.ar    1  UNL1       -0.3600
     24 BR        -10.1438   -5.0210    1.5731 Br      1  UNL1       -0.0503
     25 H           0.2395   -2.8458   -0.0202 H       1  UNL1        0.0314
     26 H           0.6295   -1.7350    1.2851 H       1  UNL1        0.0314
     27 H           1.2498   -1.1023   -1.6546 H       1  UNL1        0.0268
     28 H           2.3259   -2.0947   -0.6909 H       1  UNL1        0.0268
     29 H           3.0396   -0.3616    0.6513 H       1  UNL1        0.0265
     30 H           2.8293    0.4250   -0.8982 H       1  UNL1        0.0265
     31 H           1.0866    0.6444    1.5945 H       1  UNL1        0.0269
     32 H           1.9993    1.8909    0.7683 H       1  UNL1        0.0269
     33 H           0.4608    1.6273   -1.2472 H       1  UNL1        0.0318
     34 H          -0.2301    2.3182    0.2179 H       1  UNL1        0.0318
     35 H          -5.1225   -2.5456    0.1539 H       1  UNL1        0.0836
     36 H          -6.5344    0.9646   -1.0973 H       1  UNL1        0.0813
     37 H          -7.6427   -3.8871    0.4263 H       1  UNL1        0.0635
     38 H         -11.3964   -2.3695    1.9273 H       1  UNL1        0.0629
     39 H         -10.7818   -0.0721    1.2281 H       1  UNL1        0.0639
     40 H          -8.8634    1.2977   -0.2601 H       1  UNL1        0.1654
@<TRIPOS>BOND
     1     1     4   ar
     2     5     2   ar
     3     2     3   ar
     4     1     3   ar
     5     4     5   ar
     6     5     6    1
     7     6     7    1
     8     7     8    1
     9     8     9    1
    10     9    10    1
    11     4    10    1
    12    11    12    3
    13     2    11    1
    14    15    16   ar
    15    16    17   ar
    16    17    18   ar
    17    18    19   ar
    18    19    20   ar
    19    20    21   ar
    20    21    22   ar
    21    17    22   ar
    22    22    23   ar
    23    15    23   ar
    24    19    24    1
    25    14    16    1
    26    13    14    2
    27    13     3    1
    28     6    25    1
    29     6    26    1
    30     7    27    1
    31     7    28    1
    32     8    29    1
    33     8    30    1
    34     9    31    1
    35     9    32    1
    36    10    33    1
    37    10    34    1
    38    14    35    1
    39    15    36    1
    40    18    37    1
    41    20    38    1
    42    21    39    1
    43    23    40    1
@<TRIPOS>MOLECULE
mol_787_akc_slct202302415
*****
 24 25 0 0 0
SMALL
GASTEIGER

@<TRIPOS>ATOM
      1 C           1.1198   -0.7614   -0.5576 C.2     1  UNL1        0.2577
      2 N           0.0437   -1.2554   -1.2308 N.am    1  UNL1       -0.2425
      3 C          -0.8269   -0.3724   -1.7817 C.2     1  UNL1        0.2832
      4 S          -0.2818    1.2662   -1.4755 S.3     1  UNL1       -0.0260
      5 C           1.0904    0.7248   -0.5827 C.2     1  UNL1        0.0795
      6 O          -1.8404   -0.6567   -2.3950 O.2     1  UNL1       -0.2622
      7 O           1.9703   -1.4430   -0.0090 O.2     1  UNL1       -0.2692
      8 C           2.0175    1.4607    0.0439 C.2     1  UNL1       -0.0357
      9 C           2.0332    2.9233    0.1098 C.ar    1  UNL1       -0.0238
     10 C           1.3703    3.5824    1.1499 C.ar    1  UNL1       -0.0540
     11 C           2.7097    3.6706   -0.8583 C.ar    1  UNL1       -0.0540
     12 C           2.7144    5.0671   -0.7929 C.ar    1  UNL1       -0.0496
     13 C           2.0406    5.7369    0.2400 C.ar    1  UNL1        0.0548
     14 C           1.3737    4.9785    1.2146 C.ar    1  UNL1       -0.0496
     15 C           2.0147    7.2450    0.3073 C.3     1  UNL1        0.4174
     16 F           2.6995    7.8481   -0.7045 F       1  UNL1       -0.1659
     17 F           0.7494    7.7461    0.2502 F       1  UNL1       -0.1659
     18 F           2.5549    7.7261    1.4612 F       1  UNL1       -0.1659
     19 H          -0.1164   -2.2463   -1.3017 H       1  UNL1        0.1587
     20 H           2.8301    0.9721    0.5782 H       1  UNL1        0.0636
     21 H           0.8438    3.0161    1.9153 H       1  UNL1        0.0624
     22 H           3.2353    3.1750   -1.6719 H       1  UNL1        0.0624
     23 H           3.2455    5.6323   -1.5579 H       1  UNL1        0.0623
     24 H           0.8481    5.4758    2.0292 H       1  UNL1        0.0623
@<TRIPOS>BOND
     1     1     2   am
     2     2     3   am
     3     3     4    1
     4     4     5    1
     5     1     5    1
     6     3     6    2
     7     1     7    2
     8     5     8    2
     9     8     9    1
    10    10     9   ar
    11     9    11   ar
    12    11    12   ar
    13    12    13   ar
    14    13    14   ar
    15    10    14   ar
    16    13    15    1
    17    15    16    1
    18    15    17    1
    19    15    18    1
    20     2    19    1
    21     8    20    1
    22    10    21    1
    23    11    22    1
    24    12    23    1
    25    14    24    1
@<TRIPOS>MOLECULE
mol_788_akc_ph16081113
*****
 66 69 0 0 0
SMALL
GASTEIGER

@<TRIPOS>ATOM
      1 C          -2.1420    2.8312    2.3808 C.ar    1  UNL1       -0.0092
      2 C          -3.3885    2.3252    2.7845 C.ar    1  UNL1        0.1620
      3 C          -3.6609    0.9627    2.5780 C.ar    1  UNL1        0.1615
      4 C          -2.6913    0.1554    1.9619 C.ar    1  UNL1       -0.0157
      5 C          -1.4521    0.6714    1.5710 C.ar    1  UNL1       -0.0509
      6 C          -1.1665    2.0171    1.7809 C.ar    1  UNL1       -0.0212
      7 C           0.1431    2.6215    1.4863 C.2     1  UNL1       -0.0496
      8 C           0.9837    2.2721    0.5028 C.2     1  UNL1        0.0007
      9 C           2.2403    3.0472    0.3690 C.2     1  UNL1        0.2372
     10 O           2.5228    3.9849    1.1047 O.2     1  UNL1       -0.2708
     11 N           3.0414    2.6161   -0.6508 N.am    1  UNL1       -0.3061
     12 C           4.3331    3.2217   -0.8516 C.3     1  UNL1        0.0575
     13 C           4.7025    3.1236   -2.2800 C.ar    1  UNL1        0.1003
     14 N           5.1482    1.9501   -2.8080 N.ar    1  UNL1       -0.1326
     15 C           4.7292    4.0944   -3.2575 C.ar    1  UNL1        0.0562
     16 N           5.4546    3.5311   -4.2989 N.ar    1  UNL1       -0.2128
     17 N           5.5392    2.1856   -4.0494 N.ar    1  UNL1       -0.0603
     18 O          -4.3468    3.1035    3.3771 O.3     1  UNL1       -0.4914
     19 O          -4.7898    0.2557    2.9026 O.3     1  UNL1       -0.4915
     20 C          -5.8137    0.9009    3.6443 C.3     1  UNL1        0.0790
     21 C          -4.0663    4.4811    3.5900 C.3     1  UNL1        0.0790
     22 C           6.1384    4.2121   -5.3224 C.ar    1  UNL1        0.1518
     23 C           6.1253    5.7014   -5.3451 C.ar    1  UNL1        0.3631
     24 C           7.3482    3.7694   -5.7426 C.ar    1  UNL1       -0.0185
     25 C           8.2724    4.0950   -4.6270 C.ar    1  UNL1        0.0197
     26 C           8.2027    5.4142   -4.1632 C.ar    1  UNL1        0.1409
     27 O           7.2636    6.2920   -4.7663 O.2     1  UNL1       -0.4206
     28 C           8.9666    3.1581   -3.8863 C.ar    1  UNL1       -0.0493
     29 C           9.5823    3.5649   -2.6907 C.ar    1  UNL1       -0.0399
     30 C           9.5578    4.9028   -2.2227 C.ar    1  UNL1        0.0332
     31 C           8.8694    5.8327   -3.0168 C.ar    1  UNL1        0.0024
     32 O           5.1801    6.3490   -5.7731 O.2     1  UNL1       -0.2428
     33 N          10.0996    5.2366   -0.9819 N.pl3   1  UNL1       -0.3303
     34 C           9.7296    6.4846   -0.2927 C.3     1  UNL1        0.0093
     35 C           8.2808    6.4599    0.1794 C.3     1  UNL1       -0.0494
     36 C          11.3542    4.6067   -0.5403 C.3     1  UNL1        0.0093
     37 C          12.5667    5.3728   -1.0509 C.3     1  UNL1       -0.0494
     38 H          -1.8984    3.8791    2.5278 H       1  UNL1        0.0661
     39 H          -2.9025   -0.9005    1.8034 H       1  UNL1        0.0655
     40 H          -0.7220   -0.0009    1.1298 H       1  UNL1        0.0625
     41 H           0.4107    3.4493    2.1462 H       1  UNL1        0.0625
     42 H           0.7714    1.4795   -0.1981 H       1  UNL1        0.0669
     43 H           2.8435    1.7540   -1.1411 H       1  UNL1        0.1494
     44 H           4.3287    4.2665   -0.5228 H       1  UNL1        0.0528
     45 H           5.0573    2.6799   -0.2329 H       1  UNL1        0.0528
     46 H           4.4643    5.1419   -3.2403 H       1  UNL1        0.0850
     47 H          -5.4420    1.2736    4.6047 H       1  UNL1        0.0660
     48 H          -6.2931    1.6876    3.0536 H       1  UNL1        0.0660
     49 H          -6.5823    0.1537    3.8665 H       1  UNL1        0.0660
     50 H          -3.1897    4.6159    4.2326 H       1  UNL1        0.0660
     51 H          -3.9475    5.0078    2.6374 H       1  UNL1        0.0660
     52 H          -4.9235    4.9195    4.1087 H       1  UNL1        0.0660
     53 H           7.7937    4.1859   -6.6516 H       1  UNL1        0.0648
     54 H           8.9479    2.1054   -4.1535 H       1  UNL1        0.0625
     55 H          10.0104    2.7784   -2.0762 H       1  UNL1        0.0636
     56 H           8.7750    6.8725   -2.7243 H       1  UNL1        0.0673
     57 H          10.3550    6.6150    0.5998 H       1  UNL1        0.0461
     58 H           9.9299    7.3586   -0.9221 H       1  UNL1        0.0461
     59 H           8.0999    5.6048    0.8396 H       1  UNL1        0.0245
     60 H           8.0509    7.3752    0.7343 H       1  UNL1        0.0245
     61 H           7.5724    6.3920   -0.6505 H       1  UNL1        0.0245
     62 H          11.3787    4.5809    0.5563 H       1  UNL1        0.0461
     63 H          11.4394    3.5605   -0.8489 H       1  UNL1        0.0461
     64 H          12.5926    6.3901   -0.6449 H       1  UNL1        0.0245
     65 H          13.4880    4.8667   -0.7415 H       1  UNL1        0.0245
     66 H          12.5656    5.4439   -2.1415 H       1  UNL1        0.0245
@<TRIPOS>BOND
     1     1     2   ar
     2     1     6   ar
     3     2     3   ar
     4     3     4   ar
     5     4     5   ar
     6     5     6   ar
     7     6     7    1
     8     7     8    2
     9     8     9    1
    10     9    10    2
    11     9    11   am
    12    11    12    1
    13    12    13    1
    14    14    13   ar
    15    13    15   ar
    16    14    17   ar
    17    15    16   ar
    18    16    17   ar
    19     2    18    1
    20     3    19    1
    21    19    20    1
    22    18    21    1
    23    16    22    1
    24    23    22   ar
    25    22    24   ar
    26    23    27   ar
    27    24    25   ar
    28    26    27   ar
    29    25    28   ar
    30    26    25   ar
    31    26    31   ar
    32    28    29   ar
    33    29    30   ar
    34    30    31   ar
    35    23    32    2
    36    30    33    1
    37    33    34    1
    38    34    35    1
    39    33    36    1
    40    36    37    1
    41     1    38    1
    42     4    39    1
    43     5    40    1
    44     7    41    1
    45     8    42    1
    46    11    43    1
    47    12    44    1
    48    12    45    1
    49    15    46    1
    50    20    47    1
    51    20    48    1
    52    20    49    1
    53    21    50    1
    54    21    51    1
    55    21    52    1
    56    24    53    1
    57    28    54    1
    58    29    55    1
    59    31    56    1
    60    34    57    1
    61    34    58    1
    62    35    59    1
    63    35    60    1
    64    35    61    1
    65    36    62    1
    66    36    63    1
    67    37    64    1
    68    37    65    1
    69    37    66    1
@<TRIPOS>MOLECULE
mol_789_akc_jalgal2023103241
76317957
 73 76 0 0 0
SMALL
GASTEIGER

@<TRIPOS>ATOM
      1 S           3.1714    1.2221   -2.3396 S.2     1  UNL1       -0.0779
      2 O          -0.2759   -3.8911   -0.4362 O.2     1  UNL1       -0.4726
      3 O          -3.8681    2.1298    0.0326 O.2     1  UNL1       -0.4727
      4 O           2.8081   -2.5930   -0.8606 O.2     1  UNL1       -0.2733
      5 O          -3.7857   -2.2170    1.2399 O.2     1  UNL1       -0.2733
      6 O          -0.7855    3.4855   -1.8174 O.2     1  UNL1       -0.2685
      7 N          -2.5362   -1.0250   -0.2649 N.am    1  UNL1       -0.3018
      8 N           0.0067   -1.9154    0.6948 N.2     1  UNL1       -0.2365
      9 N           2.8471   -1.0120    0.8029 N.am    1  UNL1       -0.3044
     10 N          -2.6920    1.0538    1.6689 N.2     1  UNL1       -0.2365
     11 N           1.7347    1.4421   -0.2088 N.ar    1  UNL1       -0.2375
     12 N          -0.5814    2.7536    0.3510 N.am    1  UNL1       -0.2989
     13 C          -1.9208   -2.1800   -0.9047 C.3     1  UNL1        0.1010
     14 C           1.1850   -2.7678    0.9689 C.3     1  UNL1        0.1661
     15 C          -1.5415   -1.8459   -2.3653 C.3     1  UNL1       -0.0196
     16 C           0.7918   -4.1467    0.4710 C.3     1  UNL1        0.1295
     17 C          -0.6875   -2.6343   -0.1377 C.2     1  UNL1        0.2073
     18 C           3.7181   -0.0684    0.1012 C.3     1  UNL1        0.0743
     19 C           4.5693    0.7150    1.1357 C.3     1  UNL1       -0.0196
     20 C          -3.8693    0.2037    1.3624 C.3     1  UNL1        0.1661
     21 C           2.3620   -2.1514    0.1949 C.2     1  UNL1        0.2418
     22 C          -4.6728    0.9864    0.3296 C.3     1  UNL1        0.1295
     23 C           5.4864    1.7591    0.4600 C.3     1  UNL1       -0.0513
     24 C          -3.3900   -1.1389    0.8054 C.2     1  UNL1        0.2419
     25 C          -2.7859   -1.4435   -3.1650 C.3     1  UNL1       -0.0605
     26 C          -0.4859   -0.7385   -2.4644 C.3     1  UNL1       -0.0605
     27 C           0.2616   -5.0319    1.5972 C.3     1  UNL1       -0.0252
     28 C           2.8163    0.8583   -0.6945 C.ar    1  UNL1        0.0996
     29 C           5.3923   -0.2688    1.9808 C.3     1  UNL1       -0.0604
     30 C          -2.8256    2.0778    0.8880 C.2     1  UNL1        0.2068
     31 C          -1.8622    3.2441    0.8176 C.3     1  UNL1        0.0961
     32 C          -6.0067    1.4742    0.8706 C.3     1  UNL1       -0.0252
     33 C           6.3412    2.5450    1.4449 C.3     1  UNL1       -0.0650
     34 C           1.1109    2.1940   -1.2069 C.ar    1  UNL1        0.1328
     35 C          -1.7152    3.8878    2.1887 C.3     1  UNL1       -0.0380
     36 C          -0.1576    2.8777   -0.9466 C.2     1  UNL1        0.2635
     37 C           1.7672    2.1989   -2.4208 C.ar    1  UNL1        0.0079
     38 H          -2.6406   -3.0081   -0.8855 H       1  UNL1        0.0598
     39 H           1.4292   -2.7687    2.0344 H       1  UNL1        0.0679
     40 H          -1.1173   -2.7452   -2.8296 H       1  UNL1        0.0318
     41 H           1.5995   -4.6683   -0.0523 H       1  UNL1        0.0757
     42 H           4.3725   -0.6365   -0.5724 H       1  UNL1        0.0572
     43 H           3.8916    1.2521    1.8160 H       1  UNL1        0.0320
     44 H          -4.4364    0.0056    2.2776 H       1  UNL1        0.0679
     45 H          -2.0662   -0.1338   -0.3593 H       1  UNL1        0.1495
     46 H          -4.8397    0.4287   -0.5990 H       1  UNL1        0.0757
     47 H           2.2626   -0.6185    1.5334 H       1  UNL1        0.1494
     48 H           4.8797    2.4870   -0.0902 H       1  UNL1        0.0266
     49 H           6.1388    1.2677   -0.2720 H       1  UNL1        0.0266
     50 H          -3.2228   -0.5116   -2.7885 H       1  UNL1        0.0233
     51 H          -3.5521   -2.2231   -3.1077 H       1  UNL1        0.0233
     52 H          -2.5361   -1.2891   -4.2189 H       1  UNL1        0.0233
     53 H          -0.8576    0.2047   -2.0556 H       1  UNL1        0.0233
     54 H          -0.2046   -0.5570   -3.5057 H       1  UNL1        0.0233
     55 H           0.4268   -1.0070   -1.9245 H       1  UNL1        0.0233
     56 H          -0.5880   -4.5615    2.1076 H       1  UNL1        0.0266
     57 H           1.0402   -5.2404    2.3362 H       1  UNL1        0.0266
     58 H          -0.1053   -5.9821    1.1940 H       1  UNL1        0.0266
     59 H           4.7587   -1.0282    2.4492 H       1  UNL1        0.0233
     60 H           5.9111    0.2428    2.7959 H       1  UNL1        0.0233
     61 H           6.1356   -0.7823    1.3621 H       1  UNL1        0.0233
     62 H          -2.2527    3.9829    0.1102 H       1  UNL1        0.0593
     63 H          -5.8660    2.0958    1.7610 H       1  UNL1        0.0266
     64 H          -6.6597    0.6340    1.1233 H       1  UNL1        0.0266
     65 H          -6.5092    2.1008    0.1270 H       1  UNL1        0.0266
     66 H           6.8481    3.3674    0.9307 H       1  UNL1        0.0230
     67 H           7.1140    1.9150    1.8946 H       1  UNL1        0.0230
     68 H           5.7263    2.9699    2.2446 H       1  UNL1        0.0230
     69 H          -0.0526    2.0972    0.9308 H       1  UNL1        0.1498
     70 H          -2.6816    4.2433    2.5610 H       1  UNL1        0.0252
     71 H          -1.0273    4.7387    2.1426 H       1  UNL1        0.0252
     72 H          -1.3140    3.1813    2.9250 H       1  UNL1        0.0252
     73 H           1.4804    2.7018   -3.3350 H       1  UNL1        0.0717
@<TRIPOS>BOND
     1     1    28   ar
     2     1    37   ar
     3     2    16    1
     4     2    17    1
     5     3    22    1
     6     3    30    1
     7     4    21    2
     8     5    24    2
     9     6    36    2
    10     7    13    1
    11     7    24   am
    12     7    45    1
    13     8    14    1
    14     8    17    2
    15     9    18    1
    16     9    21   am
    17     9    47    1
    18    10    20    1
    19    10    30    2
    20    11    28   ar
    21    11    34   ar
    22    12    31    1
    23    12    36   am
    24    12    69    1
    25    13    15    1
    26    13    17    1
    27    13    38    1
    28    14    16    1
    29    14    21    1
    30    14    39    1
    31    15    25    1
    32    15    26    1
    33    15    40    1
    34    16    27    1
    35    16    41    1
    36    18    19    1
    37    18    28    1
    38    18    42    1
    39    19    23    1
    40    19    29    1
    41    19    43    1
    42    20    22    1
    43    20    24    1
    44    20    44    1
    45    22    32    1
    46    22    46    1
    47    23    33    1
    48    23    48    1
    49    23    49    1
    50    25    50    1
    51    25    51    1
    52    25    52    1
    53    26    53    1
    54    26    54    1
    55    26    55    1
    56    27    56    1
    57    27    57    1
    58    27    58    1
    59    29    59    1
    60    29    60    1
    61    29    61    1
    62    30    31    1
    63    31    35    1
    64    31    62    1
    65    32    63    1
    66    32    64    1
    67    32    65    1
    68    33    66    1
    69    33    67    1
    70    33    68    1
    71    34    36    1
    72    34    37   ar
    73    35    70    1
    74    35    71    1
    75    35    72    1
    76    37    73    1
@<TRIPOS>MOLECULE
mol_78_akc_jejmech201607014
>77.sdf
 27 28 0 0 0
SMALL
GASTEIGER

@<TRIPOS>ATOM
      1 N           3.4776    1.3355   -1.6927 N.am    1  UNL1       -0.3394
      2 C           4.6145    0.6062   -1.6094 C.2     1  UNL1        0.1473
      3 S           5.2722   -0.1551   -2.9274 S.2     1  UNL1       -0.0174
      4 N           5.2101    0.5818   -0.3788 N.am    1  UNL1       -0.2186
      5 N           4.6754    1.2529    0.6807 N.2     1  UNL1       -0.1885
      6 C           5.4519    1.5944    1.6699 C.2     1  UNL1        0.0533
      7 C           6.9335    1.5424    1.7781 C.ar    1  UNL1        0.0024
      8 C           7.6980    1.8255    0.6336 C.ar    1  UNL1       -0.0498
      9 C           9.0859    1.8247    0.6986 C.ar    1  UNL1       -0.0252
     10 C           9.7124    1.5922    1.9140 C.ar    1  UNL1        0.1311
     11 F          11.0537    1.6121    1.9485 F       1  UNL1       -0.2049
     12 C           8.9804    1.3646    3.0899 C.ar    1  UNL1        0.0179
     13 C           9.6516    1.1815    4.3126 C.ar    1  UNL1       -0.0513
     14 C           8.9470    0.9739    5.4958 C.ar    1  UNL1       -0.0611
     15 C           7.5604    0.9284    5.4689 C.ar    1  UNL1       -0.0611
     16 C           6.8776    1.0938    4.2589 C.ar    1  UNL1       -0.0533
     17 C           7.5638    1.3313    3.0402 C.ar    1  UNL1       -0.0065
     18 H           2.9439    1.3878   -2.5474 H       1  UNL1        0.1440
     19 H           3.0963    1.6848   -0.8215 H       1  UNL1        0.1440
     20 H           6.0681    0.0499   -0.2693 H       1  UNL1        0.1762
     21 H           4.9300    2.0269    2.5397 H       1  UNL1        0.0851
     22 H           7.2234    2.0780   -0.3115 H       1  UNL1        0.0625
     23 H           9.6836    2.0258   -0.1852 H       1  UNL1        0.0646
     24 H          10.7401    1.2111    4.3487 H       1  UNL1        0.0624
     25 H           9.4824    0.8485    6.4332 H       1  UNL1        0.0618
     26 H           7.0050    0.7641    6.3898 H       1  UNL1        0.0618
     27 H           5.7928    1.0349    4.2929 H       1  UNL1        0.0624
@<TRIPOS>BOND
     1     1    18    1
     2     1    19    1
     3     2     1    1
     4     3     2    2
     5     4     2    1
     6     4    20    1
     7     5     4    1
     8     6     5    2
     9     6    21    1
    10     7     6    1
    11     8     7   ar
    12     8    22    1
    13     9     8   ar
    14     9    23    1
    15    10     9   ar
    16    11    10    1
    17    12    10   ar
    18    13    12   ar
    19    13    24    1
    20    14    13   ar
    21    14    25    1
    22    15    14   ar
    23    15    26    1
    24    16    15   ar
    25    16    27    1
    26    17    16   ar
    27    17     7   ar
    28    17    12   ar
@<TRIPOS>MOLECULE
mol_790_akc_jalgal2023103241
46237174
 119 119 0 0 0
SMALL
GASTEIGER

@<TRIPOS>ATOM
      1 O           7.1181   -2.0617   -1.3175 O.2     1  UNL1       -0.2735
      2 O           5.4668   -3.7514    3.2164 O.2     1  UNL1       -0.2737
      3 O           8.8645    1.5543   -3.3249 O.2     1  UNL1       -0.2753
      4 O           1.9585   -3.0559    1.3538 O.2     1  UNL1       -0.2735
      5 O           0.1429   -7.0570    4.1612 O.2     1  UNL1       -0.2736
      6 O          13.7217    2.6179   -8.0427 O.2     1  UNL1       -0.2977
      7 O          -4.0131   -4.1305    4.0611 O.2     1  UNL1       -0.2740
      8 N           7.1200   -1.4997    0.9030 N.am    1  UNL1       -0.2912
      9 N           9.2166    0.0479   -1.5950 N.am    1  UNL1       -0.2925
     10 N           4.4863   -1.9812    2.1846 N.am    1  UNL1       -0.3022
     11 N           1.7894   -4.1142    3.3992 N.am    1  UNL1       -0.2917
     12 N          -1.2650   -5.3459    3.5969 N.am    1  UNL1       -0.2911
     13 N          -4.7781   -5.9503    5.0911 N.am    1  UNL1       -0.3278
     14 C           7.8916    0.2135   -0.8733 C.3     1  UNL1        0.1043
     15 C           6.6627   -2.8701    1.2820 C.3     1  UNL1        0.1042
     16 C           6.7788    1.0784   -1.5415 C.3     1  UNL1       -0.0195
     17 C           7.7938   -3.8653    1.7234 C.3     1  UNL1       -0.0195
     18 C           7.3232   -1.2023   -0.4541 C.2     1  UNL1        0.2367
     19 C           3.3372   -2.0830    3.1041 C.3     1  UNL1        0.1019
     20 C           5.5161   -2.9001    2.3386 C.2     1  UNL1        0.2344
     21 C          10.9300    0.3468   -3.4461 C.3     1  UNL1        0.0330
     22 C           2.7452   -0.7130    3.5087 C.3     1  UNL1       -0.0197
     23 C           9.5624    0.6884   -2.7964 C.2     1  UNL1        0.2188
     24 C           6.1549    0.4648   -2.8003 C.3     1  UNL1       -0.0605
     25 C           5.6419    1.4271   -0.5660 C.3     1  UNL1       -0.0605
     26 C          10.9331    0.5816   -4.9843 C.3     1  UNL1       -0.0422
     27 C           8.7607   -4.2371    0.6012 C.3     1  UNL1       -0.0605
     28 C           8.5928   -3.4382    2.9612 C.3     1  UNL1       -0.0605
     29 C           7.4306   -0.5659    1.9782 C.3     1  UNL1        0.0040
     30 C          10.1506   -0.8428   -0.9095 C.3     1  UNL1        0.0039
     31 C           2.2917   -3.1152    2.5429 C.2     1  UNL1        0.2365
     32 C          12.3097    0.3430   -5.6325 C.3     1  UNL1       -0.0520
     33 C          12.0403    1.1372   -2.7368 C.3     1  UNL1       -0.0541
     34 C           3.7344    0.0416    4.4149 C.3     1  UNL1       -0.0605
     35 C           2.3456    0.2011    2.3501 C.3     1  UNL1       -0.0605
     36 C           1.1927   -5.3407    2.7889 C.3     1  UNL1        0.0993
     37 C          12.2930    0.1266   -7.1525 C.3     1  UNL1       -0.0464
     38 C          -0.0179   -5.9832    3.5668 C.2     1  UNL1        0.2362
     39 C           2.2980   -4.2555    4.7583 C.3     1  UNL1        0.0040
     40 C          11.7298    1.2737   -7.9846 C.3     1  UNL1        0.0055
     41 C           2.2850   -6.4170    2.6251 C.3     1  UNL1       -0.0379
     42 C          -2.3625   -5.9585    4.4330 C.3     1  UNL1        0.1056
     43 C          -1.9391   -6.2602    5.9056 C.3     1  UNL1       -0.0005
     44 C          -1.6533   -4.4031    2.5555 C.3     1  UNL1        0.0040
     45 C          12.5106    2.5628   -7.8265 C.2     1  UNL1        0.1303
     46 C          -3.7612   -5.2519    4.4925 C.2     1  UNL1        0.2313
     47 C          -1.1407   -5.1892    6.6168 C.ar    1  UNL1       -0.0451
     48 C          11.7457    3.7718   -7.3576 C.3     1  UNL1       -0.0061
     49 C          -1.4023   -3.8250    6.4450 C.ar    1  UNL1       -0.0585
     50 C          -0.1154   -5.5760    7.4902 C.ar    1  UNL1       -0.0585
     51 C          -0.6225   -2.8643    7.0910 C.ar    1  UNL1       -0.0615
     52 C           0.6609   -4.6153    8.1438 C.ar    1  UNL1       -0.0615
     53 C           0.4115   -3.2633    7.9344 C.ar    1  UNL1       -0.0617
     54 H           8.1887    0.7595    0.0273 H       1  UNL1        0.0599
     55 H           6.1967   -3.3181    0.3933 H       1  UNL1        0.0599
     56 H           7.2235    2.0442   -1.8081 H       1  UNL1        0.0318
     57 H           7.2973   -4.8089    1.9946 H       1  UNL1        0.0318
     58 H           3.7463   -2.4924    4.0288 H       1  UNL1        0.0597
     59 H          11.1027   -0.7286   -3.3162 H       1  UNL1        0.0391
     60 H           1.8411   -0.9047    4.1005 H       1  UNL1        0.0318
     61 H           4.3100   -1.6433    1.2434 H       1  UNL1        0.1495
     62 H           5.4694   -0.3531   -2.5557 H       1  UNL1        0.0233
     63 H           5.5733    1.2244   -3.3360 H       1  UNL1        0.0233
     64 H           6.9025    0.0728   -3.4934 H       1  UNL1        0.0233
     65 H           6.0292    1.7909    0.3890 H       1  UNL1        0.0233
     66 H           5.0197    2.2280   -0.9830 H       1  UNL1        0.0233
     67 H           4.9899    0.5683   -0.3746 H       1  UNL1        0.0233
     68 H          10.1960   -0.0957   -5.4345 H       1  UNL1        0.0272
     69 H          10.5976    1.5997   -5.2138 H       1  UNL1        0.0272
     70 H           9.4550   -3.4241    0.3849 H       1  UNL1        0.0233
     71 H           9.3615   -5.1065    0.8976 H       1  UNL1        0.0233
     72 H           8.2264   -4.5089   -0.3134 H       1  UNL1        0.0233
     73 H           7.9436   -3.2728    3.8262 H       1  UNL1        0.0233
     74 H           9.3065   -4.2216    3.2436 H       1  UNL1        0.0233
     75 H           9.1707   -2.5280    2.7818 H       1  UNL1        0.0233
     76 H           8.4993   -0.3347    1.9598 H       1  UNL1        0.0429
     77 H           6.8596    0.3520    1.8367 H       1  UNL1        0.0429
     78 H           7.1753   -0.9779    2.9574 H       1  UNL1        0.0429
     79 H          10.1073   -0.6514    0.1669 H       1  UNL1        0.0429
     80 H           9.8649   -1.8735   -1.1233 H       1  UNL1        0.0429
     81 H          11.1871   -0.7101   -1.2083 H       1  UNL1        0.0429
     82 H          12.9741    1.1868   -5.4108 H       1  UNL1        0.0266
     83 H          12.7715   -0.5421   -5.1801 H       1  UNL1        0.0266
     84 H          12.8273    0.4525   -2.4000 H       1  UNL1        0.0237
     85 H          12.5156    1.8772   -3.3865 H       1  UNL1        0.0237
     86 H          11.6740    1.6773   -1.8577 H       1  UNL1        0.0237
     87 H           4.6315    0.3468    3.8644 H       1  UNL1        0.0233
     88 H           3.2730    0.9443    4.8297 H       1  UNL1        0.0233
     89 H           4.0527   -0.5813    5.2579 H       1  UNL1        0.0233
     90 H           1.6374   -0.2867    1.6756 H       1  UNL1        0.0233
     91 H           1.8581    1.1038    2.7402 H       1  UNL1        0.0233
     92 H           3.2136    0.5310    1.7697 H       1  UNL1        0.0233
     93 H           0.8584   -5.1205    1.7719 H       1  UNL1        0.0594
     94 H          13.3242   -0.0725   -7.4748 H       1  UNL1        0.0269
     95 H          11.7209   -0.7812   -7.3770 H       1  UNL1        0.0269
     96 H           3.3639   -4.5024    4.7196 H       1  UNL1        0.0429
     97 H           2.1622   -3.3146    5.2972 H       1  UNL1        0.0429
     98 H           1.7799   -5.0514    5.2920 H       1  UNL1        0.0429
     99 H          11.7713    1.0103   -9.0493 H       1  UNL1        0.0341
    100 H          10.6764    1.4441   -7.7447 H       1  UNL1        0.0341
    101 H           1.8729   -7.3208    2.1618 H       1  UNL1        0.0252
    102 H           3.1080   -6.0559    2.0017 H       1  UNL1        0.0252
    103 H           2.7061   -6.7152    3.5928 H       1  UNL1        0.0252
    104 H          -2.5767   -6.9226    3.9464 H       1  UNL1        0.0600
    105 H          -2.8058   -6.4757    6.5413 H       1  UNL1        0.0336
    106 H          -1.3688   -7.1976    5.9140 H       1  UNL1        0.0336
    107 H          -0.8259   -4.0936    1.9228 H       1  UNL1        0.0429
    108 H          -2.3974   -4.8897    1.9126 H       1  UNL1        0.0429
    109 H          -2.0629   -3.5004    3.0064 H       1  UNL1        0.0429
    110 H          10.7760    3.8175   -7.8602 H       1  UNL1        0.0306
    111 H          11.6051    3.7128   -6.2762 H       1  UNL1        0.0306
    112 H          12.3016    4.6798   -7.6067 H       1  UNL1        0.0306
    113 H          -2.1992   -3.4780    5.7932 H       1  UNL1        0.0620
    114 H           0.1056   -6.6290    7.6463 H       1  UNL1        0.0620
    115 H          -4.6741   -6.8597    5.5195 H       1  UNL1        0.1450
    116 H          -5.6600   -5.4669    5.2110 H       1  UNL1        0.1450
    117 H          -0.8224   -1.8130    6.9237 H       1  UNL1        0.0618
    118 H           1.4672   -4.9299    8.8001 H       1  UNL1        0.0618
    119 H           1.0246   -2.5123    8.4299 H       1  UNL1        0.0618
@<TRIPOS>BOND
     1     1    18    2
     2     2    20    2
     3     3    23    2
     4     4    31    2
     5     5    38    2
     6     6    45    2
     7     7    46    2
     8    15     8    1
     9     8    18   am
    10     8    29    1
    11    14     9    1
    12     9    23   am
    13     9    30    1
    14    19    10    1
    15    10    20   am
    16    10    61    1
    17    11    31   am
    18    11    39    1
    19    12    38   am
    20    42    12    1
    21    12    44    1
    22    13    46   am
    23    13   115    1
    24    13   116    1
    25    14    16    1
    26    14    18    1
    27    14    54    1
    28    15    17    1
    29    15    20    1
    30    15    55    1
    31    16    24    1
    32    16    25    1
    33    16    56    1
    34    17    27    1
    35    17    28    1
    36    17    57    1
    37    19    22    1
    38    19    31    1
    39    19    58    1
    40    21    23    1
    41    21    26    1
    42    21    33    1
    43    21    59    1
    44    22    34    1
    45    22    35    1
    46    22    60    1
    47    24    62    1
    48    24    63    1
    49    24    64    1
    50    25    65    1
    51    25    66    1
    52    25    67    1
    53    26    32    1
    54    26    68    1
    55    26    69    1
    56    27    70    1
    57    27    71    1
    58    27    72    1
    59    28    73    1
    60    28    74    1
    61    28    75    1
    62    29    76    1
    63    29    77    1
    64    29    78    1
    65    30    79    1
    66    30    80    1
    67    30    81    1
    68    32    37    1
    69    32    82    1
    70    32    83    1
    71    33    84    1
    72    33    85    1
    73    33    86    1
    74    34    87    1
    75    34    88    1
    76    34    89    1
    77    35    90    1
    78    35    91    1
    79    35    92    1
    80    36    41    1
    81    36    93    1
    82    37    40    1
    83    37    94    1
    84    37    95    1
    85    39    96    1
    86    39    97    1
    87    39    98    1
    88    40    45    1
    89    40    99    1
    90    40   100    1
    91    41   101    1
    92    41   102    1
    93    41   103    1
    94    42    43    1
    95    42    46    1
    96    42   104    1
    97    43    47    1
    98    43   105    1
    99    43   106    1
   100    44   107    1
   101    44   108    1
   102    44   109    1
   103    45    48    1
   104    47    49   ar
   105    47    50   ar
   106    48   110    1
   107    48   111    1
   108    48   112    1
   109    49    51   ar
   110    49   113    1
   111    50    52   ar
   112    50   114    1
   113    51    53   ar
   114    51   117    1
   115    52    53   ar
   116    52   118    1
   117    53   119    1
   118    36    38    1
   119    36    11    1
@<TRIPOS>MOLECULE
mol_791_akc_jalgal2023103241
769.sdf
 126 127 0 0 0
SMALL
GASTEIGER

@<TRIPOS>ATOM
      1 O           9.5641   11.2704    4.7501 O.3     1  UNL1       -0.4590
      2 O           8.5030   11.3296    2.7418 O.2     1  UNL1       -0.2486
      3 O           6.4633   11.4098    5.3391 O.3     1  UNL1       -0.3897
      4 H           6.7113   10.7239    6.0024 H       1  UNL1        0.2099
      5 O           9.0233    7.9390    7.1020 O.2     1  UNL1       -0.2737
      6 O          10.6029    5.6210    3.8952 O.2     1  UNL1       -0.2735
      7 O           7.5636    6.2273   -1.6745 O.2     1  UNL1       -0.2715
      8 O           5.7387    6.7260    1.2787 O.3     1  UNL1       -0.4503
      9 O           5.8508    8.6492    0.0848 O.2     1  UNL1       -0.2487
     10 O           4.0892   10.1200    6.0450 O.2     1  UNL1       -0.2735
     11 O           7.1292   13.9607    2.2891 O.2     1  UNL1       -0.2751
     12 N           7.9350    9.3879    5.7772 N.am    1  UNL1       -0.2988
     13 H           8.5174   10.0071    6.3403 H       1  UNL1        0.1496
     14 N           8.3627    5.9775    3.8735 N.am    1  UNL1       -0.2912
     15 N           8.9500    6.2905    0.1503 N.am    1  UNL1       -0.2869
     16 N           5.6178    8.9438    4.2066 N.am    1  UNL1       -0.2893
     17 N           6.2423   13.3491    4.3614 N.am    1  UNL1       -0.3032
     18 H           6.4932   13.2757    5.3379 H       1  UNL1        0.1495
     19 C           8.6454   10.8771    3.8641 C.2     1  UNL1        0.3305
     20 C           7.6746    9.9156    4.3977 C.3     1  UNL1        0.1463
     21 H           7.7328    8.9785    3.9717 H       1  UNL1        0.0641
     22 C           6.3929   10.7673    3.8403 C.3     1  UNL1        0.0811
     23 H           6.6127   11.5328    3.1237 H       1  UNL1        0.0614
     24 C           4.6249   10.2087    2.9697 C.3     1  UNL1       -0.0367
     25 H           4.0015    9.3444    3.3548 H       1  UNL1        0.0255
     26 H           4.5474    9.7797    1.9858 H       1  UNL1        0.0255
     27 H           3.7376   10.7822    3.2615 H       1  UNL1        0.0255
     28 C           8.3361    8.0557    6.0823 C.2     1  UNL1        0.2345
     29 C           7.8567    6.6730    5.2355 C.3     1  UNL1        0.1042
     30 H           7.0931    7.2315    4.7345 H       1  UNL1        0.0599
     31 C           6.9496    5.7830    6.1902 C.3     1  UNL1       -0.0195
     32 H           6.6552    6.4517    7.0121 H       1  UNL1        0.0318
     33 C           5.6022    5.1811    5.7095 C.3     1  UNL1       -0.0605
     34 H           5.6198    4.7891    4.6939 H       1  UNL1        0.0233
     35 H           5.2415    4.3871    6.3659 H       1  UNL1        0.0233
     36 H           4.7698    5.8782    5.8054 H       1  UNL1        0.0233
     37 C           7.7479    4.6622    6.8090 C.3     1  UNL1       -0.0605
     38 H           8.4624    5.0715    7.5236 H       1  UNL1        0.0233
     39 H           8.2671    4.0814    6.0451 H       1  UNL1        0.0233
     40 H           7.0799    3.9905    7.3592 H       1  UNL1        0.0233
     41 C           7.4003    5.9339    2.9047 C.3     1  UNL1        0.0040
     42 H           6.3878    5.8052    3.2350 H       1  UNL1        0.0429
     43 H           7.4624    6.8815    2.4689 H       1  UNL1        0.0429
     44 H           7.7428    5.2752    2.1378 H       1  UNL1        0.0429
     45 C           9.6393    5.7783    3.2527 C.2     1  UNL1        0.2365
     46 C           9.7781    5.7699    1.4301 C.3     1  UNL1        0.1025
     47 H           9.9026    4.7064    1.1944 H       1  UNL1        0.0597
     48 C          11.1923    6.4300    1.1321 C.3     1  UNL1       -0.0243
     49 H          11.9997    5.6970    1.1789 H       1  UNL1        0.0288
     50 H          11.4891    7.1698    1.8656 H       1  UNL1        0.0288
     51 C          11.1889    7.1627   -0.1980 C.3     1  UNL1       -0.0350
     52 H          12.0888    6.9660   -0.7933 H       1  UNL1        0.0281
     53 H          11.2013    8.2500   -0.0591 H       1  UNL1        0.0281
     54 C           9.9237    6.7356   -0.8875 C.3     1  UNL1        0.0156
     55 H           9.5257    7.5598   -1.4995 H       1  UNL1        0.0465
     56 H          10.1413    5.9031   -1.5691 H       1  UNL1        0.0465
     57 C           7.6708    6.0762   -0.4371 C.2     1  UNL1        0.2573
     58 C           6.2741    5.7564    0.2926 C.3     1  UNL1        0.1810
     59 H           5.5383    5.7982   -0.5276 H       1  UNL1        0.0835
     60 C           6.0716    4.3153    0.9314 C.3     1  UNL1        0.0018
     61 H           6.4353    4.2161    1.9475 H       1  UNL1        0.0339
     62 C           4.5734    4.0975    1.1978 C.3     1  UNL1       -0.0586
     63 H           4.4341    3.1755    1.7750 H       1  UNL1        0.0234
     64 H           4.0432    4.0036    0.2503 H       1  UNL1        0.0234
     65 H           4.1339    4.9071    1.7885 H       1  UNL1        0.0234
     66 C           6.5995    3.0521    0.2522 C.3     1  UNL1       -0.0495
     67 H           6.3162    2.2263    0.9230 H       1  UNL1        0.0266
     68 H           6.0563    2.9094   -0.6805 H       1  UNL1        0.0266
     69 C           8.0782    2.8289    0.0039 C.3     1  UNL1       -0.0649
     70 H           8.6868    2.8978    0.9108 H       1  UNL1        0.0230
     71 H           8.4786    3.4858   -0.7685 H       1  UNL1        0.0230
     72 H           8.1910    1.7994   -0.3611 H       1  UNL1        0.0230
     73 C           5.9337    8.0601    1.1555 C.2     1  UNL1        0.3288
     74 C           6.5472    8.7676    2.4956 C.3     1  UNL1        0.1250
     75 H           6.4974    9.7724    2.0834 H       1  UNL1        0.0619
     76 C           8.4672    8.7710    2.1637 C.3     1  UNL1       -0.0177
     77 H           8.5330    7.8822    1.5776 H       1  UNL1        0.0319
     78 C           9.2450    9.6410    1.0883 C.3     1  UNL1       -0.0605
     79 H          10.3248    9.5998    1.3418 H       1  UNL1        0.0233
     80 H           9.0687   10.7043    0.9623 H       1  UNL1        0.0233
     81 H           9.1612    9.2275    0.0874 H       1  UNL1        0.0233
     82 C           9.6086    8.5193    3.2830 C.3     1  UNL1       -0.0605
     83 H           9.2712    7.8900    4.0611 H       1  UNL1        0.0233
     84 H          10.5218    8.0824    2.9498 H       1  UNL1        0.0233
     85 H          10.0410    9.3465    3.8306 H       1  UNL1        0.0233
     86 C           4.9161    7.8452    4.7863 C.3     1  UNL1        0.0041
     87 H           5.1403    7.8595    5.8602 H       1  UNL1        0.0429
     88 H           3.8316    7.9118    4.6894 H       1  UNL1        0.0429
     89 H           5.2177    6.9799    4.2333 H       1  UNL1        0.0429
     90 C           4.7174   10.3577    5.0022 C.2     1  UNL1        0.2366
     91 C           4.8205   12.2301    4.1911 C.3     1  UNL1        0.1019
     92 H           4.0836   12.7600    4.8221 H       1  UNL1        0.0597
     93 C           4.3680   12.6084    2.4996 C.3     1  UNL1       -0.0197
     94 H           4.6288   13.6644    2.4234 H       1  UNL1        0.0318
     95 C           2.8445   12.5530    2.2046 C.3     1  UNL1       -0.0605
     96 H           2.6726   12.6990    1.1320 H       1  UNL1        0.0233
     97 H           2.3357   11.6094    2.4341 H       1  UNL1        0.0233
     98 H           2.3306   13.3492    2.7397 H       1  UNL1        0.0233
     99 C           5.1101   12.0060    1.2046 C.3     1  UNL1       -0.0605
    100 H           4.6241   12.3475    0.2892 H       1  UNL1        0.0233
    101 H           5.0722   10.9481    0.9841 H       1  UNL1        0.0233
    102 H           6.1747   12.2132    1.1512 H       1  UNL1        0.0233
    103 C           7.3753   13.6151    3.4485 C.2     1  UNL1        0.2228
    104 C           9.0877   13.5056    3.9034 C.3     1  UNL1        0.0781
    105 C           9.6381   14.9052    4.0726 C.3     1  UNL1       -0.0480
    106 H           8.9331   15.5799    4.5407 H       1  UNL1        0.0241
    107 H           9.8674   15.3085    3.0742 H       1  UNL1        0.0241
    108 H          10.5920   14.8753    4.6142 H       1  UNL1        0.0241
    109 C          10.2026   12.9846    2.7545 C.3     1  UNL1       -0.0480
    110 H          11.1878   13.4532    2.8848 H       1  UNL1        0.0241
    111 H          10.5200   11.9255    2.7890 H       1  UNL1        0.0241
    112 H           9.8544   13.1594    1.7305 H       1  UNL1        0.0241
    113 C           9.1835   12.5732    5.1332 C.3     1  UNL1        0.1165
    114 H           8.1833   12.4880    5.5010 H       1  UNL1        0.0744
    115 C           9.8533   12.7793    6.4618 C.3     1  UNL1       -0.0138
    116 H          10.9445   12.7863    6.3954 H       1  UNL1        0.0301
    117 H           9.6279   11.8733    7.0602 H       1  UNL1        0.0301
    118 C           9.2661   13.9493    7.2209 C.3     1  UNL1       -0.0388
    119 H           8.1730   13.8680    7.2967 H       1  UNL1        0.0275
    120 H           9.4881   14.8880    6.7131 H       1  UNL1        0.0275
    121 C           9.8709   13.9202    8.5923 C.3     1  UNL1        0.0090
    122 H          10.9660   13.9160    8.5134 H       1  UNL1        0.0397
    123 H           9.5850   13.0201    9.1491 H       1  UNL1        0.0397
    124 C           9.5016   15.1415    9.4184 C.1     1  UNL1       -0.1056
    125 C           9.1848   16.1891   10.1270 C.1     1  UNL1       -0.1192
    126 H           8.9269   17.0448   10.7077 H       1  UNL1        0.1228
@<TRIPOS>BOND
     1     1   113    1
     2     3    22    1
     3     4     3    1
     4     8    58    1
     5    12    20    1
     6    12    28   am
     7    14    29    1
     8    15    46    1
     9    16    90   am
    10    17   103   am
    11    19     1    1
    12    20    19    1
    13    22    23    1
    14    24    26    1
    15    24    22    1
    16    25    24    1
    17    27    24    1
    18    29    28    1
    19    31    32    1
    20    31    33    1
    21    33    34    1
    22    33    35    1
    23    36    33    1
    24    37    31    1
    25    37    39    1
    26    38    37    1
    27    40    37    1
    28    41    44    1
    29    42    41    1
    30    43    41    1
    31    45    46    1
    32    45    14   am
    33    48    46    1
    34    51    48    1
    35    54    51    1
    36    54    15    1
    37    57    15   am
    38    58    57    1
    39    60    61    1
    40    60    62    1
    41    62    64    1
    42    62    63    1
    43    65    62    1
    44    66    67    1
    45    66    60    1
    46    68    66    1
    47    69    71    1
    48    69    66    1
    49    70    69    1
    50    72    69    1
    51    73     8    1
    52    74    73    1
    53    74    16    1
    54    77    76    1
    55    78    80    1
    56    78    79    1
    57    78    76    1
    58    81    78    1
    59    82    85    1
    60    82    83    1
    61    82    76    1
    62    84    82    1
    63    86    89    1
    64    86    87    1
    65    88    86    1
    66    90    91    1
    67    91    17    1
    68    93    99    1
    69    93    95    1
    70    94    93    1
    71    95    98    1
    72    96    95    1
    73    97    95    1
    74    99   100    1
    75   101    99    1
    76   102    99    1
    77   103   104    1
    78   104   113    1
    79   105   108    1
    80   105   107    1
    81   106   105    1
    82   109   111    1
    83   110   109    1
    84   112   109    1
    85   115   117    1
    86   115   116    1
    87   115   118    1
    88   118   121    1
    89   118   120    1
    90   119   118    1
    91   121   122    1
    92   121   124    1
    93   123   121    1
    94   124   125    3
    95   125   126    1
    96    13    12    1
    97    41    14    1
    98    86    16    1
    99    17    18    1
   100    19     2    2
   101    28     5    2
   102     6    45    2
   103    46    47    1
   104    48    49    1
   105    48    50    1
   106    52    51    1
   107    53    51    1
   108    54    56    1
   109    55    54    1
   110    57     7    2
   111    58    59    1
   112    58    60    1
   113     9    73    2
   114    74    75    1
   115    76    74    1
   116    90    10    2
   117    91    92    1
   118    93    91    1
   119    11   103    2
   120   104   105    1
   121   109   104    1
   122   113   114    1
   123   113   115    1
   124    20    22    1
   125    20    21    1
   126    29    31    1
   127    29    30    1
@<TRIPOS>MOLECULE
mol_792_akc_jalgal2023103241
44627702
 47 47 0 0 0
SMALL
GASTEIGER

@<TRIPOS>ATOM
      1 CL          2.7714   -3.0448   -0.4521 Cl      1  UNL1       -0.0831
      2 CL          5.4651   -2.4494   -1.3197 Cl      1  UNL1       -0.0831
      3 CL          3.2927   -2.5083   -3.2309 Cl      1  UNL1       -0.0831
      4 S           3.2078    9.8070    1.1085 S.2     1  UNL1       -0.0787
      5 O          -0.5468    6.3382    1.5355 O.2     1  UNL1       -0.2705
      6 N           1.7043    6.1856    1.8439 N.am    1  UNL1       -0.3025
      7 N           4.2479    7.4548    1.3536 N.ar    1  UNL1       -0.2504
      8 C           1.9245    7.8266    3.7336 C.3     1  UNL1       -0.0221
      9 C           1.8708    7.5949    2.1955 C.3     1  UNL1        0.0743
     10 C           0.5791    7.5384    4.4022 C.3     1  UNL1       -0.0606
     11 C           3.0371    7.0374    4.4363 C.3     1  UNL1       -0.0606
     12 C           3.1324    8.1368    1.5466 C.ar    1  UNL1        0.0987
     13 C           3.5704   -0.4404   -1.2929 C.3     1  UNL1        0.0064
     14 C           2.5585   -0.0787   -0.1733 C.3     1  UNL1       -0.0280
     15 C           0.4753    5.6559    1.5595 C.2     1  UNL1        0.2403
     16 C           3.7275   -1.9863   -1.5576 C.3     1  UNL1        0.1935
     17 C           3.3025    0.3880   -2.5638 C.3     1  UNL1       -0.0583
     18 C           0.3905    4.1693    1.3390 C.2     1  UNL1        0.0112
     19 C           2.5324    1.3895    0.1757 C.2     1  UNL1       -0.0836
     20 C           1.4410    3.4634    0.8796 C.2     1  UNL1       -0.0542
     21 C           1.4332    2.0426    0.5885 C.2     1  UNL1       -0.0653
     22 C           4.8638    9.6219    0.7232 C.ar    1  UNL1       -0.0045
     23 C           5.2369    8.3070    0.8961 C.ar    1  UNL1        0.0351
     24 C          -0.9670    3.5594    1.5917 C.3     1  UNL1       -0.0348
     25 H           2.1336    8.8914    3.9083 H       1  UNL1        0.0317
     26 H           1.0143    8.1487    1.7891 H       1  UNL1        0.0572
     27 H           0.2987    6.4845    4.3162 H       1  UNL1        0.0233
     28 H           0.6208    7.7849    5.4687 H       1  UNL1        0.0233
     29 H          -0.2130    8.1469    3.9537 H       1  UNL1        0.0233
     30 H           4.0261    7.3263    4.0672 H       1  UNL1        0.0233
     31 H           3.0288    7.2381    5.5132 H       1  UNL1        0.0233
     32 H           2.9213    5.9582    4.2968 H       1  UNL1        0.0233
     33 H           2.5327    5.6086    1.9078 H       1  UNL1        0.1497
     34 H           4.5400   -0.0739   -0.9241 H       1  UNL1        0.0342
     35 H           1.5536   -0.4108   -0.4613 H       1  UNL1        0.0311
     36 H           2.8432   -0.6037    0.7466 H       1  UNL1        0.0311
     37 H           3.3479    1.4627   -2.3609 H       1  UNL1        0.0234
     38 H           4.0602    0.1919   -3.3299 H       1  UNL1        0.0234
     39 H           2.3110    0.1757   -2.9778 H       1  UNL1        0.0234
     40 H           3.4764    1.9276    0.0896 H       1  UNL1        0.0572
     41 H           2.3815    3.9691    0.6634 H       1  UNL1        0.0622
     42 H           0.5047    1.4929    0.7038 H       1  UNL1        0.0615
     43 H           5.4651   10.4582    0.3966 H       1  UNL1        0.0709
     44 H           6.2315    7.9182    0.7147 H       1  UNL1        0.0835
     45 H          -1.3681    3.1204    0.6710 H       1  UNL1        0.0279
     46 H          -0.9026    2.7783    2.3568 H       1  UNL1        0.0279
     47 H          -1.7051    4.2853    1.9455 H       1  UNL1        0.0279
@<TRIPOS>BOND
     1     1    16    1
     2     2    16    1
     3     3    16    1
     4     4    12   ar
     5     4    22   ar
     6     5    15    2
     7     6     9    1
     8     6    15   am
     9     6    33    1
    10     7    12   ar
    11     7    23   ar
    12     8     9    1
    13     8    10    1
    14     8    11    1
    15     8    25    1
    16     9    12    1
    17     9    26    1
    18    10    27    1
    19    10    28    1
    20    10    29    1
    21    11    30    1
    22    11    31    1
    23    11    32    1
    24    13    17    1
    25    13    34    1
    26    14    19    1
    27    14    35    1
    28    14    36    1
    29    15    18    1
    30    17    37    1
    31    17    38    1
    32    17    39    1
    33    18    20    2
    34    18    24    1
    35    19    21    2
    36    19    40    1
    37    20    21    1
    38    20    41    1
    39    21    42    1
    40    22    23   ar
    41    22    43    1
    42    23    44    1
    43    24    45    1
    44    24    46    1
    45    24    47    1
    46    13    16    1
    47    13    14    1
@<TRIPOS>MOLECULE
mol_793_akc_d3md00220a
*****
 41 43 0 0 0
SMALL
GASTEIGER

@<TRIPOS>ATOM
      1 O           4.7606   -0.1594   -3.4443 O.2     1  UNL1       -0.1231
      2 N           4.7043   -0.2224   -2.2090 N.pl3   1  UNL1        0.0926
      3 O           4.6215   -1.2622   -1.5414 O.2     1  UNL1       -0.1231
      4 C           4.7470    1.0218   -1.5094 C.ar    1  UNL1        0.2803
      5 C           4.8205    2.3204   -1.9529 C.ar    1  UNL1        0.0166
      6 C           4.8548    3.1291   -0.7735 C.ar    1  UNL1        0.0349
      7 C           4.9549    4.5611   -0.6437 C.2     1  UNL1        0.0601
      8 N           5.0186    5.2851   -1.7128 N.2     1  UNL1       -0.1570
      9 N           5.1601    6.6356   -1.3881 N.2     1  UNL1       -0.1571
     10 C           5.1834    7.3639   -2.4602 C.2     1  UNL1        0.0570
     11 C           5.3470    8.8305   -2.4215 C.ar    1  UNL1       -0.0050
     12 C           5.5323    9.5156   -1.2197 C.ar    1  UNL1       -0.0496
     13 C           5.6649   10.9093   -1.2279 C.ar    1  UNL1       -0.0193
     14 C           5.6189   11.6243   -2.4292 C.ar    1  UNL1        0.1210
     15 O           5.7595   12.9828   -2.3062 O.3     1  UNL1       -0.4874
     16 C           5.9162   13.7125   -3.5263 C.3     1  UNL1        0.1146
     17 C           6.3658   15.1419   -3.3082 C.ar    1  UNL1       -0.0104
     18 C           6.8903   15.5914   -2.0897 C.ar    1  UNL1       -0.0554
     19 C           7.4217   16.8788   -1.9788 C.ar    1  UNL1       -0.0614
     20 C           7.4333   17.7313   -3.0818 C.ar    1  UNL1       -0.0617
     21 C           6.8897   17.3081   -4.2915 C.ar    1  UNL1       -0.0614
     22 C           6.3574   16.0228   -4.4035 C.ar    1  UNL1       -0.0554
     23 C           5.4339   10.9292   -3.6274 C.ar    1  UNL1       -0.0193
     24 C           5.3067    9.5355   -3.6267 C.ar    1  UNL1       -0.0496
     25 C           4.7836    2.2448    0.2876 C.ar    1  UNL1        0.1033
     26 O           4.7189    0.9575   -0.1502 O.2     1  UNL1       -0.4417
     27 H           4.8597    2.6527   -2.9785 H       1  UNL1        0.0680
     28 H           4.9890    4.9964    0.3713 H       1  UNL1        0.0855
     29 H           5.0775    6.9018   -3.4594 H       1  UNL1        0.0854
     30 H           5.5746    8.9772   -0.2759 H       1  UNL1        0.0625
     31 H           5.8090   11.4401   -0.2896 H       1  UNL1        0.0654
     32 H           6.6943   13.2418   -4.1414 H       1  UNL1        0.0748
     33 H           4.9590   13.7205   -4.0618 H       1  UNL1        0.0748
     34 H           6.9092   14.9363   -1.2216 H       1  UNL1        0.0621
     35 H           7.8445   17.2105   -1.0341 H       1  UNL1        0.0618
     36 H           7.8708   18.7228   -2.9996 H       1  UNL1        0.0618
     37 H           6.8965   17.9709   -5.1530 H       1  UNL1        0.0618
     38 H           5.9558   15.7014   -5.3624 H       1  UNL1        0.0621
     39 H           5.3792   11.4387   -4.5842 H       1  UNL1        0.0654
     40 H           5.1701    9.0157   -4.5711 H       1  UNL1        0.0625
     41 H           4.7778    2.3656    1.3637 H       1  UNL1        0.1037
@<TRIPOS>BOND
     1     1     2    2
     2     2     3    2
     3     2     4    1
     4     4     5   ar
     5     5     6   ar
     6     6     7    1
     7     7     8    2
     8     8     9    1
     9     9    10    2
    10    10    11    1
    11    11    12   ar
    12    12    13   ar
    13    13    14   ar
    14    14    15    1
    15    15    16    1
    16    16    17    1
    17    17    18   ar
    18    18    19   ar
    19    19    20   ar
    20    20    21   ar
    21    21    22   ar
    22    17    22   ar
    23    14    23   ar
    24    23    24   ar
    25    11    24   ar
    26     6    25   ar
    27    25    26   ar
    28     4    26   ar
    29     5    27    1
    30     7    28    1
    31    10    29    1
    32    12    30    1
    33    13    31    1
    34    16    32    1
    35    16    33    1
    36    18    34    1
    37    19    35    1
    38    20    36    1
    39    21    37    1
    40    22    38    1
    41    23    39    1
    42    24    40    1
    43    25    41    1
@<TRIPOS>MOLECULE
mol_794_akc_preprints2023081856v1
*****
 45 47 0 0 0
SMALL
GASTEIGER

@<TRIPOS>ATOM
      1 C          -0.6871    1.1538   -0.1481 C.3     1  UNL1        0.0790
      2 O           0.6778    1.5308    0.0320 O.3     1  UNL1       -0.4914
      3 C           0.9364    2.3483    1.1101 C.ar    1  UNL1        0.1632
      4 C           2.1789    2.2005    1.7671 C.ar    1  UNL1        0.1762
      5 O           2.9976    1.2199    1.2526 O.3     1  UNL1       -0.4832
      6 C           4.4032    1.4677    1.2731 C.3     1  UNL1        0.1078
      7 C           5.1205    0.8651    0.0955 C.2     1  UNL1       -0.0542
      8 C           4.5819    0.2212   -0.9462 C.2     1  UNL1       -0.0995
      9 C           2.4249    2.9983    2.8997 C.ar    1  UNL1        0.0637
     10 BR          3.8721    2.7608    4.1179 Br      1  UNL1       -0.0464
     11 C           1.5172    4.0045    3.2760 C.ar    1  UNL1       -0.0368
     12 C           0.3289    4.2049    2.5740 C.ar    1  UNL1       -0.0203
     13 C          -0.6050    5.2557    3.0101 C.2     1  UNL1       -0.0539
     14 C          -1.4523    5.8871    2.1812 C.2     1  UNL1       -0.0540
     15 C          -2.3617    6.9494    2.5730 C.2     1  UNL1       -0.0248
     16 C          -3.2504    6.7930    3.5679 C.2     1  UNL1       -0.0909
     17 C          -2.3732    8.2212    1.8238 C.ar    1  UNL1       -0.0148
     18 C          -1.5872    9.3008    2.2832 C.ar    1  UNL1       -0.0504
     19 C          -1.4947   10.4848    1.5407 C.ar    1  UNL1       -0.0156
     20 C          -2.1857   10.5444    0.3515 C.ar    1  UNL1        0.1663
     21 O          -2.1806   11.5928   -0.5151 O.3     1  UNL1       -0.4526
     22 C          -2.9836   11.0592   -1.5882 C.3     1  UNL1        0.2332
     23 O          -3.5387    9.7591   -1.2981 O.3     1  UNL1       -0.4526
     24 C          -2.9597    9.5003   -0.0951 C.ar    1  UNL1        0.1668
     25 C          -3.0816    8.3251    0.6200 C.ar    1  UNL1       -0.0084
     26 C           0.0356    3.3450    1.5129 C.ar    1  UNL1       -0.0091
     27 H          -0.7397    0.4823   -1.0103 H       1  UNL1        0.0660
     28 H          -1.3304    2.0077   -0.3821 H       1  UNL1        0.0660
     29 H          -1.0626    0.6136    0.7278 H       1  UNL1        0.0660
     30 H           4.6308    2.5399    1.2740 H       1  UNL1        0.0742
     31 H           4.8189    0.9866    2.1639 H       1  UNL1        0.0742
     32 H           6.2047    0.9809    0.1205 H       1  UNL1        0.0600
     33 H           5.2108   -0.1718   -1.7389 H       1  UNL1        0.0533
     34 H           3.5093    0.0750   -1.0291 H       1  UNL1        0.0533
     35 H           1.7410    4.6340    4.1358 H       1  UNL1        0.0636
     36 H          -0.5604    5.5361    4.0600 H       1  UNL1        0.0624
     37 H          -1.4558    5.6690    1.1149 H       1  UNL1        0.0624
     38 H          -3.9502    7.5788    3.8377 H       1  UNL1        0.0541
     39 H          -3.3163    5.8673    4.1321 H       1  UNL1        0.0541
     40 H          -1.0265    9.2088    3.2095 H       1  UNL1        0.0625
     41 H          -0.8802   11.3098    1.8775 H       1  UNL1        0.0655
     42 H          -3.8046   11.7554   -1.7930 H       1  UNL1        0.1166
     43 H          -2.3582   10.9788   -2.4854 H       1  UNL1        0.1166
     44 H          -3.6814    7.5090    0.2380 H       1  UNL1        0.0661
     45 H          -0.9039    3.4743    0.9886 H       1  UNL1        0.0661
@<TRIPOS>BOND
     1     1     2    1
     2     2     3    1
     3     3     4   ar
     4     4     5    1
     5     5     6    1
     6     6     7    1
     7     7     8    2
     8     4     9   ar
     9     9    10    1
    10     9    11   ar
    11    11    12   ar
    12    12    13    1
    13    13    14    2
    14    14    15    1
    15    15    16    2
    16    15    17    1
    17    17    18   ar
    18    18    19   ar
    19    19    20   ar
    20    20    21    1
    21    21    22    1
    22    22    23    1
    23    23    24    1
    24    20    24   ar
    25    24    25   ar
    26    17    25   ar
    27    12    26   ar
    28     3    26   ar
    29     1    27    1
    30     1    28    1
    31     1    29    1
    32     6    30    1
    33     6    31    1
    34     7    32    1
    35     8    33    1
    36     8    34    1
    37    11    35    1
    38    13    36    1
    39    14    37    1
    40    16    38    1
    41    16    39    1
    42    18    40    1
    43    19    41    1
    44    22    42    1
    45    22    43    1
    46    25    44    1
    47    26    45    1
@<TRIPOS>MOLECULE
mol_795_akc_ufudi2023494
*****
 56 58 0 0 0
SMALL
GASTEIGER

@<TRIPOS>ATOM
      1 C           6.0994   -0.9901    1.4669 C.ar    1  UNL1       -0.0340
      2 C           7.2827   -1.6885    1.7399 C.ar    1  UNL1       -0.0415
      3 C           8.0575   -2.1855    0.6902 C.ar    1  UNL1        0.0411
      4 C           7.6579   -2.0053   -0.6343 C.ar    1  UNL1       -0.0415
      5 C           6.4793   -1.3127   -0.9150 C.ar    1  UNL1       -0.0340
      6 C           5.7188   -0.7880    0.1363 C.ar    1  UNL1        0.1056
      7 S           4.2030    0.0725   -0.2273 S.O2    1  UNL1        0.0609
      8 CL          9.5145   -3.0336    1.0318 Cl      1  UNL1       -0.0835
      9 O           3.7582   -0.3755   -1.5297 O.2     1  UNL1       -0.1528
     10 O           3.3446   -0.0347    0.9322 O.2     1  UNL1       -0.1528
     11 N           4.6940    1.6824   -0.3738 N.3     1  UNL1       -0.1736
     12 C           5.0115    3.9291    0.6067 C.3     1  UNL1        0.0294
     13 C           5.0694    2.4110    0.8630 C.3     1  UNL1        0.0364
     14 C           5.6118    2.0245   -1.4962 C.3     1  UNL1        0.0364
     15 C           5.5119    3.5261   -1.7905 C.3     1  UNL1        0.0294
     16 N           5.7520    4.3522   -0.5982 N.am    1  UNL1       -0.2950
     17 C           6.4420    5.5581   -0.7815 C.2     1  UNL1        0.2467
     18 O           7.1035    5.7837   -1.7946 O.2     1  UNL1       -0.2700
     19 C           6.4296    6.6154    0.2664 C.ar    1  UNL1        0.0371
     20 C           7.5995    7.3517    0.5095 C.ar    1  UNL1       -0.0462
     21 C           5.2722    6.9319    0.9776 C.ar    1  UNL1       -0.0462
     22 C           5.3315    7.8228    2.0471 C.ar    1  UNL1       -0.0192
     23 C           6.5433    8.4259    2.3961 C.ar    1  UNL1        0.1206
     24 C           7.6529    8.2651    1.5699 C.ar    1  UNL1       -0.0192
     25 O           6.7213    9.1432    3.5569 O.3     1  UNL1       -0.4907
     26 C           5.9533    8.5863    4.6397 C.3     1  UNL1        0.1022
     27 C           6.5757    8.8922    6.0103 C.3     1  UNL1        0.0325
     28 N           5.7511    8.3814    7.1276 N.3     1  UNL1       -0.3051
     29 C           5.6233    6.9204    7.1318 C.3     1  UNL1       -0.0129
     30 C           6.2969    8.8158    8.4156 C.3     1  UNL1       -0.0129
     31 H           5.4912   -0.6222    2.2849 H       1  UNL1        0.0637
     32 H           7.5896   -1.8466    2.7709 H       1  UNL1        0.0633
     33 H           8.2550   -2.4079   -1.4496 H       1  UNL1        0.0633
     34 H           6.1604   -1.1906   -1.9488 H       1  UNL1        0.0637
     35 H           3.9666    4.2255    0.4517 H       1  UNL1        0.0478
     36 H           5.3942    4.4363    1.4943 H       1  UNL1        0.0478
     37 H           4.3793    2.1742    1.6787 H       1  UNL1        0.0459
     38 H           6.0814    2.1251    1.1704 H       1  UNL1        0.0459
     39 H           6.6414    1.7709   -1.2160 H       1  UNL1        0.0459
     40 H           5.3497    1.4673   -2.4001 H       1  UNL1        0.0459
     41 H           4.5000    3.7696   -2.1377 H       1  UNL1        0.0478
     42 H           6.2048    3.7847   -2.5972 H       1  UNL1        0.0478
     43 H           8.4813    7.1967   -0.1099 H       1  UNL1        0.0626
     44 H           4.3198    6.4742    0.7326 H       1  UNL1        0.0626
     45 H           4.4266    8.0046    2.6192 H       1  UNL1        0.0654
     46 H           8.5723    8.8068    1.7764 H       1  UNL1        0.0654
     47 H           4.9401    9.0026    4.6003 H       1  UNL1        0.0709
     48 H           5.9117    7.4974    4.5270 H       1  UNL1        0.0709
     49 H           7.5992    8.4997    6.0538 H       1  UNL1        0.0460
     50 H           6.6646    9.9843    6.0924 H       1  UNL1        0.0460
     51 H           6.5871    6.4209    7.2831 H       1  UNL1        0.0391
     52 H           4.9408    6.6038    7.9292 H       1  UNL1        0.0391
     53 H           5.1813    6.5393    6.2072 H       1  UNL1        0.0391
     54 H           7.2367    8.3049    8.6576 H       1  UNL1        0.0391
     55 H           6.4795    9.8951    8.4273 H       1  UNL1        0.0391
     56 H           5.5770    8.6089    9.2152 H       1  UNL1        0.0391
@<TRIPOS>BOND
     1     1     2   ar
     2     1     6   ar
     3     2     3   ar
     4     3     4   ar
     5     4     5   ar
     6     5     6   ar
     7     6     7    1
     8     3     8    1
     9     7     9    2
    10     7    10    2
    11     7    11    1
    12    13    11    1
    13    11    14    1
    14    12    13    1
    15    12    16    1
    16    14    15    1
    17    15    16    1
    18    16    17   am
    19    17    18    2
    20    17    19    1
    21    20    19   ar
    22    19    21   ar
    23    20    24   ar
    24    21    22   ar
    25    22    23   ar
    26    23    24   ar
    27    23    25    1
    28    25    26    1
    29    26    27    1
    30    27    28    1
    31    28    29    1
    32    28    30    1
    33     1    31    1
    34     2    32    1
    35     4    33    1
    36     5    34    1
    37    12    35    1
    38    12    36    1
    39    13    37    1
    40    13    38    1
    41    14    39    1
    42    14    40    1
    43    15    41    1
    44    15    42    1
    45    20    43    1
    46    21    44    1
    47    22    45    1
    48    24    46    1
    49    26    47    1
    50    26    48    1
    51    27    49    1
    52    27    50    1
    53    29    51    1
    54    29    52    1
    55    29    53    1
    56    30    54    1
    57    30    55    1
    58    30    56    1
@<TRIPOS>MOLECULE
mol_796_akc_ufudi2023494
*****
 54 56 0 0 0
SMALL
GASTEIGER

@<TRIPOS>ATOM
      1 C          -5.0065   -0.5324   -2.4971 C.ar    1  UNL1       -0.0326
      2 C          -6.0321   -1.0516   -3.2870 C.ar    1  UNL1       -0.0246
      3 C          -7.1623   -1.5922   -2.6798 C.ar    1  UNL1        0.1235
      4 C          -7.2881   -1.6311   -1.2941 C.ar    1  UNL1       -0.0246
      5 C          -6.2665   -1.1174   -0.4958 C.ar    1  UNL1       -0.0326
      6 C          -5.1353   -0.5550   -1.1025 C.ar    1  UNL1        0.1057
      7 S          -3.8038    0.0544   -0.0861 S.O2    1  UNL1        0.0609
      8 F          -8.1419   -2.0926   -3.4432 F       1  UNL1       -0.2055
      9 O          -3.8925   -0.6275    1.1894 O.2     1  UNL1       -0.1528
     10 O          -2.5928   -0.0011   -0.8839 O.2     1  UNL1       -0.1528
     11 N          -4.2084    1.6622    0.1507 N.3     1  UNL1       -0.1736
     12 C          -3.9750    4.0640   -0.4353 C.3     1  UNL1        0.0266
     13 C          -4.0829    2.6243   -0.9855 C.3     1  UNL1        0.0363
     14 C          -5.4017    1.9653    0.9881 C.3     1  UNL1        0.0363
     15 C          -5.2324    3.3654    1.6006 C.3     1  UNL1        0.0266
     16 N          -5.0667    4.3424    0.5140 N.pl3   1  UNL1       -0.3273
     17 C          -5.9131    5.4199    0.4044 C.ar    1  UNL1        0.0300
     18 C          -6.3750    5.8874   -0.8336 C.ar    1  UNL1       -0.0372
     19 C          -6.3605    6.0901    1.5489 C.ar    1  UNL1       -0.0372
     20 C          -7.1855    7.2080    1.4653 C.ar    1  UNL1       -0.0182
     21 C          -7.5417    7.7197    0.2191 C.ar    1  UNL1        0.1207
     22 C          -7.1938    7.0205   -0.9299 C.ar    1  UNL1       -0.0182
     23 O          -8.1687    8.9317    0.0517 O.3     1  UNL1       -0.4907
     24 C          -7.7483    9.8762    1.0509 C.3     1  UNL1        0.1022
     25 C          -7.8247   11.3205    0.5428 C.3     1  UNL1        0.0325
     26 N          -7.4628   12.2995    1.5902 N.3     1  UNL1       -0.3051
     27 C          -6.0760   12.1646    2.0480 C.3     1  UNL1       -0.0129
     28 C          -7.6800   13.6658    1.1133 C.3     1  UNL1       -0.0129
     29 H          -4.1132   -0.1279   -2.9674 H       1  UNL1        0.0638
     30 H          -5.9538   -1.0502   -4.3699 H       1  UNL1        0.0647
     31 H          -8.1744   -2.0726   -0.8485 H       1  UNL1        0.0647
     32 H          -6.3515   -1.1676    0.5879 H       1  UNL1        0.0638
     33 H          -3.0226    4.1697    0.1015 H       1  UNL1        0.0477
     34 H          -3.9410    4.7789   -1.2645 H       1  UNL1        0.0477
     35 H          -3.1869    2.4072   -1.5793 H       1  UNL1        0.0459
     36 H          -4.9623    2.5425   -1.6353 H       1  UNL1        0.0459
     37 H          -6.3036    1.9418    0.3623 H       1  UNL1        0.0459
     38 H          -5.5212    1.2395    1.7945 H       1  UNL1        0.0459
     39 H          -4.3491    3.3924    2.2507 H       1  UNL1        0.0477
     40 H          -6.1109    3.5687    2.2224 H       1  UNL1        0.0477
     41 H          -6.1098    5.3665   -1.7491 H       1  UNL1        0.0637
     42 H          -6.0213    5.7843    2.5353 H       1  UNL1        0.0637
     43 H          -7.4891    7.6923    2.3880 H       1  UNL1        0.0655
     44 H          -7.5193    7.3734   -1.9041 H       1  UNL1        0.0655
     45 H          -8.3904    9.7610    1.9324 H       1  UNL1        0.0709
     46 H          -6.7058    9.6779    1.3234 H       1  UNL1        0.0709
     47 H          -7.1951   11.4347   -0.3496 H       1  UNL1        0.0460
     48 H          -8.8566   11.4985    0.2125 H       1  UNL1        0.0460
     49 H          -5.3550   12.3427    1.2419 H       1  UNL1        0.0391
     50 H          -5.8734   12.8753    2.8570 H       1  UNL1        0.0391
     51 H          -5.8759   11.1779    2.4769 H       1  UNL1        0.0391
     52 H          -6.9658   13.9475    0.3311 H       1  UNL1        0.0391
     53 H          -8.6933   13.7901    0.7177 H       1  UNL1        0.0391
     54 H          -7.5785   14.3723    1.9450 H       1  UNL1        0.0391
@<TRIPOS>BOND
     1     1     2   ar
     2     1     6   ar
     3     2     3   ar
     4     3     4   ar
     5     4     5   ar
     6     5     6   ar
     7     6     7    1
     8     3     8    1
     9     7     9    2
    10     7    10    2
    11     7    11    1
    12    13    11    1
    13    11    14    1
    14    12    13    1
    15    12    16    1
    16    14    15    1
    17    15    16    1
    18    18    17   ar
    19    17    19   ar
    20    18    22   ar
    21    19    20   ar
    22    20    21   ar
    23    21    22   ar
    24    21    23    1
    25    23    24    1
    26    24    25    1
    27    25    26    1
    28    26    27    1
    29    26    28    1
    30    16    17    1
    31     1    29    1
    32     2    30    1
    33     4    31    1
    34     5    32    1
    35    12    33    1
    36    12    34    1
    37    13    35    1
    38    13    36    1
    39    14    37    1
    40    14    38    1
    41    15    39    1
    42    15    40    1
    43    18    41    1
    44    19    42    1
    45    20    43    1
    46    22    44    1
    47    24    45    1
    48    24    46    1
    49    25    47    1
    50    25    48    1
    51    27    49    1
    52    27    50    1
    53    27    51    1
    54    28    52    1
    55    28    53    1
    56    28    54    1
@<TRIPOS>MOLECULE
mol_797_akc_pharmaceutics15092292
*****
 59 61 0 0 0
SMALL
GASTEIGER

@<TRIPOS>ATOM
      1 C          -0.2103    3.6620   -0.9375 C.ar    1  UNL1       -0.0104
      2 C          -0.9732    4.8407   -1.0117 C.ar    1  UNL1        0.1655
      3 C          -0.5959    5.9637   -0.2418 C.ar    1  UNL1        0.2035
      4 C           0.5241    5.8493    0.6063 C.ar    1  UNL1        0.1655
      5 C           1.2763    4.6672    0.6324 C.ar    1  UNL1       -0.0104
      6 C           0.9778    3.5873   -0.2011 C.ar    1  UNL1       -0.0115
      7 C           1.8722    2.3579   -0.2928 C.3     1  UNL1        0.0875
      8 C           3.9217    2.4748   -1.6446 C.3     1  UNL1       -0.0081
      9 C           2.4650    1.9805   -1.6743 C.3     1  UNL1       -0.0081
     10 O           3.0455    2.5047    0.5440 O.3     1  UNL1       -0.3636
     11 C           4.0461    3.1372   -0.2695 C.3     1  UNL1        0.0874
     12 C           5.4251    3.1737    0.3403 C.ar    1  UNL1       -0.0149
     13 C           4.8760    1.3034   -1.8983 C.3     1  UNL1       -0.0594
     14 C           1.7673    2.4384   -2.9503 C.3     1  UNL1       -0.0594
     15 C           6.4375    3.8846   -0.3328 C.ar    1  UNL1       -0.0107
     16 C           5.7371    2.5540    1.5479 C.ar    1  UNL1       -0.0524
     17 C           7.0425    2.6163    2.0409 C.ar    1  UNL1       -0.0160
     18 C           8.0609    3.2905    1.3472 C.ar    1  UNL1        0.1615
     19 C           7.7540    3.9416    0.1410 C.ar    1  UNL1        0.1618
     20 O          -2.0781    4.9372   -1.8188 O.3     1  UNL1       -0.4913
     21 C          -2.4334    3.8316   -2.6394 C.3     1  UNL1        0.0790
     22 O          -1.2422    7.1715   -0.1963 O.3     1  UNL1       -0.4885
     23 C          -2.3348    7.4347   -1.0595 C.3     1  UNL1        0.0791
     24 O           0.9863    6.7787    1.5073 O.3     1  UNL1       -0.4913
     25 C           0.9097    8.1454    1.1282 C.3     1  UNL1        0.0790
     26 O           9.2675    3.2059    1.9921 O.3     1  UNL1       -0.4915
     27 O           8.7493    4.6114   -0.5228 O.3     1  UNL1       -0.4914
     28 C           8.4325    5.2245   -1.7690 C.3     1  UNL1        0.0790
     29 C          10.4095    3.7905    1.3827 C.3     1  UNL1        0.0790
     30 H          -0.5240    2.7733   -1.4743 H       1  UNL1        0.0659
     31 H           2.1249    4.6194    1.3136 H       1  UNL1        0.0659
     32 H           1.3016    1.5137    0.1130 H       1  UNL1        0.0649
     33 H           4.1152    3.2271   -2.4203 H       1  UNL1        0.0330
     34 H           2.4719    0.8816   -1.7078 H       1  UNL1        0.0330
     35 H           3.7471    4.1897   -0.3696 H       1  UNL1        0.0649
     36 H           4.6360    0.8158   -2.8495 H       1  UNL1        0.0233
     37 H           5.9145    1.6401   -1.9677 H       1  UNL1        0.0233
     38 H           4.8112    0.5514   -1.1048 H       1  UNL1        0.0233
     39 H           1.6940    3.5292   -3.0086 H       1  UNL1        0.0233
     40 H           2.3321    2.1068   -3.8297 H       1  UNL1        0.0233
     41 H           0.7684    2.0028   -3.0389 H       1  UNL1        0.0233
     42 H           6.1588    4.3849   -1.2566 H       1  UNL1        0.0659
     43 H           4.9755    2.0208    2.1118 H       1  UNL1        0.0622
     44 H           7.2756    2.1244    2.9837 H       1  UNL1        0.0655
     45 H          -1.6030    3.5118   -3.2776 H       1  UNL1        0.0660
     46 H          -2.8083    3.0048   -2.0278 H       1  UNL1        0.0660
     47 H          -3.2437    4.1544   -3.3003 H       1  UNL1        0.0660
     48 H          -2.0489    7.3508   -2.1127 H       1  UNL1        0.0660
     49 H          -3.1951    6.8087   -0.8074 H       1  UNL1        0.0660
     50 H          -2.6384    8.4742   -0.8936 H       1  UNL1        0.0660
     51 H           1.2050    8.3010    0.0852 H       1  UNL1        0.0660
     52 H          -0.0836    8.5536    1.3341 H       1  UNL1        0.0660
     53 H           1.6143    8.6990    1.7572 H       1  UNL1        0.0660
     54 H           8.0717    4.4897   -2.4955 H       1  UNL1        0.0660
     55 H           7.7133    6.0387   -1.6331 H       1  UNL1        0.0660
     56 H           9.3537    5.6582   -2.1693 H       1  UNL1        0.0660
     57 H          10.6047    3.3598    0.3945 H       1  UNL1        0.0660
     58 H          10.3221    4.8794    1.3504 H       1  UNL1        0.0660
     59 H          11.2741    3.5532    2.0097 H       1  UNL1        0.0660
@<TRIPOS>BOND
     1     1     2   ar
     2     1     6   ar
     3     2     3   ar
     4     3     4   ar
     5     4     5   ar
     6     5     6   ar
     7     9     7    1
     8     7    10    1
     9     8     9    1
    10     8    11    1
    11    10    11    1
    12    11    12    1
    13     8    13    1
    14    15    12   ar
    15    12    16   ar
    16    15    19   ar
    17    16    17   ar
    18    17    18   ar
    19    18    19   ar
    20     2    20    1
    21    20    21    1
    22     3    22    1
    23    22    23    1
    24     4    24    1
    25    24    25    1
    26    18    26    1
    27    19    27    1
    28    27    28    1
    29    26    29    1
    30     1    30    1
    31     5    31    1
    32     8    33    1
    33    11    35    1
    34    13    36    1
    35    13    37    1
    36    13    38    1
    37    14    39    1
    38    14    40    1
    39    14    41    1
    40    15    42    1
    41    16    43    1
    42    17    44    1
    43    21    45    1
    44    21    46    1
    45    21    47    1
    46    23    48    1
    47    23    49    1
    48    23    50    1
    49    25    51    1
    50    25    52    1
    51    25    53    1
    52    28    54    1
    53    28    55    1
    54    28    56    1
    55    29    57    1
    56    29    58    1
    57    29    59    1
    58     7    32    1
    59     7     6    1
    60     9    34    1
    61     9    14    1
@<TRIPOS>MOLECULE
mol_798_akc_journalpone0291321
9444
 29 30 0 0 0
SMALL
GASTEIGER

@<TRIPOS>ATOM
      1 O4*         1.7113    0.4250    0.2518 O.3     1  UNL1       -0.3456
      2 O2*        -1.8436    0.9744    0.0053 O.3     1  UNL1       -0.3847
      3 O3*        -0.8168   -1.3035    0.7445 O.3     1  UNL1       -0.3864
      4 O5*         3.3944   -0.9295   -1.5900 O.3     1  UNL1       -0.3924
      5 O           1.5252    2.1686   -2.1407 O.2     1  UNL1       -0.2443
      6 N           0.9849    2.6575    0.0080 N.ar    1  UNL1       -0.2535
      7 N           1.9676    4.2467   -1.4140 N.ar    1  UNL1       -0.1594
      8 N           1.3409    4.8363    0.7478 N.ar    1  UNL1       -0.2047
      9 N           2.3718    6.3549   -0.6504 N.pl3   1  UNL1       -0.3273
     10 C2*        -0.5469    0.7035   -0.5349 C.3     1  UNL1        0.1286
     11 C3*        -0.2195   -0.7826   -0.4614 C.3     1  UNL1        0.1135
     12 C4*         1.3037   -0.8120   -0.3881 C.3     1  UNL1        0.1126
     13 C1*         0.5714    1.3054    0.3260 C.3     1  UNL1        0.1693
     14 C5*         1.9781   -0.9382   -1.7565 C.3     1  UNL1        0.0730
     15 C           1.4894    2.9844   -1.2253 C.ar    1  UNL1        0.3545
     16 C           0.9188    3.6391    0.9376 C.ar    1  UNL1        0.1057
     17 C           1.8787    5.1076   -0.4655 C.ar    1  UNL1        0.2184
     18 H2*        -0.5264    1.0535   -1.5684 H       1  UNL1        0.0665
     19 H3*        -0.6381   -1.3548   -1.2943 H       1  UNL1        0.0647
     20 H1*         0.2497    1.2896    1.3759 H       1  UNL1        0.0867
     21 H4*         1.6634   -1.6219    0.2570 H       1  UNL1        0.0647
     22 H5*1        1.7021   -1.8817   -2.2363 H       1  UNL1        0.0584
     23 H5*2        1.7145   -0.1296   -2.4382 H       1  UNL1        0.0584
     24 H2*        -2.1222    0.1534    0.4655 H       1  UNL1        0.2101
     25 H3*        -0.1572   -1.2792    1.4629 H       1  UNL1        0.2100
     26 H           0.4695    3.3583    1.9031 H       1  UNL1        0.1032
     27 H5*         3.6088   -0.0672   -1.1842 H       1  UNL1        0.2095
     28 H           2.6394    6.8120    0.2096 H       1  UNL1        0.1452
     29 H           3.0630    6.3978   -1.3877 H       1  UNL1        0.1452
@<TRIPOS>BOND
     1     1    12    1
     2     1    13    1
     3     2    10    1
     4     2    24    1
     5     3    11    1
     6     3    25    1
     7     4    14    1
     8     4    27    1
     9     5    15    2
    10     6    15   ar
    11     6    16   ar
    12     7    15   ar
    13     7    17   ar
    14     8    16   ar
    15     8    17   ar
    16     9    17    1
    17     9    28    1
    18     9    29    1
    19    10    11    1
    20    10    13    1
    21    10    18    1
    22    11    12    1
    23    11    19    1
    24    14    22    1
    25    14    23    1
    26    16    26    1
    27    12    21    1
    28    12    14    1
    29    13    20    1
    30    13     6    1
@<TRIPOS>MOLECULE
mol_799_akc_journalpntd0011646
*****
 58 62 0 0 0
SMALL
GASTEIGER

@<TRIPOS>ATOM
      1 C          -3.9978   -4.2213    0.4080 C.ar    1  UNL1        0.0620
      2 C          -4.9017   -4.8668   -0.4510 C.ar    1  UNL1        0.0359
      3 C          -5.6219   -5.9782    0.0323 C.ar    1  UNL1        0.1325
      4 C          -5.4350   -6.4328    1.3349 C.ar    1  UNL1       -0.0257
      5 C          -4.5242   -5.7939    2.1704 C.ar    1  UNL1       -0.0570
      6 C          -3.7941   -4.6833    1.7266 C.ar    1  UNL1       -0.0366
      7 C          -4.8347   -4.2091   -1.7137 C.ar    1  UNL1       -0.0327
      8 C          -3.8976   -3.2040   -1.6165 C.ar    1  UNL1        0.0172
      9 N          -3.4089   -3.2260   -0.3453 N.ar    1  UNL1       -0.2986
     10 S          -1.9792   -2.4282    0.0827 S.3     1  UNL1       -0.1060
     11 C          -1.4167   -1.3422   -1.1357 C.2     1  UNL1       -0.0575
     12 C          -2.2660   -1.5107    1.5166 C.2     1  UNL1       -0.0575
     13 C          -0.7867   -3.6902    0.2778 C.ar    1  UNL1        0.0148
     14 C          -1.0086   -4.8279   -0.4828 C.ar    1  UNL1       -0.0474
     15 C           0.1971   -3.7018    1.2681 C.ar    1  UNL1       -0.0442
     16 C           0.7663   -4.9485    1.5990 C.ar    1  UNL1       -0.0419
     17 C           0.0493   -6.0935    1.2441 C.ar    1  UNL1       -0.0429
     18 C          -0.7082   -6.0378    0.0826 C.ar    1  UNL1       -0.0572
     19 F          -6.4804   -6.6273   -0.7669 F       1  UNL1       -0.2048
     20 C           2.1010   -5.0853    2.2902 C.3     1  UNL1       -0.0146
     21 C           2.9838   -6.3572    1.9822 C.3     1  UNL1        0.0032
     22 N           2.4705   -7.6697    1.5486 N.3     1  UNL1       -0.2975
     23 C           1.3073   -8.0883    2.3193 C.3     1  UNL1        0.0032
     24 C           0.0139   -7.3052    2.1281 C.3     1  UNL1       -0.0146
     25 C           2.3461   -7.8519    0.0928 C.3     1  UNL1        0.0241
     26 C           2.1682   -9.3052   -0.3327 C.ar    1  UNL1       -0.0332
     27 C           0.8869   -9.8583   -0.5587 C.ar    1  UNL1       -0.0546
     28 C           0.7411  -11.2046   -0.9217 C.ar    1  UNL1       -0.0262
     29 C           1.8727  -11.9911   -1.0812 C.ar    1  UNL1        0.1234
     30 C           3.1482  -11.4670   -0.8765 C.ar    1  UNL1       -0.0262
     31 C           3.2905  -10.1316   -0.5022 C.ar    1  UNL1       -0.0546
     32 F           1.7352  -13.2701   -1.4303 F       1  UNL1       -0.2055
     33 H          -5.9958   -7.2943    1.6836 H       1  UNL1        0.0646
     34 H          -4.3687   -6.1653    3.1816 H       1  UNL1        0.0619
     35 H          -3.0597   -4.2158    2.3776 H       1  UNL1        0.0639
     36 H          -5.3882   -4.4815   -2.6040 H       1  UNL1        0.0640
     37 H          -3.5213   -2.5219   -2.3669 H       1  UNL1        0.0819
     38 H          -1.4834   -0.2538   -1.0034 H       1  UNL1        0.0614
     39 H          -0.9836   -1.7270   -2.0699 H       1  UNL1        0.0614
     40 H          -1.7155   -1.6834    2.4561 H       1  UNL1        0.0614
     41 H          -3.0454   -0.7255    1.5080 H       1  UNL1        0.0614
     42 H          -1.6093   -4.8104   -1.3862 H       1  UNL1        0.0629
     43 H           0.5123   -2.7928    1.7535 H       1  UNL1        0.0632
     44 H          -1.1148   -6.9448   -0.3519 H       1  UNL1        0.0621
     45 H           2.7114   -4.2315    1.9652 H       1  UNL1        0.0326
     46 H           1.9615   -4.9764    3.3741 H       1  UNL1        0.0326
     47 H           3.7933   -6.0567    1.3041 H       1  UNL1        0.0430
     48 H           3.5160   -6.5528    2.9260 H       1  UNL1        0.0430
     49 H           1.0949   -9.1486    2.1467 H       1  UNL1        0.0430
     50 H           1.5698   -8.0679    3.3856 H       1  UNL1        0.0430
     51 H          -0.7667   -7.9796    1.7670 H       1  UNL1        0.0326
     52 H          -0.3378   -6.9711    3.1124 H       1  UNL1        0.0326
     53 H           1.5554   -7.2590   -0.3644 H       1  UNL1        0.0476
     54 H           3.2630   -7.4925   -0.3915 H       1  UNL1        0.0476
     55 H           0.0050   -9.2465   -0.4366 H       1  UNL1        0.0622
     56 H          -0.2401  -11.6311   -1.0811 H       1  UNL1        0.0646
     57 H           4.0136  -12.1002   -1.0120 H       1  UNL1        0.0646
     58 H           4.2878   -9.7291   -0.3319 H       1  UNL1        0.0622
@<TRIPOS>BOND
     1     2     3   ar
     2     3     4   ar
     3     4     5   ar
     4     5     6   ar
     5     1     6   ar
     6     2     7   ar
     7     1     2   ar
     8     1     9   ar
     9     7     8   ar
    10     8     9   ar
    11     9    10    1
    12    10    11    2
    13    10    12    2
    14    10    13    1
    15    14    13   ar
    16    13    15   ar
    17    15    16   ar
    18    16    17   ar
    19    17    18   ar
    20    14    18   ar
    21     3    19    1
    22    16    20    1
    23    20    21    1
    24    21    22    1
    25    22    23    1
    26    24    17    1
    27    24    23    1
    28    22    25    1
    29    25    26    1
    30    26    27   ar
    31    26    31   ar
    32    27    28   ar
    33    28    29   ar
    34    29    30   ar
    35    30    31   ar
    36    29    32    1
    37     4    33    1
    38     5    34    1
    39     6    35    1
    40     7    36    1
    41     8    37    1
    42    11    38    1
    43    11    39    1
    44    12    40    1
    45    12    41    1
    46    14    42    1
    47    15    43    1
    48    18    44    1
    49    20    45    1
    50    20    46    1
    51    21    47    1
    52    21    48    1
    53    23    49    1
    54    23    50    1
    55    24    51    1
    56    24    52    1
    57    25    53    1
    58    25    54    1
    59    27    55    1
    60    28    56    1
    61    30    57    1
    62    31    58    1
@<TRIPOS>MOLECULE
mol_79_akc_jejmech2020112956
>78.sdf
 32 34 0 0 0
SMALL
GASTEIGER

@<TRIPOS>ATOM
      1 C           1.2336    0.4013   -0.7295 C.3     1  UNL1        0.0018
      2 N           2.4428    0.0250   -0.0138 N.pl3   1  UNL1       -0.3184
      3 C           2.8152    0.8949    1.0916 C.3     1  UNL1        0.0018
      4 C           3.1763   -1.1178   -0.3424 C.ar    1  UNL1        0.1643
      5 N           2.8050   -1.8248   -1.3956 N.ar    1  UNL1       -0.2353
      6 C           3.4982   -2.9633   -1.7448 C.ar    1  UNL1        0.0463
      7 C           4.5541   -3.4396   -1.0717 C.ar    1  UNL1        0.0301
      8 N           4.9897   -2.7453    0.0418 N.ar    1  UNL1       -0.2913
      9 C           4.3393   -1.5917    0.4246 C.ar    1  UNL1        0.1815
     10 N           4.8667   -1.0590    1.5091 N.ar    1  UNL1       -0.1961
     11 C           5.8730   -1.9160    1.8380 C.ar    1  UNL1        0.2413
     12 F           6.6302   -1.7501    2.8885 F       1  UNL1       -0.1815
     13 C           5.9865   -2.9843    0.9698 C.ar    1  UNL1        0.1283
     14 C           6.8621   -4.1423    1.0120 C.ar    1  UNL1        0.0971
     15 N           7.2777   -4.5974   -0.1846 N.ar    1  UNL1       -0.2130
     16 C           8.0528   -5.6840   -0.1755 C.ar    1  UNL1        0.2131
     17 N           8.5018   -6.1600   -1.3892 N.pl3   1  UNL1       -0.3275
     18 N           8.4566   -6.3257    0.9227 N.ar    1  UNL1       -0.2231
     19 C           8.0268   -5.8354    2.0980 C.ar    1  UNL1        0.0333
     20 C           7.2230   -4.7296    2.2048 C.ar    1  UNL1       -0.0158
     21 H           0.3850    0.4399   -0.0377 H       1  UNL1        0.0428
     22 H           1.3582    1.3918   -1.1790 H       1  UNL1        0.0428
     23 H           0.9651   -0.2915   -1.5336 H       1  UNL1        0.0428
     24 H           2.7509    0.3606    2.0448 H       1  UNL1        0.0428
     25 H           3.8288    1.2841    0.9528 H       1  UNL1        0.0428
     26 H           2.1482    1.7615    1.1632 H       1  UNL1        0.0428
     27 H           3.1298   -3.4858   -2.6244 H       1  UNL1        0.0845
     28 H           5.0750   -4.3422   -1.3617 H       1  UNL1        0.0829
     29 H           9.3463   -6.6970   -1.2452 H       1  UNL1        0.1452
     30 H           8.5476   -5.4046   -2.0585 H       1  UNL1        0.1452
     31 H           8.3551   -6.3796    2.9785 H       1  UNL1        0.0831
     32 H           6.8883   -4.3651    3.1664 H       1  UNL1        0.0655
@<TRIPOS>BOND
     1     1    21    1
     2     1    22    1
     3     1    23    1
     4     2     1    1
     5     3     2    1
     6     3    24    1
     7     3    25    1
     8     3    26    1
     9     4     2    1
    10     5     4   ar
    11     6     5   ar
    12     6    27    1
    13     7     6   ar
    14     7    28    1
    15     8     7   ar
    16     9     8   ar
    17     9     4   ar
    18    10     9   ar
    19    11    10   ar
    20    12    11    1
    21    13    11   ar
    22    13     8   ar
    23    14    13    1
    24    15    14   ar
    25    16    15   ar
    26    17    16    1
    27    17    29    1
    28    17    30    1
    29    18    16   ar
    30    19    18   ar
    31    19    31    1
    32    20    19   ar
    33    20    14   ar
    34    20    32    1
@<TRIPOS>MOLECULE
mol_7_akc_1573406417666210216154428
>7.sdf
 21 21 0 0 0
SMALL
GASTEIGER

@<TRIPOS>ATOM
      1 N           3.1511   -0.5983    2.1637 N.am    1  UNL1       -0.3394
      2 C           2.4509   -1.0086    1.0797 C.2     1  UNL1        0.1473
      3 S           0.7973   -0.9172    1.0124 S.2     1  UNL1       -0.0174
      4 N           3.2033   -1.5034    0.0491 N.am    1  UNL1       -0.2186
      5 N           4.5653   -1.5440    0.1354 N.2     1  UNL1       -0.1884
      6 C           5.1735   -2.0296   -0.9016 C.2     1  UNL1        0.0542
      7 C           6.6522   -2.1159   -0.9406 C.ar    1  UNL1        0.0129
      8 C           7.3800   -1.6826    0.1790 C.ar    1  UNL1       -0.0503
      9 C           8.7751   -1.7311    0.1788 C.ar    1  UNL1       -0.0427
     10 C           9.4470   -2.2133   -0.9405 C.ar    1  UNL1        0.0424
     11 CL         11.1660   -2.2647   -0.9444 Cl      1  UNL1       -0.0835
     12 C           8.7376   -2.6521   -2.0573 C.ar    1  UNL1       -0.0244
     13 C           7.3387   -2.6049   -2.0603 C.ar    1  UNL1        0.0510
     14 CL          6.5334   -3.1658   -3.4819 Cl      1  UNL1       -0.0828
     15 H           2.6977   -0.1943    2.9698 H       1  UNL1        0.1440
     16 H           4.1594   -0.6549    2.1043 H       1  UNL1        0.1440
     17 H           2.7232   -1.8215   -0.7877 H       1  UNL1        0.1762
     18 H           4.6049   -2.3841   -1.7779 H       1  UNL1        0.0852
     19 H           6.8668   -1.3015    1.0600 H       1  UNL1        0.0625
     20 H           9.3259   -1.3895    1.0521 H       1  UNL1        0.0632
     21 H           9.2753   -3.0277   -2.9249 H       1  UNL1        0.0647
@<TRIPOS>BOND
     1     1    15    1
     2     1    16    1
     3     2     1    1
     4     3     2    2
     5     4     2    1
     6     4    17    1
     7     5     4    1
     8     6     5    2
     9     6    18    1
    10     7     6    1
    11     8     7   ar
    12     8    19    1
    13     9     8   ar
    14     9    20    1
    15    10     9   ar
    16    11    10    1
    17    12    10   ar
    18    12    21    1
    19    13    12   ar
    20    13     7   ar
    21    14    13    1
@<TRIPOS>MOLECULE
mol_800_akc_acsjmedchem3c00697
*****
 54 57 0 0 0
SMALL
GASTEIGER

@<TRIPOS>ATOM
      1 N          -3.1691   -0.9765    0.2875 N.ar    1  UNL1       -0.2475
      2 C          -4.4947   -0.7880    0.4321 C.ar    1  UNL1        0.0285
      3 C          -5.4096   -1.8225    0.5045 C.ar    1  UNL1       -0.0435
      4 C          -4.9374   -3.1334    0.4273 C.ar    1  UNL1       -0.0581
      5 C          -3.5685   -3.3667    0.2853 C.ar    1  UNL1       -0.0284
      6 C          -2.7281   -2.2661    0.2163 C.ar    1  UNL1        0.1538
      7 C          -1.2203   -2.3697    0.1290 C.2     1  UNL1        0.3336
      8 N          -0.5570   -1.2455    0.1802 N.2     1  UNL1       -0.0976
      9 N          -0.5862   -3.5976    0.0016 N.pl3   1  UNL1       -0.1992
     10 C           0.8087   -3.7632    0.1410 C.ar    1  UNL1        0.1187
     11 C           2.9083   -3.0817    1.1868 C.ar    1  UNL1       -0.0458
     12 C           1.5131   -3.0695    1.1310 C.ar    1  UNL1       -0.0163
     13 C           1.5438   -4.5308   -0.7675 C.ar    1  UNL1       -0.0163
     14 C           2.9499   -4.5383   -0.7247 C.ar    1  UNL1       -0.0458
     15 C           3.6498   -3.7832    0.2307 C.ar    1  UNL1        0.0373
     16 C           5.1568   -3.7529    0.1738 C.2     1  UNL1        0.2483
     17 O           5.7321   -4.5185   -0.5925 O.2     1  UNL1       -0.2699
     18 N           5.7735   -2.8408    1.0143 N.am    1  UNL1       -0.2815
     19 C           7.1491   -2.6665    1.2641 C.ar    1  UNL1        0.0339
     20 C           9.5107   -3.1366    0.9684 C.ar    1  UNL1       -0.0153
     21 C           8.1745   -3.2995    0.5656 C.ar    1  UNL1       -0.0367
     22 C           7.4811   -1.8159    2.3244 C.ar    1  UNL1       -0.0367
     23 C           8.8065   -1.6766    2.7380 C.ar    1  UNL1       -0.0153
     24 C           9.8340   -2.3732    2.0955 C.ar    1  UNL1        0.1188
     25 N          11.1566   -2.3575    2.5786 N.pl3   1  UNL1       -0.1992
     26 C          11.5105   -2.2299    3.9091 C.2     1  UNL1        0.3336
     27 N          10.7954   -2.7069    4.8870 N.2     1  UNL1       -0.0976
     28 C          12.8038   -1.5344    4.2342 C.ar    1  UNL1        0.1538
     29 C          14.4335   -0.7822    5.8095 C.ar    1  UNL1       -0.0581
     30 C          13.2472   -1.4594    5.5498 C.ar    1  UNL1       -0.0284
     31 N          13.4674   -0.9963    3.1731 N.ar    1  UNL1       -0.2475
     32 C          14.6145   -0.3454    3.4683 C.ar    1  UNL1        0.0285
     33 C          15.1295   -0.2100    4.7513 C.ar    1  UNL1       -0.0435
     34 H          -4.8112    0.2494    0.4971 H       1  UNL1        0.0830
     35 H          -6.4674   -1.6142    0.6264 H       1  UNL1        0.0633
     36 H          -5.6335   -3.9633    0.4913 H       1  UNL1        0.0619
     37 H          -3.1924   -4.3823    0.2566 H       1  UNL1        0.0641
     38 H          -1.2563   -0.4856    0.2601 H       1  UNL1        0.3634
     39 H          -1.0455   -4.3140   -0.5420 H       1  UNL1        0.2985
     40 H           3.3575   -2.5072    1.9867 H       1  UNL1        0.0626
     41 H           0.9687   -2.4703    1.8590 H       1  UNL1        0.0658
     42 H           1.0432   -5.0901   -1.5532 H       1  UNL1        0.0658
     43 H           3.4986   -5.1145   -1.4684 H       1  UNL1        0.0626
     44 H           5.1829   -2.2506    1.5763 H       1  UNL1        0.1551
     45 H          10.2894   -3.6707    0.4290 H       1  UNL1        0.0658
     46 H           7.9660   -3.9425   -0.2843 H       1  UNL1        0.0637
     47 H           6.7127   -1.2839    2.8793 H       1  UNL1        0.0637
     48 H           9.0253   -1.0355    3.5896 H       1  UNL1        0.0658
     49 H          11.8327   -1.9727    1.9205 H       1  UNL1        0.2985
     50 H           9.9870   -3.1857    4.4740 H       1  UNL1        0.3634
     51 H          14.8056   -0.7056    6.8273 H       1  UNL1        0.0619
     52 H          12.6767   -1.9148    6.3530 H       1  UNL1        0.0641
     53 H          15.1345    0.0892    2.6174 H       1  UNL1        0.0830
     54 H          16.0565    0.3279    4.9240 H       1  UNL1        0.0633
@<TRIPOS>BOND
     1     1     2   ar
     2     2     3   ar
     3     3     4   ar
     4     4     5   ar
     5     5     6   ar
     6     1     6   ar
     7     6     7    1
     8     7     8    2
     9     7     9    1
    10     9    10    1
    11    12    10   ar
    12    10    13   ar
    13    11    12   ar
    14    13    14   ar
    15    14    15   ar
    16    11    15   ar
    17    15    16    1
    18    16    17    2
    19    16    18   am
    20    18    19    1
    21    21    19   ar
    22    19    22   ar
    23    20    21   ar
    24    22    23   ar
    25    23    24   ar
    26    20    24   ar
    27    24    25    1
    28    25    26    1
    29    26    27    2
    30    26    28    1
    31    30    28   ar
    32    28    31   ar
    33    29    30   ar
    34    31    32   ar
    35    32    33   ar
    36    29    33   ar
    37     2    34    1
    38     3    35    1
    39     4    36    1
    40     5    37    1
    41     8    38    1
    42     9    39    1
    43    11    40    1
    44    12    41    1
    45    13    42    1
    46    14    43    1
    47    18    44    1
    48    20    45    1
    49    21    46    1
    50    22    47    1
    51    23    48    1
    52    25    49    1
    53    27    50    1
    54    29    51    1
    55    30    52    1
    56    32    53    1
    57    33    54    1
@<TRIPOS>MOLECULE
mol_801_akc_jbioorg2023106890
*****
 80 80 0 0 0
SMALL
GASTEIGER

@<TRIPOS>ATOM
      1 C           0.9031   -0.1398    0.8605 C.3     1  UNL1       -0.0361
      2 C          -0.0038   -1.1609    0.1430 C.3     1  UNL1       -0.0499
      3 C          -1.3481   -0.4646   -0.0630 C.3     1  UNL1       -0.0525
      4 C          -1.0629    1.0360    0.0389 C.3     1  UNL1       -0.0479
      5 C           0.4631    1.1952    0.2029 C.3     1  UNL1       -0.0143
      6 C           0.8422   -0.2878    2.3996 C.3     1  UNL1       -0.0499
      7 C           0.8291    2.5927    0.7807 C.3     1  UNL1        0.0579
      8 O           2.1651    2.7895    1.2121 O.3     1  UNL1       -0.3272
      9 P           3.1485    3.8784    0.4795 P.3     1  UNL1        0.2126
     10 O           4.5253    3.2446    0.4444 O.co2   1  UNL1       -0.4373
     11 O           2.5005    4.4437   -0.7442 O.2     1  UNL1       -0.5172
     12 O           3.2225    5.1174    1.5927 O.3     1  UNL1       -0.3272
     13 C           4.5468    5.6035    1.8285 C.3     1  UNL1        0.0597
     14 C           4.7670    7.1031    2.1012 C.3     1  UNL1        0.0114
     15 C           3.9455    7.9460    3.0765 C.3     1  UNL1       -0.0287
     16 N           3.9326    7.5539    4.5644 N.4     1  UNL1        0.2369
     17 C           5.3216    7.2960    5.1243 C.3     1  UNL1       -0.0418
     18 C           3.3187    8.7156    5.3606 C.3     1  UNL1       -0.0418
     19 C           3.0465    6.3341    4.7613 C.3     1  UNL1       -0.0418
     20 C          -0.5378   -0.1937    3.0536 C.3     1  UNL1       -0.0528
     21 C          -0.5237   -0.4620    4.5590 C.3     1  UNL1       -0.0530
     22 C          -1.8614   -0.1145    5.2296 C.3     1  UNL1       -0.0531
     23 C          -3.0745   -0.9351    4.7581 C.3     1  UNL1       -0.0531
     24 C          -4.3423   -0.4580    5.4828 C.3     1  UNL1       -0.0531
     25 C          -5.6255   -1.2104    5.1106 C.3     1  UNL1       -0.0531
     26 C          -5.6519   -2.7048    5.4464 C.3     1  UNL1       -0.0531
     27 C          -5.4608   -2.9995    6.9355 C.3     1  UNL1       -0.0531
     28 C          -5.5192   -4.5026    7.2212 C.3     1  UNL1       -0.0533
     29 C          -5.2448   -4.7990    8.6966 C.3     1  UNL1       -0.0559
     30 C          -5.2737   -6.2924    8.9804 C.3     1  UNL1       -0.0653
     31 H           1.9423   -0.3413    0.5700 H       1  UNL1        0.0304
     32 H           0.4167   -1.3997   -0.8418 H       1  UNL1        0.0268
     33 H          -0.1080   -2.1089    0.6816 H       1  UNL1        0.0268
     34 H          -1.7876   -0.7316   -1.0319 H       1  UNL1        0.0265
     35 H          -2.0869   -0.7693    0.6901 H       1  UNL1        0.0265
     36 H          -1.4335    1.5647   -0.8433 H       1  UNL1        0.0269
     37 H          -1.6021    1.4473    0.9001 H       1  UNL1        0.0269
     38 H           0.8937    1.1691   -0.8110 H       1  UNL1        0.0326
     39 H           1.2613   -1.2805    2.6421 H       1  UNL1        0.0268
     40 H           1.5225    0.4389    2.8518 H       1  UNL1        0.0268
     41 H           0.5518    3.3420    0.0331 H       1  UNL1        0.0567
     42 H           0.1972    2.7903    1.6595 H       1  UNL1        0.0567
     43 H           4.9670    5.0138    2.6517 H       1  UNL1        0.0566
     44 H           5.1695    5.4032    0.9472 H       1  UNL1        0.0566
     45 H           5.8280    7.2218    2.3615 H       1  UNL1        0.0339
     46 H           4.6632    7.6110    1.1328 H       1  UNL1        0.0339
     47 H           4.3830    8.9551    3.0592 H       1  UNL1        0.0815
     48 H           2.9042    8.0441    2.7514 H       1  UNL1        0.0815
     49 H           5.9209    8.2060    5.0081 H       1  UNL1        0.0778
     50 H           5.2236    7.0560    6.1903 H       1  UNL1        0.0778
     51 H           5.7745    6.4579    4.5955 H       1  UNL1        0.0778
     52 H           2.3436    8.9606    4.9293 H       1  UNL1        0.0778
     53 H           3.2075    8.4028    6.4041 H       1  UNL1        0.0778
     54 H           3.9899    9.5796    5.2985 H       1  UNL1        0.0778
     55 H           2.0256    6.6020    4.4743 H       1  UNL1        0.0778
     56 H           3.4226    5.5144    4.1557 H       1  UNL1        0.0778
     57 H           3.0822    6.0530    5.8181 H       1  UNL1        0.0778
     58 H          -0.9514    0.8109    2.8786 H       1  UNL1        0.0265
     59 H          -1.2074   -0.9285    2.6043 H       1  UNL1        0.0265
     60 H          -0.2697   -1.5105    4.7498 H       1  UNL1        0.0265
     61 H           0.2608    0.1465    5.0258 H       1  UNL1        0.0265
     62 H          -1.7433   -0.2540    6.3103 H       1  UNL1        0.0265
     63 H          -2.0658    0.9516    5.0714 H       1  UNL1        0.0265
     64 H          -3.2208   -0.8225    3.6777 H       1  UNL1        0.0265
     65 H          -2.8937   -1.9966    4.9578 H       1  UNL1        0.0265
     66 H          -4.1888   -0.5006    6.5666 H       1  UNL1        0.0265
     67 H          -4.4996    0.6014    5.2420 H       1  UNL1        0.0265
     68 H          -6.4651   -0.7249    5.6247 H       1  UNL1        0.0265
     69 H          -5.8148   -1.0893    4.0369 H       1  UNL1        0.0265
     70 H          -6.6212   -3.1081    5.1279 H       1  UNL1        0.0265
     71 H          -4.8909   -3.2311    4.8590 H       1  UNL1        0.0265
     72 H          -4.4926   -2.6145    7.2731 H       1  UNL1        0.0265
     73 H          -6.2366   -2.4859    7.5164 H       1  UNL1        0.0265
     74 H          -6.5048   -4.8939    6.9424 H       1  UNL1        0.0265
     75 H          -4.7776   -5.0220    6.6019 H       1  UNL1        0.0265
     76 H          -4.2632   -4.4011    8.9788 H       1  UNL1        0.0263
     77 H          -5.9906   -4.2973    9.3238 H       1  UNL1        0.0263
     78 H          -4.5310   -6.8215    8.3747 H       1  UNL1        0.0230
     79 H          -5.0491   -6.4824   10.0345 H       1  UNL1        0.0230
     80 H          -6.2597   -6.7142    8.7615 H       1  UNL1        0.0230
@<TRIPOS>UNITY_ATOM_ATTR
10 1
charge -1
16 1
charge 1
@<TRIPOS>BOND
     1     1     2    1
     2     2     3    1
     3     3     4    1
     4     4     5    1
     5     1     5    1
     6     1     6    1
     7     5     7    1
     8     7     8    1
     9     8     9    1
    10     9    10    1
    11     9    11    2
    12     9    12    1
    13    12    13    1
    14    13    14    1
    15    14    15    1
    16    15    16    1
    17    16    17    1
    18    16    18    1
    19    16    19    1
    20     6    20    1
    21    20    21    1
    22    21    22    1
    23    22    23    1
    24    23    24    1
    25    24    25    1
    26    25    26    1
    27    26    27    1
    28    27    28    1
    29    28    29    1
    30    29    30    1
    31     1    31    1
    32     2    32    1
    33     2    33    1
    34     3    34    1
    35     3    35    1
    36     4    36    1
    37     4    37    1
    38     5    38    1
    39     6    39    1
    40     6    40    1
    41     7    41    1
    42     7    42    1
    43    13    43    1
    44    13    44    1
    45    14    45    1
    46    14    46    1
    47    15    47    1
    48    15    48    1
    49    17    49    1
    50    17    50    1
    51    17    51    1
    52    18    52    1
    53    18    53    1
    54    18    54    1
    55    19    55    1
    56    19    56    1
    57    19    57    1
    58    20    58    1
    59    20    59    1
    60    21    60    1
    61    21    61    1
    62    22    62    1
    63    22    63    1
    64    23    64    1
    65    23    65    1
    66    24    66    1
    67    24    67    1
    68    25    68    1
    69    25    69    1
    70    26    70    1
    71    26    71    1
    72    27    72    1
    73    27    73    1
    74    28    74    1
    75    28    75    1
    76    29    76    1
    77    29    77    1
    78    30    78    1
    79    30    79    1
    80    30    80    1
@<TRIPOS>MOLECULE
mol_802_akc_jejmech2023115863
*****
 72 77 0 0 0
SMALL
GASTEIGER

@<TRIPOS>ATOM
      1 C           1.9162   -0.1262   -0.0475 C.3     1  UNL1        0.1166
      2 C           1.5529   -1.5623    0.3663 C.3     1  UNL1        0.1018
      3 C           0.1908   -1.7898    1.0702 C.3     1  UNL1        0.0283
      4 O           1.6814   -2.4362   -0.7711 O.3     1  UNL1       -0.3872
      5 C          -1.5738   -0.7570   -0.3258 C.3     1  UNL1        0.0148
      6 C          -2.4566    0.0436    0.6827 C.3     1  UNL1        0.0250
      7 N          -3.4375   -0.8571    1.3153 N.pl3   1  UNL1       -0.3263
      8 C          -2.7858   -2.0200    1.9525 C.3     1  UNL1        0.0250
      9 C          -2.0085   -2.8038    0.8699 C.3     1  UNL1        0.0148
     10 N          -0.9519   -2.0216    0.1633 N.3     1  UNL1       -0.2968
     11 C          -4.5277   -0.3517    2.0383 C.ar    1  UNL1        0.0497
     12 C          -5.7565   -1.0687    2.1172 C.ar    1  UNL1        0.0802
     13 C          -6.8147   -0.5982    2.9135 C.ar    1  UNL1        0.0610
     14 C          -6.6849    0.6015    3.6133 C.ar    1  UNL1       -0.0419
     15 C          -5.5095    1.3383    3.5128 C.ar    1  UNL1       -0.0585
     16 C          -4.4464    0.8669    2.7339 C.ar    1  UNL1       -0.0391
     17 CL         -5.9791   -2.5139    1.1628 Cl      1  UNL1       -0.0801
     18 CL         -8.3093   -1.4552    3.0863 Cl      1  UNL1       -0.0820
     19 O           1.5644    0.9275    0.8545 O.3     1  UNL1       -0.4894
     20 C           1.8613    0.7750    2.1761 C.ar    1  UNL1        0.1207
     21 C           2.9037    0.0192    2.7077 C.ar    1  UNL1       -0.0193
     22 C           2.9690   -0.2187    4.0900 C.ar    1  UNL1       -0.0491
     23 C           2.0218    0.3350    4.9647 C.ar    1  UNL1        0.0006
     24 C           1.0402    1.1789    4.4009 C.ar    1  UNL1       -0.0491
     25 C           0.9677    1.4058    3.0310 C.ar    1  UNL1       -0.0193
     26 C           4.4338   -0.9926   10.3441 C.ar    1  UNL1       -0.0413
     27 C           4.0026   -1.3291    9.0498 C.ar    1  UNL1       -0.0343
     28 C           3.4488   -0.3686    8.2082 C.ar    1  UNL1        0.0723
     29 C           3.3935    0.9673    8.6670 C.ar    1  UNL1        0.0095
     30 C           3.9211    1.3305    9.9199 C.ar    1  UNL1       -0.0336
     31 C           4.3924    0.3321   10.7675 C.ar    1  UNL1        0.0417
     32 C           2.6485    1.8531    7.8791 C.ar    1  UNL1       -0.0053
     33 C           1.6126    1.2078    7.2182 C.ar    1  UNL1       -0.0273
     34 C           2.0952    0.1852    6.4333 C.ar    1  UNL1        0.0723
     35 N           2.9490   -0.7001    6.9941 N.ar    1  UNL1       -0.2467
     36 C           3.1993    3.0008    7.0954 C.ar    1  UNL1        0.0011
     37 C           2.4092    4.1492    6.8700 C.ar    1  UNL1        0.0487
     38 C           2.6018    4.9471    5.7351 C.ar    1  UNL1       -0.0428
     39 C           3.6072    4.6377    4.8224 C.ar    1  UNL1       -0.0603
     40 C           4.4705    3.5775    5.0815 C.ar    1  UNL1       -0.0611
     41 C           4.2847    2.7789    6.2168 C.ar    1  UNL1       -0.0526
     42 CL          1.0897    4.5543    7.9159 Cl      1  UNL1       -0.0829
     43 CL          4.8371    0.7221   12.3842 Cl      1  UNL1       -0.0835
     44 H           1.4187    0.1082   -0.9972 H       1  UNL1        0.0723
     45 H           2.9865   -0.0536   -0.2790 H       1  UNL1        0.0723
     46 H           2.3199   -1.9146    1.0631 H       1  UNL1        0.0640
     47 H           0.3434   -2.7220    1.6324 H       1  UNL1        0.0453
     48 H          -0.0272   -1.0322    1.8244 H       1  UNL1        0.0453
     49 H           0.7989   -2.8342   -0.8935 H       1  UNL1        0.2100
     50 H          -2.2146   -1.0340   -1.1742 H       1  UNL1        0.0442
     51 H          -0.8141   -0.0920   -0.7463 H       1  UNL1        0.0442
     52 H          -2.9768    0.8368    0.1302 H       1  UNL1        0.0476
     53 H          -1.8184    0.5152    1.4375 H       1  UNL1        0.0476
     54 H          -2.1090   -1.6746    2.7458 H       1  UNL1        0.0476
     55 H          -3.5010   -2.6968    2.4306 H       1  UNL1        0.0476
     56 H          -2.7218   -3.1592    0.1147 H       1  UNL1        0.0442
     57 H          -1.5757   -3.7084    1.3140 H       1  UNL1        0.0442
     58 H          -7.5009    0.9677    4.2321 H       1  UNL1        0.0633
     59 H          -5.4140    2.2787    4.0512 H       1  UNL1        0.0619
     60 H          -3.5379    1.4623    2.7026 H       1  UNL1        0.0636
     61 H           3.6689   -0.4114    2.0682 H       1  UNL1        0.0654
     62 H           3.7832   -0.8245    4.4847 H       1  UNL1        0.0625
     63 H           0.3151    1.6870    5.0340 H       1  UNL1        0.0625
     64 H           0.1876    2.0479    2.6322 H       1  UNL1        0.0654
     65 H           4.7691   -1.7801   11.0165 H       1  UNL1        0.0633
     66 H           4.0365   -2.3607    8.7261 H       1  UNL1        0.0639
     67 H           3.8510    2.3570   10.2703 H       1  UNL1        0.0639
     68 H           0.8453    0.8314    7.9201 H       1  UNL1        0.0645
     69 H           1.9288    5.7749    5.5269 H       1  UNL1        0.0632
     70 H           3.7026    5.2078    3.9008 H       1  UNL1        0.0618
     71 H           5.2433    3.3224    4.3587 H       1  UNL1        0.0618
     72 H           4.9068    1.8904    6.3209 H       1  UNL1        0.0624
@<TRIPOS>BOND
     1     1     2    1
     2     2     3    1
     3     2     4    1
     4     5     6    1
     5     6     7    1
     6     7     8    1
     7     8     9    1
     8     9    10    1
     9     5    10    1
    10    11    12   ar
    11    12    13   ar
    12    13    14   ar
    13    14    15   ar
    14    15    16   ar
    15    11    16   ar
    16    12    17    1
    17    13    18    1
    18     7    11    1
    19     3    10    1
    20    19    20    1
    21    20    21   ar
    22    21    22   ar
    23    22    23   ar
    24    23    24   ar
    25    24    25   ar
    26    20    25   ar
    27    26    27   ar
    28    27    28   ar
    29    28    29   ar
    30    29    30   ar
    31    30    31   ar
    32    26    31   ar
    33    29    32   ar
    34    32    33   ar
    35    33    34   ar
    36    34    35   ar
    37    28    35   ar
    38    36    37   ar
    39    37    38   ar
    40    38    39   ar
    41    39    40   ar
    42    40    41   ar
    43    36    41   ar
    44    37    42    1
    45    32    36    1
    46    31    43    1
    47    23    34    1
    48     1    19    1
    49     1    44    1
    50     1    45    1
    51     2    46    1
    52     3    47    1
    53     3    48    1
    54     4    49    1
    55     5    50    1
    56     5    51    1
    57     6    52    1
    58     6    53    1
    59     8    54    1
    60     8    55    1
    61     9    56    1
    62     9    57    1
    63    14    58    1
    64    15    59    1
    65    16    60    1
    66    21    61    1
    67    22    62    1
    68    24    63    1
    69    25    64    1
    70    26    65    1
    71    27    66    1
    72    30    67    1
    73    33    68    1
    74    38    69    1
    75    39    70    1
    76    40    71    1
    77    41    72    1
@<TRIPOS>MOLECULE
mol_803_akc_jejmech2023115863
*****
 72 77 0 0 0
SMALL
GASTEIGER

@<TRIPOS>ATOM
      1 C           1.8139   -2.5408    0.6438 C.3     1  UNL1        0.1166
      2 C           3.0639   -3.1808    1.3020 C.3     1  UNL1        0.1018
      3 C           4.4059   -2.4563    0.9655 C.3     1  UNL1        0.0283
      4 O           3.2102   -4.5592    0.9127 O.3     1  UNL1       -0.3872
      5 C           5.8681   -0.4749    0.9851 C.3     1  UNL1        0.0148
      6 C           6.8705   -0.5628    2.1836 C.3     1  UNL1        0.0250
      7 N           6.2705   -0.3556    3.5243 N.pl3   1  UNL1       -0.3263
      8 C           4.9515   -1.0060    3.6628 C.3     1  UNL1        0.0250
      9 C           4.0404   -0.5559    2.5082 C.3     1  UNL1        0.0148
     10 N           4.4878   -0.9970    1.1790 N.3     1  UNL1       -0.2968
     11 C           6.2811    0.9020    4.1642 C.ar    1  UNL1        0.0497
     12 C           6.2635    0.9968    5.5863 C.ar    1  UNL1        0.0802
     13 C           6.0504    2.2319    6.2212 C.ar    1  UNL1        0.0610
     14 C           5.8899    3.3900    5.4615 C.ar    1  UNL1       -0.0419
     15 C           5.9737    3.3262    4.0741 C.ar    1  UNL1       -0.0585
     16 C           6.1775    2.0988    3.4358 C.ar    1  UNL1       -0.0391
     17 CL          6.5218   -0.4359    6.5496 Cl      1  UNL1       -0.0801
     18 CL          5.9332    2.3928    7.9409 Cl      1  UNL1       -0.0820
     19 O           0.5653   -3.1282    1.1011 O.3     1  UNL1       -0.4894
     20 C          -0.0907   -2.4272    2.0828 C.ar    1  UNL1        0.1207
     21 C          -1.4862   -2.3760    2.0795 C.ar    1  UNL1       -0.0193
     22 C          -2.1917   -1.7265    3.1222 C.ar    1  UNL1       -0.0491
     23 C          -1.5074   -1.1038    4.1795 C.ar    1  UNL1        0.0006
     24 C          -0.1054   -1.1333    4.1241 C.ar    1  UNL1       -0.0491
     25 C           0.5735   -1.8392    3.1414 C.ar    1  UNL1       -0.0193
     26 C          -5.7376   -0.7983    8.4832 C.ar    1  UNL1       -0.0413
     27 C          -5.2612   -0.5601    7.1858 C.ar    1  UNL1       -0.0343
     28 C          -3.9668   -0.8894    6.8156 C.ar    1  UNL1        0.0723
     29 C          -3.1515   -1.5370    7.7843 C.ar    1  UNL1        0.0095
     30 C          -3.6475   -1.8670    9.0546 C.ar    1  UNL1       -0.0336
     31 C          -4.9273   -1.4519    9.4102 C.ar    1  UNL1        0.0417
     32 C          -1.8177   -1.7117    7.4313 C.ar    1  UNL1       -0.0053
     33 C          -1.3676   -0.7043    6.5892 C.ar    1  UNL1       -0.0273
     34 C          -2.1358   -0.6321    5.4375 C.ar    1  UNL1        0.0723
     35 N          -3.4804   -0.6114    5.5786 N.ar    1  UNL1       -0.2467
     36 C          -1.1851   -3.0426    7.1722 C.ar    1  UNL1        0.0011
     37 C           0.1551   -3.2986    7.5176 C.ar    1  UNL1        0.0487
     38 C           0.8817   -4.3242    6.8942 C.ar    1  UNL1       -0.0428
     39 C           0.2805   -5.1211    5.9227 C.ar    1  UNL1       -0.0603
     40 C          -1.0655   -4.9403    5.6204 C.ar    1  UNL1       -0.0611
     41 C          -1.7974   -3.9275    6.2563 C.ar    1  UNL1       -0.0526
     42 CL          0.9981   -2.3062    8.6588 Cl      1  UNL1       -0.0829
     43 CL         -5.4859   -1.6807   11.0216 Cl      1  UNL1       -0.0835
     44 H           1.8467   -2.7417   -0.4337 H       1  UNL1        0.0723
     45 H           1.7881   -1.4511    0.7558 H       1  UNL1        0.0723
     46 H           2.9517   -3.2199    2.3873 H       1  UNL1        0.0640
     47 H           5.2043   -2.9731    1.5159 H       1  UNL1        0.0453
     48 H           4.6225   -2.6553   -0.0929 H       1  UNL1        0.0453
     49 H           2.5859   -4.7440    0.1900 H       1  UNL1        0.2100
     50 H           5.7594    0.5836    0.7197 H       1  UNL1        0.0442
     51 H           6.3263   -0.9369    0.1016 H       1  UNL1        0.0442
     52 H           7.7104    0.1235    2.0200 H       1  UNL1        0.0476
     53 H           7.2999   -1.5725    2.1853 H       1  UNL1        0.0476
     54 H           5.0899   -2.0935    3.6570 H       1  UNL1        0.0476
     55 H           4.4556   -0.7748    4.6129 H       1  UNL1        0.0476
     56 H           3.9638    0.5391    2.4968 H       1  UNL1        0.0442
     57 H           3.0271   -0.8756    2.6888 H       1  UNL1        0.0442
     58 H           5.6998    4.3446    5.9465 H       1  UNL1        0.0633
     59 H           5.8508    4.2309    3.4827 H       1  UNL1        0.0619
     60 H           6.1894    2.0924    2.3508 H       1  UNL1        0.0636
     61 H          -2.0423   -2.8753    1.2892 H       1  UNL1        0.0654
     62 H          -3.2793   -1.7663    3.1310 H       1  UNL1        0.0625
     63 H           0.4954   -0.6920    4.9186 H       1  UNL1        0.0625
     64 H           1.6263   -1.9741    3.2937 H       1  UNL1        0.0654
     65 H          -6.7293   -0.4551    8.7648 H       1  UNL1        0.0633
     66 H          -5.9043   -0.0516    6.4646 H       1  UNL1        0.0639
     67 H          -3.0032   -2.3427    9.7899 H       1  UNL1        0.0639
     68 H          -1.3268    0.2803    7.0924 H       1  UNL1        0.0645
     69 H           1.9328   -4.4731    7.1272 H       1  UNL1        0.0632
     70 H           0.8633   -5.8677    5.3874 H       1  UNL1        0.0618
     71 H          -1.5327   -5.5412    4.8436 H       1  UNL1        0.0618
     72 H          -2.8198   -3.7566    5.9216 H       1  UNL1        0.0624
@<TRIPOS>BOND
     1     2     4    1
     2     5     6    1
     3     6     7    1
     4     7     8    1
     5     8     9    1
     6     9    10    1
     7     5    10    1
     8    11    12   ar
     9    12    13   ar
    10    13    14   ar
    11    14    15   ar
    12    15    16   ar
    13    11    16   ar
    14    12    17    1
    15    13    18    1
    16     7    11    1
    17     3    10    1
    18    19    20    1
    19    20    21   ar
    20    21    22   ar
    21    22    23   ar
    22    23    24   ar
    23    24    25   ar
    24    20    25   ar
    25    26    27   ar
    26    27    28   ar
    27    28    29   ar
    28    29    30   ar
    29    30    31   ar
    30    26    31   ar
    31    29    32   ar
    32    32    33   ar
    33    33    34   ar
    34    34    35   ar
    35    28    35   ar
    36    36    37   ar
    37    37    38   ar
    38    38    39   ar
    39    39    40   ar
    40    40    41   ar
    41    36    41   ar
    42    37    42    1
    43    32    36    1
    44    31    43    1
    45    23    34    1
    46     1    19    1
    47     1    44    1
    48     1    45    1
    49     2    46    1
    50     3    47    1
    51     3    48    1
    52     4    49    1
    53     5    50    1
    54     5    51    1
    55     6    52    1
    56     6    53    1
    57     8    54    1
    58     8    55    1
    59     9    56    1
    60     9    57    1
    61    14    58    1
    62    15    59    1
    63    16    60    1
    64    21    61    1
    65    22    62    1
    66    24    63    1
    67    25    64    1
    68    26    65    1
    69    27    66    1
    70    30    67    1
    71    33    68    1
    72    38    69    1
    73    39    70    1
    74    40    71    1
    75    41    72    1
    76     2     3    1
    77     2     1    1
@<TRIPOS>MOLECULE
mol_804_akc_acsomega3c05441
*****
 48 50 0 0 0
SMALL
GASTEIGER

@<TRIPOS>ATOM
      1 C           1.8545    0.7590    0.0808 C.ar    1  UNL1        0.0328
      2 C           1.8085   -0.7243    0.0939 C.ar    1  UNL1       -0.0268
      3 C           0.5778   -1.2559    0.0904 C.ar    1  UNL1        0.0158
      4 N          -0.5478   -0.4268    0.0543 N.ar    1  UNL1       -0.2716
      5 C          -0.3952    0.9549    0.0365 C.ar    1  UNL1        0.2367
      6 N           0.8334    1.5531    0.0545 N.ar    1  UNL1       -0.2202
      7 C          -1.9293   -0.7347    0.0139 C.ar    1  UNL1        0.1327
      8 C          -2.5272    0.5422    0.0313 C.ar    1  UNL1        0.1131
      9 N          -1.5607    1.5358    0.0151 N.ar    1  UNL1       -0.2084
     10 N          -2.3017   -2.0677    0.1129 N.pl3   1  UNL1       -0.3228
     11 C          -3.1856   -2.9228   -0.7424 C.3     1  UNL1        0.0327
     12 C          -4.3164   -3.4318    0.1997 C.3     1  UNL1       -0.0435
     13 C          -3.7668   -2.1690   -1.9508 C.3     1  UNL1       -0.0435
     14 C          -2.3715   -4.2283   -1.2697 C.3     1  UNL1       -0.0170
     15 C          -1.8596   -5.1249   -0.1047 C.3     1  UNL1       -0.0581
     16 C          -3.2544   -5.1453   -2.1730 C.3     1  UNL1       -0.0581
     17 C          -1.1636   -3.8484   -2.1558 C.3     1  UNL1       -0.0581
     18 C          -3.9158    1.0233    0.0870 C.ar    1  UNL1        0.0050
     19 C          -4.1617    2.4105    0.0285 C.ar    1  UNL1       -0.0524
     20 C          -5.4554    2.9308   -0.0878 C.ar    1  UNL1       -0.0599
     21 C          -6.5401    2.0651   -0.1807 C.ar    1  UNL1       -0.0443
     22 C          -6.3296    0.6914   -0.0671 C.ar    1  UNL1        0.0524
     23 C          -5.0306    0.2004    0.1396 C.ar    1  UNL1       -0.0351
     24 C          -7.4222   -0.2301   -0.2367 C.1     1  UNL1        0.0992
     25 N          -8.2839   -0.9812   -0.4244 N.1     1  UNL1       -0.1909
     26 H           2.8668    1.1980    0.1034 H       1  UNL1        0.0831
     27 H           2.7297   -1.2893    0.0994 H       1  UNL1        0.0647
     28 H           0.4237   -2.3231    0.1047 H       1  UNL1        0.0815
     29 H          -1.6301   -2.6566    0.6004 H       1  UNL1        0.1480
     30 H          -5.0796   -2.6882    0.4122 H       1  UNL1        0.0250
     31 H          -4.8667   -4.2799   -0.2091 H       1  UNL1        0.0250
     32 H          -3.9151   -3.7375    1.1736 H       1  UNL1        0.0250
     33 H          -2.9868   -1.8353   -2.6407 H       1  UNL1        0.0250
     34 H          -4.4759   -2.7893   -2.5074 H       1  UNL1        0.0250
     35 H          -4.3202   -1.2755   -1.6872 H       1  UNL1        0.0250
     36 H          -1.8164   -4.6097    0.8575 H       1  UNL1        0.0236
     37 H          -2.5025   -6.0008    0.0425 H       1  UNL1        0.0236
     38 H          -0.8494   -5.5019   -0.3017 H       1  UNL1        0.0236
     39 H          -3.5371   -4.6530   -3.1086 H       1  UNL1        0.0236
     40 H          -2.7099   -6.0566   -2.4507 H       1  UNL1        0.0236
     41 H          -4.1705   -5.4774   -1.6784 H       1  UNL1        0.0236
     42 H          -1.4562   -3.2565   -3.0273 H       1  UNL1        0.0236
     43 H          -0.4092   -3.2918   -1.6037 H       1  UNL1        0.0236
     44 H          -0.6727   -4.7485   -2.5477 H       1  UNL1        0.0236
     45 H          -3.3282    3.1133    0.0535 H       1  UNL1        0.0624
     46 H          -5.6005    4.0067   -0.1440 H       1  UNL1        0.0618
     47 H          -7.5365    2.4668   -0.3481 H       1  UNL1        0.0630
     48 H          -4.8828   -0.8495    0.2903 H       1  UNL1        0.0637
@<TRIPOS>BOND
     1     1     2   ar
     2     1     6   ar
     3     2     3   ar
     4     3     4   ar
     5     5     6   ar
     6     4     7   ar
     7     4     5   ar
     8     5     9   ar
     9     7     8   ar
    10     8     9   ar
    11     7    10    1
    12    10    11    1
    13    11    12    1
    14    11    13    1
    15    11    14    1
    16    14    15    1
    17    14    16    1
    18    14    17    1
    19     8    18    1
    20    18    19   ar
    21    18    23   ar
    22    19    20   ar
    23    20    21   ar
    24    21    22   ar
    25    22    23   ar
    26    22    24    1
    27    24    25    3
    28     1    26    1
    29     2    27    1
    30     3    28    1
    31    10    29    1
    32    12    30    1
    33    12    31    1
    34    12    32    1
    35    13    33    1
    36    13    34    1
    37    13    35    1
    38    15    36    1
    39    15    37    1
    40    15    38    1
    41    16    39    1
    42    16    40    1
    43    16    41    1
    44    17    42    1
    45    17    43    1
    46    17    44    1
    47    19    45    1
    48    20    46    1
    49    21    47    1
    50    23    48    1
@<TRIPOS>MOLECULE
mol_805_akc_20499361231208294
*****
 43 45 0 0 0
SMALL
GASTEIGER

@<TRIPOS>ATOM
      1 C          -1.1989   -1.5369   -0.1211 C.ar    1  UNL1       -0.0171
      2 C          -2.3676   -0.7866   -0.0055 C.ar    1  UNL1        0.1270
      3 C          -2.3091    0.6036    0.2213 C.ar    1  UNL1       -0.0295
      4 C          -1.0711    1.2536    0.3714 C.ar    1  UNL1       -0.0338
      5 C           0.1051    0.5287    0.2578 C.ar    1  UNL1        0.0711
      6 C          -0.0056   -0.8440    0.0082 C.ar    1  UNL1        0.0679
      7 N           1.4474    0.9424    0.4268 N.ar    1  UNL1       -0.2772
      8 N           2.1848   -0.2811    0.1146 N.ar    1  UNL1       -0.2443
      9 C           1.3471   -1.3663   -0.0730 C.ar    1  UNL1        0.2753
     10 N          -3.6729   -1.4529   -0.0835 N.pl3   1  UNL1        0.0565
     11 O          -3.6859   -2.6902   -0.1267 O.2     1  UNL1       -0.1261
     12 O          -4.6834   -0.7358   -0.0935 O.2     1  UNL1       -0.1261
     13 O           1.6192   -2.5354   -0.2659 O.2     1  UNL1       -0.2655
     14 C           3.6154   -0.4196    0.3196 C.3     1  UNL1        0.0684
     15 C           4.1061   -0.5503    1.7450 C.ar    1  UNL1       -0.0261
     16 C           3.2684   -0.8108    2.8357 C.ar    1  UNL1       -0.0568
     17 C           3.7991   -0.9979    4.1177 C.ar    1  UNL1       -0.0614
     18 C           5.1767   -0.9293    4.3223 C.ar    1  UNL1       -0.0617
     19 C           6.0251   -0.6754    3.2488 C.ar    1  UNL1       -0.0614
     20 C           5.4944   -0.4903    1.9714 C.ar    1  UNL1       -0.0568
     21 C           1.9057    2.1434   -0.3112 C.3     1  UNL1        0.0746
     22 C           1.3327    3.4681    0.1970 C.3     1  UNL1        0.1118
     23 O           1.9630    4.5915   -0.4496 O.3     1  UNL1       -0.4630
     24 C           3.0202    5.1408    0.2022 C.2     1  UNL1        0.3040
     25 O           3.5307    4.6968    1.2161 O.2     1  UNL1       -0.2512
     26 C           3.4883    6.3770   -0.5079 C.3     1  UNL1        0.0332
     27 H          -1.1959   -2.6099   -0.2916 H       1  UNL1        0.0648
     28 H          -3.2226    1.1919    0.3127 H       1  UNL1        0.0641
     29 H          -1.0867    2.3058    0.6213 H       1  UNL1        0.0639
     30 H           3.9284   -1.3300   -0.2081 H       1  UNL1        0.0559
     31 H           4.1176    0.4187   -0.1721 H       1  UNL1        0.0559
     32 H           2.1920   -0.8854    2.7063 H       1  UNL1        0.0621
     33 H           3.1375   -1.2031    4.9521 H       1  UNL1        0.0618
     34 H           5.5865   -1.0829    5.3170 H       1  UNL1        0.0618
     35 H           7.0998   -0.6338    3.4037 H       1  UNL1        0.0618
     36 H           6.1768   -0.3119    1.1429 H       1  UNL1        0.0621
     37 H           2.9951    2.2220   -0.2113 H       1  UNL1        0.0542
     38 H           1.7178    2.0352   -1.3872 H       1  UNL1        0.0542
     39 H           0.2841    3.5646   -0.0810 H       1  UNL1        0.0716
     40 H           1.3878    3.5484    1.2888 H       1  UNL1        0.0716
     41 H           2.7884    6.6614   -1.2993 H       1  UNL1        0.0342
     42 H           3.5436    7.2039    0.2053 H       1  UNL1        0.0342
     43 H           4.4669    6.1887   -0.9533 H       1  UNL1        0.0342
@<TRIPOS>BOND
     1     1     2   ar
     2     1     6   ar
     3     2     3   ar
     4     3     4   ar
     5     4     5   ar
     6     5     7   ar
     7     5     6   ar
     8     6     9   ar
     9     7     8   ar
    10     8     9   ar
    11     2    10    1
    12    10    11    2
    13    10    12    2
    14     9    13    2
    15     8    14    1
    16    14    15    1
    17    15    16   ar
    18    15    20   ar
    19    16    17   ar
    20    17    18   ar
    21    18    19   ar
    22    19    20   ar
    23     7    21    1
    24    21    22    1
    25    22    23    1
    26    23    24    1
    27    24    25    2
    28    24    26    1
    29     1    27    1
    30     3    28    1
    31     4    29    1
    32    14    30    1
    33    14    31    1
    34    16    32    1
    35    17    33    1
    36    18    34    1
    37    19    35    1
    38    20    36    1
    39    21    37    1
    40    21    38    1
    41    22    39    1
    42    22    40    1
    43    26    41    1
    44    26    42    1
    45    26    43    1
@<TRIPOS>MOLECULE
mol_806_akc_preprints2023081856v1
(E)?3?(4?(allyloxy)?3?bromo?5?methoxyphenyl)?1?(benzo[d][1,3]dioxol?5?yl)prop?2?en?1?one
 43 45 0 0 0
SMALL
GASTEIGER

@<TRIPOS>ATOM
      1 C          -0.8429   -1.0946   -0.2183 C.2     1  UNL1        0.1862
      2 C          -1.5434    0.2012   -0.4225 C.2     1  UNL1       -0.0138
      3 C          -1.0797    1.3114    0.1719 C.2     1  UNL1       -0.0508
      4 O           0.1165   -1.2001    0.5362 O.2     1  UNL1       -0.2873
      5 O          -3.1061   -3.5099   -3.9197 O.3     1  UNL1       -0.4526
      6 C          -3.2885   -4.9399   -3.9982 C.3     1  UNL1        0.2332
      7 O          -2.8194   -5.6412   -2.8279 O.3     1  UNL1       -0.4526
      8 C          -2.3087   -4.6136   -2.0995 C.ar    1  UNL1        0.1663
      9 C          -2.4722   -3.3971   -2.7207 C.ar    1  UNL1        0.1669
     10 C          -2.0205   -2.2197   -2.1600 C.ar    1  UNL1       -0.0053
     11 C          -1.3803   -2.2953   -0.9154 C.ar    1  UNL1        0.0253
     12 C          -1.2017   -3.5514   -0.2871 C.ar    1  UNL1       -0.0472
     13 C          -1.6777   -4.7257   -0.8808 C.ar    1  UNL1       -0.0155
     14 C          -1.7853    2.5830    0.0337 C.ar    1  UNL1       -0.0202
     15 C          -1.5379    3.4131   -1.0568 C.ar    1  UNL1       -0.0368
     16 C          -2.2636    4.6013   -1.2301 C.ar    1  UNL1        0.0637
     17 C          -3.2070    5.0066   -0.2681 C.ar    1  UNL1        0.1762
     18 C          -3.4876    4.1346    0.8131 C.ar    1  UNL1        0.1632
     19 C          -2.7721    2.9365    0.9559 C.ar    1  UNL1       -0.0091
     20 O          -4.4829    4.5293    1.6771 O.3     1  UNL1       -0.4914
     21 C          -4.8805    3.6086    2.6872 C.3     1  UNL1        0.0790
     22 BR         -1.9674    5.4688   -2.9000 Br      1  UNL1       -0.0464
     23 O          -3.9646    6.1564   -0.3022 O.3     1  UNL1       -0.4832
     24 C          -3.3066    7.3553   -0.7126 C.3     1  UNL1        0.1078
     25 C          -3.7758    8.5653    0.0499 C.2     1  UNL1       -0.0542
     26 C          -4.6334    8.5990    1.0766 C.2     1  UNL1       -0.0995
     27 H          -2.4472    0.2248   -1.0186 H       1  UNL1        0.0656
     28 H          -0.1853    1.3057    0.7945 H       1  UNL1        0.0625
     29 H          -4.3553   -5.1517   -4.1337 H       1  UNL1        0.1166
     30 H          -2.7417   -5.3148   -4.8718 H       1  UNL1        0.1166
     31 H          -2.1475   -1.2880   -2.6994 H       1  UNL1        0.0662
     32 H          -0.6885   -3.6094    0.6710 H       1  UNL1        0.0626
     33 H          -1.5443   -5.6901   -0.4038 H       1  UNL1        0.0655
     34 H          -0.7946    3.1155   -1.7945 H       1  UNL1        0.0636
     35 H          -2.9699    2.2550    1.7776 H       1  UNL1        0.0661
     36 H          -5.2015    2.6525    2.2580 H       1  UNL1        0.0660
     37 H          -4.0783    3.4625    3.4183 H       1  UNL1        0.0660
     38 H          -5.7387    4.0346    3.2156 H       1  UNL1        0.0660
     39 H          -2.2192    7.2963   -0.5859 H       1  UNL1        0.0742
     40 H          -3.5561    7.5330   -1.7637 H       1  UNL1        0.0742
     41 H          -3.3546    9.5079   -0.2944 H       1  UNL1        0.0600
     42 H          -4.8964    9.5409    1.5484 H       1  UNL1        0.0533
     43 H          -5.0861    7.6929    1.4671 H       1  UNL1        0.0533
@<TRIPOS>BOND
     1     1     2    1
     2     2     3    2
     3     1     4    2
     4     5     6    1
     5     6     7    1
     6     7     8    1
     7     5     9    1
     8     8     9   ar
     9     9    10   ar
    10    10    11   ar
    11    11    12   ar
    12    12    13   ar
    13     8    13   ar
    14     1    11    1
    15    14    15   ar
    16    15    16   ar
    17    16    17   ar
    18    17    18   ar
    19    18    19   ar
    20    14    19   ar
    21    20    21    1
    22    18    20    1
    23    16    22    1
    24    24    25    1
    25    25    26    2
    26    23    24    1
    27    17    23    1
    28     3    14    1
    29     2    27    1
    30     3    28    1
    31     6    29    1
    32     6    30    1
    33    10    31    1
    34    12    32    1
    35    13    33    1
    36    15    34    1
    37    19    35    1
    38    21    36    1
    39    21    37    1
    40    21    38    1
    41    24    39    1
    42    24    40    1
    43    25    41    1
    44    26    42    1
    45    26    43    1
@<TRIPOS>MOLECULE
mol_807_akc_agronomy13112765
10621
 77 81 0 0 0
SMALL
GASTEIGER

@<TRIPOS>ATOM
      1 O          -0.1498    7.3188   -0.2613 O.3     1  UNL1       -0.3313
      2 O          -0.4318    4.5139   -0.3692 O.3     1  UNL1       -0.3461
      3 O          -1.2077    2.4601   -1.2669 O.3     1  UNL1       -0.3431
      4 O          -3.1768    6.9666   -2.3119 O.3     1  UNL1       -0.3865
      5 O           0.7786    9.1107    1.0297 O.3     1  UNL1       -0.4606
      6 O          -2.9448    9.8084   -2.1177 O.3     1  UNL1       -0.3864
      7 O          -1.5193   10.7509    0.2527 O.3     1  UNL1       -0.3829
      8 O           0.9610    1.1137   -0.0378 O.3     1  UNL1       -0.3841
      9 O           0.0914    1.5253    2.5666 O.3     1  UNL1       -0.3864
     10 O          -2.8058    1.7957    2.0060 O.3     1  UNL1       -0.3866
     11 O           5.2589    7.9040    1.8129 O.3     1  UNL1       -0.4828
     12 O           3.5843    8.2421   -2.7470 O.3     1  UNL1       -0.5058
     13 O           6.0012    7.4325   -2.1801 O.2     1  UNL1       -0.2917
     14 O          10.5201    7.6363    5.2762 O.3     1  UNL1       -0.4915
     15 O          10.2970    5.1697    3.4799 O.3     1  UNL1       -0.5033
     16 C          -1.3151    6.6911   -0.8039 C.3     1  UNL1        0.1144
     17 C          -1.9918    7.6050   -1.8201 C.3     1  UNL1        0.1120
     18 C          -2.3404    8.9421   -1.1485 C.3     1  UNL1        0.1152
     19 C          -1.1169    9.5813   -0.4751 C.3     1  UNL1        0.1454
     20 C           0.5619    2.4397    0.3652 C.3     1  UNL1        0.1341
     21 C          -0.0764    3.2094   -0.8043 C.3     1  UNL1        0.1879
     22 C          -0.4560    2.3238    1.5072 C.3     1  UNL1        0.1140
     23 C          -1.7758    1.7002    1.0136 C.3     1  UNL1        0.1095
     24 C          -0.4069    8.5403    0.4254 C.3     1  UNL1        0.2308
     25 C          -0.8823    5.3569   -1.4362 C.3     1  UNL1        0.0796
     26 C          -2.2525    2.3690   -0.2879 C.3     1  UNL1        0.0873
     27 C          -3.3995    1.5872   -0.9217 C.3     1  UNL1       -0.0361
     28 C           1.9839    8.7738    0.4728 C.ar    1  UNL1        0.1310
     29 C           3.0306    8.5162    1.3606 C.ar    1  UNL1        0.0229
     30 C           4.2850    8.1248    0.8780 C.ar    1  UNL1        0.1389
     31 C           2.2139    8.7093   -0.9045 C.ar    1  UNL1        0.0226
     32 C           6.3913    7.1420    1.3532 C.3     1  UNL1        0.1323
     33 C           4.4936    8.0171   -0.4992 C.ar    1  UNL1        0.1007
     34 C           6.9316    7.6488    0.0228 C.3     1  UNL1        0.0520
     35 C           3.4538    8.3125   -1.3782 C.ar    1  UNL1        0.1343
     36 C           5.8266    7.6461   -0.9836 C.2     1  UNL1        0.1740
     37 C           7.4944    7.2211    2.3989 C.ar    1  UNL1       -0.0033
     38 C           8.4361    6.1882    2.5220 C.ar    1  UNL1       -0.0098
     39 C           7.6403    8.3433    3.2215 C.ar    1  UNL1       -0.0514
     40 C           9.4702    6.2559    3.4686 C.ar    1  UNL1        0.1588
     41 C           8.6749    8.4078    4.1584 C.ar    1  UNL1       -0.0159
     42 C           9.6003    7.3663    4.3053 C.ar    1  UNL1        0.1613
     43 C          11.5697    6.7296    5.5550 C.3     1  UNL1        0.0790
     44 H          -2.0011    6.4656    0.0193 H       1  UNL1        0.0647
     45 H          -1.3364    7.7971   -2.6814 H       1  UNL1        0.0647
     46 H          -3.1254    8.7788   -0.3976 H       1  UNL1        0.0648
     47 H          -0.4359    9.9497   -1.2475 H       1  UNL1        0.0683
     48 H           1.4591    2.9507    0.7307 H       1  UNL1        0.0671
     49 H           0.6401    3.2666   -1.6320 H       1  UNL1        0.0937
     50 H          -0.6515    3.3112    1.9417 H       1  UNL1        0.0648
     51 H          -1.6117    0.6292    0.8431 H       1  UNL1        0.0646
     52 H          -1.0598    8.3119    1.2767 H       1  UNL1        0.1084
     53 H          -1.7222    4.8821   -1.9515 H       1  UNL1        0.0587
     54 H          -0.0567    5.5111   -2.1389 H       1  UNL1        0.0587
     55 H          -2.6339    3.3750   -0.0720 H       1  UNL1        0.0621
     56 H          -4.2878    1.5925   -0.2835 H       1  UNL1        0.0255
     57 H          -3.6652    2.0171   -1.8933 H       1  UNL1        0.0255
     58 H          -3.1086    0.5476   -1.1064 H       1  UNL1        0.0255
     59 H          -3.9155    7.6021   -2.2339 H       1  UNL1        0.2100
     60 H          -2.2404   10.3072   -2.5707 H       1  UNL1        0.2100
     61 H          -2.0999   10.4855    0.9881 H       1  UNL1        0.2102
     62 H           0.3594    0.8435   -0.7601 H       1  UNL1        0.2101
     63 H           0.5305    0.7677    2.1304 H       1  UNL1        0.2100
     64 H          -2.6286    2.5796    2.5546 H       1  UNL1        0.2100
     65 H           2.8631    8.5954    2.4336 H       1  UNL1        0.0691
     66 H           1.4392    8.9462   -1.6215 H       1  UNL1        0.0691
     67 H           6.0608    6.0969    1.2703 H       1  UNL1        0.0789
     68 H           7.7365    6.9999   -0.3390 H       1  UNL1        0.0385
     69 H           7.3110    8.6742    0.0952 H       1  UNL1        0.0385
     70 H           8.3718    5.3094    1.8829 H       1  UNL1        0.0659
     71 H           6.9521    9.1827    3.1436 H       1  UNL1        0.0623
     72 H           4.4930    7.9219   -2.9479 H       1  UNL1        0.2922
     73 H           8.7646    9.2938    4.7842 H       1  UNL1        0.0655
     74 H          10.4481    4.9303    4.4059 H       1  UNL1        0.2923
     75 H          11.1812    5.8292    6.0397 H       1  UNL1        0.0660
     76 H          12.1579    6.4955    4.6635 H       1  UNL1        0.0660
     77 H          12.2393    7.2116    6.2746 H       1  UNL1        0.0660
@<TRIPOS>BOND
     1     1    16    1
     2     1    24    1
     3     2    25    1
     4     3    21    1
     5     3    26    1
     6     4    17    1
     7     4    59    1
     8     5    24    1
     9     5    28    1
    10     6    18    1
    11     6    60    1
    12     7    19    1
    13     7    61    1
    14     8    20    1
    15     8    62    1
    16     9    22    1
    17     9    63    1
    18    10    23    1
    19    10    64    1
    20    11    30    1
    21    11    32    1
    22    12    35    1
    23    12    72    1
    24    13    36    2
    25    14    42    1
    26    14    43    1
    27    15    40    1
    28    15    74    1
    29    16    17    1
    30    16    25    1
    31    16    44    1
    32    17    18    1
    33    17    45    1
    34    18    19    1
    35    18    46    1
    36    19    24    1
    37    19    47    1
    38    20    21    1
    39    20    22    1
    40    20    48    1
    41    22    23    1
    42    22    50    1
    43    23    26    1
    44    23    51    1
    45    24    52    1
    46    25    53    1
    47    25    54    1
    48    26    27    1
    49    26    55    1
    50    27    56    1
    51    27    57    1
    52    27    58    1
    53    28    29   ar
    54    28    31   ar
    55    29    30   ar
    56    29    65    1
    57    30    33   ar
    58    31    35   ar
    59    31    66    1
    60    32    34    1
    61    33    35   ar
    62    33    36    1
    63    34    36    1
    64    34    68    1
    65    34    69    1
    66    37    38   ar
    67    37    39   ar
    68    38    40   ar
    69    38    70    1
    70    39    41   ar
    71    39    71    1
    72    40    42   ar
    73    41    42   ar
    74    41    73    1
    75    43    75    1
    76    43    76    1
    77    43    77    1
    78    21    49    1
    79    21     2    1
    80    32    67    1
    81    32    37    1
@<TRIPOS>MOLECULE
mol_808_akc_0739110220232279279
*****
 43 46 0 0 0
SMALL
GASTEIGER

@<TRIPOS>ATOM
      1 C          -0.9167    1.2266   -3.7857 C.3     1  UNL1        0.0125
      2 C          -0.3491    2.0981   -2.6941 C.2     1  UNL1        0.2141
      3 O          -1.0960    2.6772   -1.9131 O.2     1  UNL1       -0.2758
      4 N           1.0355    2.1616   -2.7264 N.am    1  UNL1       -0.2857
      5 C           1.8782    2.8755   -1.8424 C.ar    1  UNL1        0.0334
      6 C           1.4013    3.6043   -0.7508 C.ar    1  UNL1       -0.0398
      7 C           2.2924    4.3187    0.0678 C.ar    1  UNL1       -0.0477
      8 C           3.6611    4.3027   -0.1854 C.ar    1  UNL1        0.0372
      9 C           4.1510    3.5516   -1.2586 C.ar    1  UNL1       -0.0477
     10 C           3.2577    2.8421   -2.0818 C.ar    1  UNL1       -0.0398
     11 C           4.5346    5.1221    0.6758 C.2     1  UNL1        0.2320
     12 N           4.1405    5.8803    1.6462 N.2     1  UNL1       -0.2053
     13 C           5.3023    6.4409    2.1031 C.2     1  UNL1        0.1524
     14 C           5.4241    7.3127    3.1178 C.2     1  UNL1       -0.0214
     15 C           4.2427    7.7260    3.8987 C.ar    1  UNL1       -0.0151
     16 C           3.5509    8.8822    3.5133 C.ar    1  UNL1       -0.0539
     17 C           2.3053    9.1701    4.0665 C.ar    1  UNL1       -0.0606
     18 C           1.6967    8.2503    4.9192 C.ar    1  UNL1       -0.0540
     19 C           2.3758    7.0934    5.3280 C.ar    1  UNL1       -0.0173
     20 C           3.7105    6.8877    4.9126 C.ar    1  UNL1       -0.0107
     21 C           4.4457    5.8598    5.5443 C.ar    1  UNL1       -0.0535
     22 C           3.8507    5.0080    6.4752 C.ar    1  UNL1       -0.0611
     23 C           2.4856    5.0964    6.7134 C.ar    1  UNL1       -0.0612
     24 C           1.7527    6.1400    6.1508 C.ar    1  UNL1       -0.0540
     25 C           6.4532    5.9351    1.3091 C.2     1  UNL1        0.3643
     26 O           7.6368    6.1903    1.4154 O.2     1  UNL1       -0.2427
     27 O           5.8634    5.0876    0.4123 O.3     1  UNL1       -0.4020
     28 H          -1.9470    0.9599   -3.5353 H       1  UNL1        0.0323
     29 H          -0.3402    0.3016   -3.8816 H       1  UNL1        0.0323
     30 H          -0.9081    1.7721   -4.7329 H       1  UNL1        0.0323
     31 H           1.4947    1.6669   -3.4808 H       1  UNL1        0.1548
     32 H           0.3488    3.6542   -0.5064 H       1  UNL1        0.0636
     33 H           1.8840    4.8846    0.9062 H       1  UNL1        0.0626
     34 H           5.2153    3.5145   -1.4788 H       1  UNL1        0.0626
     35 H           3.6625    2.2768   -2.9148 H       1  UNL1        0.0636
     36 H           6.3844    7.7216    3.4132 H       1  UNL1        0.0647
     37 H           3.9667    9.5520    2.7649 H       1  UNL1        0.0624
     38 H           1.7858   10.0858    3.7976 H       1  UNL1        0.0618
     39 H           0.6985    8.4613    5.2977 H       1  UNL1        0.0624
     40 H           5.5087    5.7469    5.3448 H       1  UNL1        0.0624
     41 H           4.4520    4.2713    6.9995 H       1  UNL1        0.0618
     42 H           1.9962    4.3728    7.3591 H       1  UNL1        0.0618
     43 H           0.6882    6.2096    6.3631 H       1  UNL1        0.0624
@<TRIPOS>BOND
     1     1     2    1
     2     2     3    2
     3     2     4   am
     4     4     5    1
     5     5     6   ar
     6     6     7   ar
     7     7     8   ar
     8     8     9   ar
     9     9    10   ar
    10     5    10   ar
    11     8    11    1
    12    11    12    2
    13    12    13    1
    14    13    14    2
    15    14    15    1
    16    15    16   ar
    17    16    17   ar
    18    17    18   ar
    19    18    19   ar
    20    19    20   ar
    21    15    20   ar
    22    20    21   ar
    23    21    22   ar
    24    22    23   ar
    25    23    24   ar
    26    19    24   ar
    27    13    25    1
    28    25    26    2
    29    25    27    1
    30    11    27    1
    31     1    28    1
    32     1    29    1
    33     1    30    1
    34     4    31    1
    35     6    32    1
    36     7    33    1
    37     9    34    1
    38    10    35    1
    39    14    36    1
    40    16    37    1
    41    17    38    1
    42    18    39    1
    43    21    40    1
    44    22    41    1
    45    23    42    1
    46    24    43    1
@<TRIPOS>MOLECULE
mol_809_akc_1809_4392202300281
*****
 30 31 0 0 0
SMALL
GASTEIGER

@<TRIPOS>ATOM
      1 C           1.0452    1.3760    0.1290 C.ar    1  UNL1       -0.0090
      2 C          -0.1521    0.6970    0.1119 C.ar    1  UNL1        0.1704
      3 C          -0.2164   -0.6657   -0.0258 C.ar    1  UNL1        0.2112
      4 C           0.9400   -1.4239   -0.1394 C.ar    1  UNL1        0.2077
      5 C           2.2043   -0.7525   -0.1374 C.ar    1  UNL1        0.1689
      6 C           2.2610    0.6638   -0.0066 C.ar    1  UNL1        0.0053
      7 O          -1.5092   -1.0989   -0.0172 O.3     1  UNL1       -0.4488
      8 C          -2.2315    0.1346    0.1385 C.3     1  UNL1        0.2334
      9 O          -1.3736    1.2842    0.2279 O.3     1  UNL1       -0.4525
     10 O           0.9953   -2.7913   -0.2646 O.3     1  UNL1       -0.4884
     11 C          -0.2172   -3.5266   -0.1924 C.3     1  UNL1        0.0791
     12 O           3.2491   -1.6393   -0.2108 O.3     1  UNL1       -0.4910
     13 C           4.5595   -1.2535   -0.5622 C.3     1  UNL1        0.0790
     14 C           3.5021    1.5290    0.0652 C.3     1  UNL1       -0.0060
     15 C           4.0307    1.6897    1.4640 C.2     1  UNL1       -0.0867
     16 C           4.2064    2.8688    2.0713 C.2     1  UNL1       -0.1023
     17 H           1.0383    2.4542    0.2620 H       1  UNL1        0.0659
     18 H          -2.9009    0.2608   -0.7202 H       1  UNL1        0.1166
     19 H          -2.8388    0.0754    1.0495 H       1  UNL1        0.1166
     20 H          -0.7415   -3.3492    0.7521 H       1  UNL1        0.0660
     21 H          -0.8541   -3.3199   -1.0582 H       1  UNL1        0.0660
     22 H           0.0387   -4.5905   -0.2226 H       1  UNL1        0.0660
     23 H           4.5827   -0.6739   -1.4889 H       1  UNL1        0.0660
     24 H           5.0475   -0.7416    0.2694 H       1  UNL1        0.0660
     25 H           5.1345   -2.1670   -0.7464 H       1  UNL1        0.0660
     26 H           4.2912    1.1763   -0.5970 H       1  UNL1        0.0357
     27 H           3.2611    2.5177   -0.3517 H       1  UNL1        0.0357
     28 H           4.2875    0.7786    2.0031 H       1  UNL1        0.0570
     29 H           4.5986    2.9207    3.0818 H       1  UNL1        0.0532
     30 H           3.9680    3.8067    1.5799 H       1  UNL1        0.0532
@<TRIPOS>BOND
     1     1     2   ar
     2     1     6   ar
     3     3     4   ar
     4     4     5   ar
     5     5     6   ar
     6     2     9    1
     7     2     3   ar
     8     3     7    1
     9     7     8    1
    10     8     9    1
    11     4    10    1
    12    10    11    1
    13     5    12    1
    14    12    13    1
    15     6    14    1
    16    14    15    1
    17    15    16    2
    18     1    17    1
    19     8    18    1
    20     8    19    1
    21    11    20    1
    22    11    21    1
    23    11    22    1
    24    13    23    1
    25    13    24    1
    26    13    25    1
    27    14    26    1
    28    14    27    1
    29    15    28    1
    30    16    29    1
    31    16    30    1
@<TRIPOS>MOLECULE
mol_80_akc_jheliyon2020e03614
>79.sdf
 53 56 0 0 0
SMALL
GASTEIGER

@<TRIPOS>ATOM
      1 C           0.9959   -3.1682   -0.9540 C.3     1  UNL1       -0.0248
      2 C           1.4759   -1.7176   -0.7775 C.3     1  UNL1        0.1121
      3 C           2.9761   -1.7480   -0.4419 C.3     1  UNL1       -0.0248
      4 C           1.2792   -0.8784   -2.0408 C.3     1  UNL1        0.0499
      5 C          -0.1836   -0.6429   -2.2840 C.2     1  UNL1        0.1704
      6 O          -0.6629   -0.5540   -3.4094 O.2     1  UNL1       -0.2918
      7 C          -1.0109   -0.4313   -1.0843 C.ar    1  UNL1        0.0595
      8 C          -2.3310    0.0264   -1.2026 C.ar    1  UNL1       -0.0431
      9 C          -3.0988    0.2668   -0.0541 C.ar    1  UNL1       -0.0294
     10 C          -4.5251    0.7476   -0.1552 C.3     1  UNL1        0.0371
     11 N          -4.6081    2.1926   -0.1350 N.am    1  UNL1       -0.3077
     12 C          -5.3476    2.8599    0.8112 C.2     1  UNL1        0.2372
     13 O          -5.9381    2.3151    1.7345 O.2     1  UNL1       -0.2708
     14 C          -5.3803    4.3321    0.6015 C.2     1  UNL1        0.0001
     15 C          -6.0592    5.1205    1.4540 C.2     1  UNL1       -0.0568
     16 C          -6.1265    6.5604    1.3065 C.2     1  UNL1       -0.0610
     17 C          -6.8021    7.3603    2.1502 C.2     1  UNL1       -0.0545
     18 C          -6.8677    8.8285    2.0227 C.ar    1  UNL1       -0.0213
     19 C          -6.8196    9.4704    0.7748 C.ar    1  UNL1       -0.0090
     20 C          -6.8741   10.8492    0.7429 C.ar    1  UNL1        0.1668
     21 C          -6.9996   11.5986    1.8868 C.ar    1  UNL1        0.1663
     22 O          -7.0254   12.9339    1.6315 O.3     1  UNL1       -0.4526
     23 C          -6.8466   12.9393    0.1996 C.3     1  UNL1        0.2332
     24 O          -6.8090   11.6177   -0.3778 O.3     1  UNL1       -0.4526
     25 C          -7.0876   11.0096    3.1275 C.ar    1  UNL1       -0.0156
     26 C          -7.0226    9.6106    3.1911 C.ar    1  UNL1       -0.0509
     27 C          -2.5116    0.0586    1.2033 C.ar    1  UNL1       -0.0536
     28 C          -1.1960   -0.4074    1.3116 C.ar    1  UNL1       -0.0189
     29 C          -0.4447   -0.6650    0.1663 C.ar    1  UNL1        0.1318
     30 O           0.8281   -1.1259    0.3650 O.3     1  UNL1       -0.4851
     31 H           1.1861   -3.7518   -0.0457 H       1  UNL1        0.0268
     32 H          -0.0826   -3.2259   -1.1323 H       1  UNL1        0.0268
     33 H           1.5055   -3.6580   -1.7908 H       1  UNL1        0.0268
     34 H           3.3553   -0.7372   -0.2522 H       1  UNL1        0.0268
     35 H           3.1631   -2.3232    0.4724 H       1  UNL1        0.0268
     36 H           3.5633   -2.1905   -1.2543 H       1  UNL1        0.0268
     37 H           1.7147   -1.3788   -2.9129 H       1  UNL1        0.0384
     38 H           1.7458    0.1093   -1.9381 H       1  UNL1        0.0384
     39 H          -2.7541    0.1928   -2.1919 H       1  UNL1        0.0629
     40 H          -4.9684    0.4119   -1.1003 H       1  UNL1        0.0512
     41 H          -5.1261    0.3052    0.6468 H       1  UNL1        0.0512
     42 H          -4.1622    2.6978   -0.8856 H       1  UNL1        0.1493
     43 H          -4.8507    4.7394   -0.2481 H       1  UNL1        0.0669
     44 H          -6.5856    4.6770    2.2977 H       1  UNL1        0.0619
     45 H          -5.5817    6.9878    0.4684 H       1  UNL1        0.0618
     46 H          -7.3232    6.9374    3.0065 H       1  UNL1        0.0623
     47 H          -6.7416    8.9181   -0.1545 H       1  UNL1        0.0661
     48 H          -7.6700   13.4998   -0.2572 H       1  UNL1        0.1166
     49 H          -5.9036   13.4481   -0.0336 H       1  UNL1        0.1166
     50 H          -7.1960   11.6094    4.0242 H       1  UNL1        0.0655
     51 H          -7.0805    9.1313    4.1668 H       1  UNL1        0.0625
     52 H          -3.0850    0.2500    2.1099 H       1  UNL1        0.0622
     53 H          -0.7637   -0.5782    2.2947 H       1  UNL1        0.0654
@<TRIPOS>BOND
     1     1    31    1
     2     1    32    1
     3     1    33    1
     4     2     1    1
     5     3     2    1
     6     3    34    1
     7     3    35    1
     8     3    36    1
     9     4     2    1
    10     4    37    1
    11     4    38    1
    12     5     4    1
    13     6     5    2
    14     7     5    1
    15     8     7   ar
    16     8    39    1
    17     9     8   ar
    18    10     9    1
    19    10    40    1
    20    10    41    1
    21    11    10    1
    22    11    42    1
    23    12    11   am
    24    13    12    2
    25    14    12    1
    26    14    43    1
    27    15    14    2
    28    15    44    1
    29    16    15    1
    30    16    45    1
    31    17    16    2
    32    17    46    1
    33    18    17    1
    34    19    18   ar
    35    19    47    1
    36    20    19   ar
    37    21    20   ar
    38    22    21    1
    39    23    22    1
    40    23    48    1
    41    23    49    1
    42    24    23    1
    43    24    20    1
    44    25    21   ar
    45    25    50    1
    46    26    25   ar
    47    26    18   ar
    48    26    51    1
    49    27     9   ar
    50    27    52    1
    51    28    27   ar
    52    28    53    1
    53    29    28   ar
    54    29     7   ar
    55    30    29    1
    56    30     2    1
@<TRIPOS>MOLECULE
mol_810_akc_s11030_022_10548_9
*****
 55 58 0 0 0
SMALL
GASTEIGER

@<TRIPOS>ATOM
      1 C           1.5757   -4.4629    3.4200 C.ar    1  UNL1        0.2754
      2 C           0.8495   -4.9588    2.1925 C.ar    1  UNL1        0.1227
      3 N           0.8069   -4.2691    1.0921 N.ar    1  UNL1       -0.1666
      4 N           1.4203   -3.0247    1.0826 N.ar    1  UNL1       -0.2097
      5 C           2.0437   -2.4561    2.1883 C.ar    1  UNL1        0.3458
      6 N           2.2068   -3.2715    3.2668 N.ar    1  UNL1       -0.2723
      7 C           1.2244   -2.2146   -0.1139 C.3     1  UNL1        0.0751
      8 C           2.2845   -2.4110   -1.1782 C.ar    1  UNL1        0.0168
      9 C           3.3706   -1.5286   -1.3323 C.ar    1  UNL1        0.1449
     10 C           2.1250   -3.4432   -2.1146 C.ar    1  UNL1       -0.0533
     11 C           2.9710   -3.5371   -3.2169 C.ar    1  UNL1       -0.0608
     12 C           3.9796   -2.5909   -3.4110 C.ar    1  UNL1       -0.0498
     13 C           4.1987   -1.5589   -2.4789 C.ar    1  UNL1        0.0557
     14 C           5.2104   -0.4685   -2.7777 C.3     1  UNL1        0.2203
     15 N           4.7006    0.6202   -3.5956 N.am    1  UNL1       -0.1459
     16 N           5.5356    0.8579   -4.6547 N.2     1  UNL1       -0.1355
     17 C           6.4344   -0.0681   -4.5552 C.2     1  UNL1        0.2399
     18 O           6.3168   -0.9636   -3.5429 O.2     1  UNL1       -0.4468
     19 C           7.6297   -0.2234   -5.3950 C.ar    1  UNL1        0.0392
     20 C           8.4374   -1.3641   -5.3065 C.ar    1  UNL1       -0.0494
     21 C           9.5967   -1.4604   -6.0790 C.ar    1  UNL1       -0.0597
     22 C           9.9528   -0.4177   -6.9352 C.ar    1  UNL1       -0.0433
     23 C           9.1460    0.7164   -7.0209 C.ar    1  UNL1        0.0417
     24 C           7.9840    0.8192   -6.2593 C.ar    1  UNL1       -0.0311
     25 C           3.8118    1.5805   -3.1492 C.2     1  UNL1        0.2351
     26 O           3.2824    1.5712   -2.0428 O.2     1  UNL1       -0.2740
     27 C           3.5392    2.7058   -4.1077 C.3     1  UNL1        0.0141
     28 O           3.4818   -0.4810   -0.3900 O.3     1  UNL1       -0.4252
     29 C           4.6687   -0.3194    0.3195 C.2     1  UNL1        0.3092
     30 O           5.6000   -1.1141    0.3566 O.2     1  UNL1       -0.2507
     31 C           4.7236    1.0778    0.8628 C.3     1  UNL1        0.0336
     32 O           2.4180   -1.2870    2.2590 O.2     1  UNL1       -0.2449
     33 O           1.5476   -5.0878    4.4663 O.2     1  UNL1       -0.2658
     34 C           0.1181   -6.2683    2.2925 C.3     1  UNL1       -0.0154
     35 CL          9.5989    2.0073   -8.0647 Cl      1  UNL1       -0.0835
     36 H           2.6368   -2.8604    4.0823 H       1  UNL1        0.1735
     37 H           0.2419   -2.4665   -0.5361 H       1  UNL1        0.0561
     38 H           1.1508   -1.1564    0.1595 H       1  UNL1        0.0561
     39 H           1.3072   -4.1546   -2.0087 H       1  UNL1        0.0622
     40 H           2.8156   -4.3227   -3.9546 H       1  UNL1        0.0618
     41 H           4.5811   -2.6525   -4.3150 H       1  UNL1        0.0623
     42 H           5.6418   -0.0371   -1.8756 H       1  UNL1        0.1027
     43 H           8.1797   -2.1796   -4.6339 H       1  UNL1        0.0625
     44 H          10.2269   -2.3440   -6.0068 H       1  UNL1        0.0618
     45 H          10.8613   -0.4923   -7.5277 H       1  UNL1        0.0632
     46 H           7.3696    1.7142   -6.3252 H       1  UNL1        0.0640
     47 H           4.4355    3.3211   -4.2251 H       1  UNL1        0.0323
     48 H           3.2073    2.3165   -5.0723 H       1  UNL1        0.0323
     49 H           2.7397    3.3355   -3.6979 H       1  UNL1        0.0323
     50 H           5.0015    1.7665    0.0606 H       1  UNL1        0.0342
     51 H           3.7542    1.3659    1.2812 H       1  UNL1        0.0342
     52 H           5.4751    1.1391    1.6571 H       1  UNL1        0.0342
     53 H          -0.9560   -6.0793    2.2113 H       1  UNL1        0.0295
     54 H           0.4270   -6.9250    1.4754 H       1  UNL1        0.0295
     55 H           0.3098   -6.7760    3.2402 H       1  UNL1        0.0295
@<TRIPOS>BOND
     1     1     2   ar
     2     1     6   ar
     3     2     3   ar
     4     3     4   ar
     5     4     5   ar
     6     5     6   ar
     7     4     7    1
     8     7     8    1
     9     9     8   ar
    10     8    10   ar
    11     9    13   ar
    12    10    11   ar
    13    11    12   ar
    14    12    13   ar
    15    14    13    1
    16    14    15    1
    17    14    18    1
    18    15    16    1
    19    16    17    2
    20    17    18    1
    21    17    19    1
    22    19    20   ar
    23    19    24   ar
    24    20    21   ar
    25    21    22   ar
    26    22    23   ar
    27    23    24   ar
    28    15    25   am
    29    25    26    2
    30    25    27    1
    31     9    28    1
    32    28    29    1
    33    29    30    2
    34    29    31    1
    35     5    32    2
    36     1    33    2
    37     2    34    1
    38    23    35    1
    39     6    36    1
    40     7    37    1
    41     7    38    1
    42    10    39    1
    43    11    40    1
    44    12    41    1
    45    14    42    1
    46    20    43    1
    47    21    44    1
    48    22    45    1
    49    24    46    1
    50    27    47    1
    51    27    48    1
    52    27    49    1
    53    31    50    1
    54    31    51    1
    55    31    52    1
    56    34    53    1
    57    34    54    1
    58    34    55    1
@<TRIPOS>MOLECULE
mol_811_akc_s11030_022_10548_9
*****
 55 58 0 0 0
SMALL
GASTEIGER

@<TRIPOS>ATOM
      1 C           4.3665   -7.4912   -3.1736 C.ar    1  UNL1        0.2754
      2 C           5.7665   -7.7787   -3.6517 C.ar    1  UNL1        0.1227
      3 N           6.4506   -6.9093   -4.3373 N.ar    1  UNL1       -0.1666
      4 N           5.8300   -5.7200   -4.6872 N.ar    1  UNL1       -0.2097
      5 C           4.4691   -5.4859   -4.4905 C.ar    1  UNL1        0.3458
      6 N           3.8535   -6.3072   -3.5948 N.ar    1  UNL1       -0.2723
      7 C           6.6169   -4.8480   -5.5698 C.3     1  UNL1        0.0751
      8 C           6.3854   -3.3566   -5.4085 C.ar    1  UNL1        0.0168
      9 C           6.2934   -2.6930   -4.1602 C.ar    1  UNL1        0.1449
     10 C           6.1794   -2.6125   -6.5811 C.ar    1  UNL1       -0.0533
     11 C           5.8159   -1.2747   -6.5165 C.ar    1  UNL1       -0.0608
     12 C           5.6639   -0.6544   -5.2776 C.ar    1  UNL1       -0.0498
     13 C           5.8935   -1.3409   -4.0644 C.ar    1  UNL1        0.0557
     14 C           5.5805   -0.6533   -2.7333 C.3     1  UNL1        0.2203
     15 N           6.7274   -0.3956   -1.8752 N.am    1  UNL1       -0.1459
     16 N           7.0177    0.9438   -1.8425 N.2     1  UNL1       -0.1355
     17 C           6.0517    1.4938   -2.5019 C.2     1  UNL1        0.2399
     18 O           5.0785    0.6783   -2.9788 O.2     1  UNL1       -0.4468
     19 C           5.8963    2.9358   -2.7546 C.ar    1  UNL1        0.0392
     20 C           4.8023    3.4518   -3.4590 C.ar    1  UNL1       -0.0494
     21 C           4.7070    4.8282   -3.6898 C.ar    1  UNL1       -0.0597
     22 C           5.6997    5.6890   -3.2172 C.ar    1  UNL1       -0.0433
     23 C           6.7839    5.1728   -2.5103 C.ar    1  UNL1        0.0417
     24 C           6.8876    3.8036   -2.2763 C.ar    1  UNL1       -0.0311
     25 C           7.0408   -1.1782   -0.7786 C.2     1  UNL1        0.2351
     26 O           6.4860   -2.2451   -0.5151 O.2     1  UNL1       -0.2740
     27 C           8.0794   -0.5992    0.1520 C.3     1  UNL1        0.0141
     28 O           6.3917   -3.4472   -2.9740 O.3     1  UNL1       -0.4252
     29 C           7.6217   -4.0386   -2.6829 C.2     1  UNL1        0.3092
     30 O           8.6754   -3.8492   -3.2772 O.2     1  UNL1       -0.2507
     31 C           7.4619   -4.9959   -1.5343 C.3     1  UNL1        0.0336
     32 O           3.8068   -4.6099   -5.0410 O.2     1  UNL1       -0.2449
     33 O           3.7542   -8.2941   -2.4874 O.2     1  UNL1       -0.2658
     34 C           6.3571   -9.1228   -3.3436 C.3     1  UNL1       -0.0154
     35 CL          8.0053    6.2335   -1.9236 Cl      1  UNL1       -0.0835
     36 H           2.8865   -6.1119   -3.3919 H       1  UNL1        0.1735
     37 H           7.6830   -5.0561   -5.4188 H       1  UNL1        0.0561
     38 H           6.3704   -5.1621   -6.5915 H       1  UNL1        0.0561
     39 H           6.2438   -3.0897   -7.5571 H       1  UNL1        0.0622
     40 H           5.6039   -0.7257   -7.4307 H       1  UNL1        0.0618
     41 H           5.3189    0.3773   -5.2814 H       1  UNL1        0.0623
     42 H           4.8053   -1.2120   -2.1964 H       1  UNL1        0.1027
     43 H           4.0192    2.7967   -3.8335 H       1  UNL1        0.0625
     44 H           3.8595    5.2318   -4.2397 H       1  UNL1        0.0618
     45 H           5.6241    6.7578   -3.4018 H       1  UNL1        0.0632
     46 H           7.7405    3.4142   -1.7247 H       1  UNL1        0.0640
     47 H           8.9279   -0.2006   -0.4104 H       1  UNL1        0.0323
     48 H           7.6260    0.1910    0.7580 H       1  UNL1        0.0323
     49 H           8.4500   -1.3850    0.8162 H       1  UNL1        0.0323
     50 H           8.1104   -4.6922   -0.7096 H       1  UNL1        0.0342
     51 H           6.4271   -5.0091   -1.1793 H       1  UNL1        0.0342
     52 H           7.7174   -6.0056   -1.8647 H       1  UNL1        0.0342
     53 H           6.5319   -9.6530   -4.2850 H       1  UNL1        0.0295
     54 H           7.3111   -8.9917   -2.8265 H       1  UNL1        0.0295
     55 H           5.6969   -9.7296   -2.7210 H       1  UNL1        0.0295
@<TRIPOS>BOND
     1     1     2   ar
     2     1     6   ar
     3     2     3   ar
     4     3     4   ar
     5     4     5   ar
     6     5     6   ar
     7     4     7    1
     8     7     8    1
     9     9     8   ar
    10     8    10   ar
    11     9    13   ar
    12    10    11   ar
    13    11    12   ar
    14    12    13   ar
    15    14    15    1
    16    14    18    1
    17    15    16    1
    18    16    17    2
    19    17    18    1
    20    17    19    1
    21    19    20   ar
    22    19    24   ar
    23    20    21   ar
    24    21    22   ar
    25    22    23   ar
    26    23    24   ar
    27    15    25   am
    28    25    26    2
    29    25    27    1
    30     9    28    1
    31    28    29    1
    32    29    30    2
    33    29    31    1
    34     5    32    2
    35     1    33    2
    36     2    34    1
    37    23    35    1
    38     6    36    1
    39     7    37    1
    40     7    38    1
    41    10    39    1
    42    11    40    1
    43    12    41    1
    44    20    43    1
    45    21    44    1
    46    22    45    1
    47    24    46    1
    48    27    47    1
    49    27    48    1
    50    27    49    1
    51    31    50    1
    52    31    51    1
    53    31    52    1
    54    34    53    1
    55    34    54    1
    56    34    55    1
    57    14    42    1
    58    14    13    1
@<TRIPOS>MOLECULE
mol_813_akc_ardp202300440
*****
 65 68 0 0 0
SMALL
GASTEIGER

@<TRIPOS>ATOM
      1 O           3.5480    2.6974   -2.6064 O.2     1  UNL1       -0.1500
      2 S           3.5449    1.3537   -2.0675 S.O2    1  UNL1        0.0723
      3 C           5.2097    0.7299   -2.1428 C.ar    1  UNL1        0.1085
      4 C           5.4433   -0.6445   -2.1195 C.ar    1  UNL1       -0.0345
      5 C           6.7600   -1.1154   -2.0491 C.ar    1  UNL1       -0.0522
      6 C           7.8587   -0.2323   -2.0188 C.ar    1  UNL1       -0.0178
      7 C           9.2491   -0.7205   -1.8491 C.ar    1  UNL1       -0.0179
      8 C           9.6858   -1.9370   -2.4029 C.ar    1  UNL1       -0.0540
      9 C          10.9983   -2.3902   -2.2240 C.ar    1  UNL1       -0.0612
     10 C          11.9088   -1.6308   -1.4946 C.ar    1  UNL1       -0.0617
     11 C          11.5053   -0.4244   -0.9358 C.ar    1  UNL1       -0.0612
     12 C          10.1903    0.0183   -1.1045 C.ar    1  UNL1       -0.0540
     13 C           7.5837    1.1459   -2.1225 C.ar    1  UNL1       -0.0522
     14 C           6.2750    1.6285   -2.1832 C.ar    1  UNL1       -0.0345
     15 N           3.2495    1.4050   -0.4000 N.pl3   1  UNL1       -0.2162
     16 C           4.1504    2.1366    0.4273 C.ar    1  UNL1        0.0486
     17 C           5.1273    1.4575    1.1555 C.ar    1  UNL1       -0.0393
     18 C           6.0631    2.1758    1.9032 C.ar    1  UNL1       -0.0594
     19 C           6.0123    3.5741    1.9366 C.ar    1  UNL1       -0.0545
     20 C           5.0286    4.2547    1.2179 C.ar    1  UNL1       -0.0231
     21 C           4.9152    5.7130    1.2610 C.2     1  UNL1       -0.0509
     22 C           5.6360    6.5179    0.4649 C.2     1  UNL1       -0.0135
     23 C           5.2700    7.9653    0.3873 C.2     1  UNL1        0.1931
     24 C           5.6346    8.7490   -0.8472 C.ar    1  UNL1        0.1049
     25 C           5.6948    8.1496   -2.1281 C.ar    1  UNL1        0.1379
     26 O           5.4097    6.8113   -2.2488 O.3     1  UNL1       -0.4942
     27 C           6.0249    6.1158   -3.3309 C.3     1  UNL1        0.0788
     28 C           5.9432    8.9360   -3.2664 C.ar    1  UNL1        0.0227
     29 C           6.1478   10.3068   -3.1559 C.ar    1  UNL1        0.1271
     30 O           6.3909   11.1686   -4.1898 O.3     1  UNL1       -0.4949
     31 C           6.3942   10.6207   -5.5030 C.3     1  UNL1        0.0788
     32 C           6.1032   10.9010   -1.8979 C.ar    1  UNL1        0.0227
     33 C           5.8344   10.1459   -0.7461 C.ar    1  UNL1        0.1379
     34 O           5.8331   10.7287    0.4979 O.3     1  UNL1       -0.4942
     35 C           5.3818   12.0802    0.5577 C.3     1  UNL1        0.0788
     36 O           4.6447    8.4837    1.3095 O.2     1  UNL1       -0.2870
     37 C           4.1078    3.5299    0.4484 C.ar    1  UNL1       -0.0322
     38 O           2.6755    0.3274   -2.6054 O.2     1  UNL1       -0.1500
     39 H           4.6168   -1.3519   -2.1269 H       1  UNL1        0.0637
     40 H           6.9153   -2.1915   -1.9862 H       1  UNL1        0.0624
     41 H           9.0103   -2.5501   -2.9951 H       1  UNL1        0.0624
     42 H          11.3088   -3.3366   -2.6595 H       1  UNL1        0.0618
     43 H          12.9292   -1.9795   -1.3616 H       1  UNL1        0.0618
     44 H          12.2090    0.1742   -0.3632 H       1  UNL1        0.0618
     45 H           9.9059    0.9549   -0.6291 H       1  UNL1        0.0624
     46 H           8.3961    1.8702   -2.1381 H       1  UNL1        0.0624
     47 H           6.0980    2.6993   -2.2155 H       1  UNL1        0.0637
     48 H           2.9207    0.5060   -0.0513 H       1  UNL1        0.1737
     49 H           5.1867    0.3728    1.1319 H       1  UNL1        0.0636
     50 H           6.8313    1.6460    2.4612 H       1  UNL1        0.0618
     51 H           6.7371    4.1204    2.5358 H       1  UNL1        0.0623
     52 H           4.1242    6.1074    1.8959 H       1  UNL1        0.0625
     53 H           6.4017    6.1332   -0.1945 H       1  UNL1        0.0656
     54 H           5.5261    6.3432   -4.2776 H       1  UNL1        0.0660
     55 H           7.0979    6.3325   -3.3878 H       1  UNL1        0.0660
     56 H           5.9104    5.0438   -3.1480 H       1  UNL1        0.0660
     57 H           5.9423    8.4749   -4.2453 H       1  UNL1        0.0691
     58 H           7.1948    9.8825   -5.6182 H       1  UNL1        0.0660
     59 H           5.4192   10.1891   -5.7536 H       1  UNL1        0.0660
     60 H           6.5886   11.4355   -6.2065 H       1  UNL1        0.0660
     61 H           6.2871   11.9698   -1.8390 H       1  UNL1        0.0691
     62 H           6.1764   12.7651    0.2436 H       1  UNL1        0.0660
     63 H           4.4747   12.2369   -0.0375 H       1  UNL1        0.0660
     64 H           5.1412   12.3119    1.5996 H       1  UNL1        0.0660
     65 H           3.3472    4.0554   -0.1272 H       1  UNL1        0.0642
@<TRIPOS>BOND
     1     1     2    2
     2     2     3    1
     3     3     4   ar
     4     4     5   ar
     5     5     6   ar
     6     6     7    1
     7     7     8   ar
     8     8     9   ar
     9     9    10   ar
    10    10    11   ar
    11    11    12   ar
    12     7    12   ar
    13     6    13   ar
    14    13    14   ar
    15     3    14   ar
    16     2    15    1
    17    15    16    1
    18    16    17   ar
    19    17    18   ar
    20    18    19   ar
    21    19    20   ar
    22    20    21    1
    23    21    22    2
    24    22    23    1
    25    23    24    1
    26    24    25   ar
    27    25    26    1
    28    26    27    1
    29    25    28   ar
    30    28    29   ar
    31    29    30    1
    32    30    31    1
    33    29    32   ar
    34    32    33   ar
    35    24    33   ar
    36    33    34    1
    37    34    35    1
    38    23    36    2
    39    20    37   ar
    40    16    37   ar
    41     2    38    2
    42     4    39    1
    43     5    40    1
    44     8    41    1
    45     9    42    1
    46    10    43    1
    47    11    44    1
    48    12    45    1
    49    13    46    1
    50    14    47    1
    51    15    48    1
    52    17    49    1
    53    18    50    1
    54    19    51    1
    55    21    52    1
    56    22    53    1
    57    27    54    1
    58    27    55    1
    59    27    56    1
    60    28    57    1
    61    31    58    1
    62    31    59    1
    63    31    60    1
    64    32    61    1
    65    35    62    1
    66    35    63    1
    67    35    64    1
    68    37    65    1
@<TRIPOS>MOLECULE
mol_814_akc_1478641920232288232
*****
 46 47 0 0 0
SMALL
GASTEIGER

@<TRIPOS>ATOM
      1 C           0.4167   -1.2921   -0.0220 C.3     1  UNL1        0.1242
      2 C           1.0677    0.0741   -0.0295 C.2     1  UNL1       -0.0366
      3 C           0.3536    1.2099   -0.1095 C.2     1  UNL1       -0.0812
      4 C          -1.1431    1.2534   -0.1682 C.3     1  UNL1       -0.0288
      5 C          -1.8253   -0.0573    0.2707 C.3     1  UNL1       -0.0050
      6 C          -1.0900   -1.2696   -0.3353 C.3     1  UNL1       -0.0060
      7 C          -3.3569   -0.0547   -0.0243 C.3     1  UNL1        0.0708
      8 O          -3.9181   -1.3063    0.4249 O.3     1  UNL1       -0.3659
      9 C          -3.7311    0.0218   -1.5057 C.3     1  UNL1       -0.0211
     10 C          -5.0910   -0.6374   -1.5435 C.3     1  UNL1       -0.0201
     11 C          -4.9855   -1.7090   -0.4609 C.3     1  UNL1        0.0800
     12 C           2.5664    0.1002    0.0954 C.3     1  UNL1       -0.0403
     13 O           1.0406   -2.0759   -1.0618 O.3     1  UNL1       -0.4571
     14 C           1.5410   -3.2855   -0.7128 C.2     1  UNL1        0.3045
     15 O           1.5238   -3.7762    0.4084 O.2     1  UNL1       -0.2511
     16 C           2.1203   -3.9642   -1.9146 C.3     1  UNL1        0.0333
     17 C          -4.0600    1.0605    0.7761 C.3     1  UNL1       -0.0355
     18 C          -6.2753   -1.9454    0.3053 C.2     1  UNL1       -0.0513
     19 C          -6.3888   -1.7969    1.6375 C.2     1  UNL1       -0.0973
     20 C          -7.4551   -2.4030   -0.5096 C.3     1  UNL1       -0.0416
     21 H           0.5704   -1.7279    0.9733 H       1  UNL1        0.0782
     22 H           0.8614    2.1722   -0.1181 H       1  UNL1        0.0573
     23 H          -1.4742    2.0681    0.4861 H       1  UNL1        0.0311
     24 H          -1.4319    1.5233   -1.1899 H       1  UNL1        0.0311
     25 H          -1.7066   -0.1514    1.3613 H       1  UNL1        0.0333
     26 H          -1.5295   -2.2045    0.0360 H       1  UNL1        0.0308
     27 H          -1.2244   -1.2963   -1.4227 H       1  UNL1        0.0308
     28 H          -3.7428    1.0413   -1.9027 H       1  UNL1        0.0294
     29 H          -3.0535   -0.5674   -2.1306 H       1  UNL1        0.0294
     30 H          -5.3208   -1.0642   -2.5255 H       1  UNL1        0.0294
     31 H          -5.8734    0.0973   -1.3204 H       1  UNL1        0.0294
     32 H          -4.6656   -2.6576   -0.9089 H       1  UNL1        0.0643
     33 H           2.8764   -0.3938    1.0221 H       1  UNL1        0.0276
     34 H           3.0365   -0.4145   -0.7485 H       1  UNL1        0.0276
     35 H           2.9603    1.1219    0.1157 H       1  UNL1        0.0276
     36 H           1.3228   -4.2088   -2.6214 H       1  UNL1        0.0342
     37 H           2.8658   -3.3172   -2.3867 H       1  UNL1        0.0342
     38 H           2.6156   -4.8891   -1.6070 H       1  UNL1        0.0342
     39 H          -3.8932    0.9261    1.8507 H       1  UNL1        0.0257
     40 H          -3.7147    2.0572    0.4873 H       1  UNL1        0.0257
     41 H          -5.1465    1.0410    0.6395 H       1  UNL1        0.0257
     42 H          -7.3206   -1.9880    2.1600 H       1  UNL1        0.0535
     43 H          -5.5439   -1.4894    2.2474 H       1  UNL1        0.0535
     44 H          -7.7526   -1.6328   -1.2281 H       1  UNL1        0.0275
     45 H          -7.2082   -3.3175   -1.0577 H       1  UNL1        0.0275
     46 H          -8.3275   -2.6197    0.1172 H       1  UNL1        0.0275
@<TRIPOS>BOND
     1     1     2    1
     2     1     6    1
     3     2     3    2
     4     3     4    1
     5     4     5    1
     6     5     6    1
     7     8     7    1
     8     7     9    1
     9     8    11    1
    10     9    10    1
    11    10    11    1
    12     2    12    1
    13     1    13    1
    14    13    14    1
    15    14    15    2
    16    14    16    1
    17     7    17    1
    18    18    19    2
    19    18    20    1
    20     1    21    1
    21     3    22    1
    22     4    23    1
    23     4    24    1
    24     6    26    1
    25     6    27    1
    26     9    28    1
    27     9    29    1
    28    10    30    1
    29    10    31    1
    30    12    33    1
    31    12    34    1
    32    12    35    1
    33    16    36    1
    34    16    37    1
    35    16    38    1
    36    17    39    1
    37    17    40    1
    38    17    41    1
    39    19    42    1
    40    19    43    1
    41    20    44    1
    42    20    45    1
    43    20    46    1
    44     5    25    1
    45     5     7    1
    46    11    32    1
    47    11    18    1
@<TRIPOS>MOLECULE
mol_815_akc_1478641920232288232
*****
 46 47 0 0 0
SMALL
GASTEIGER

@<TRIPOS>ATOM
      1 C          -5.8489   -3.0320    0.7048 C.3     1  UNL1        0.1242
      2 C          -4.8814   -4.1690    0.4550 C.2     1  UNL1       -0.0366
      3 C          -3.6208   -3.9593    0.0418 C.2     1  UNL1       -0.0812
      4 C          -3.0357   -2.6029   -0.2020 C.3     1  UNL1       -0.0288
      5 C          -3.8099   -1.4402    0.4577 C.3     1  UNL1       -0.0050
      6 C          -5.3310   -1.6441    0.2714 C.3     1  UNL1       -0.0060
      7 C          -3.3115   -0.0321   -0.0414 C.3     1  UNL1        0.0708
      8 O          -4.0545    1.0079    0.6374 O.3     1  UNL1       -0.3659
      9 C          -1.8469    0.2523    0.3139 C.3     1  UNL1       -0.0211
     10 C          -1.9198    0.8511    1.6978 C.3     1  UNL1       -0.0201
     11 C          -3.2744    1.5456    1.7210 C.3     1  UNL1        0.0800
     12 C          -5.3945   -5.5595    0.7162 C.3     1  UNL1       -0.0403
     13 O          -7.0321   -3.2982   -0.0810 O.3     1  UNL1       -0.4571
     14 C          -8.2188   -3.3250    0.5710 C.2     1  UNL1        0.3045
     15 O          -8.3831   -3.1562    1.7655 O.2     1  UNL1       -0.2511
     16 C          -9.3311   -3.6238   -0.3900 C.3     1  UNL1        0.0333
     17 C          -3.5296    0.1785   -1.5466 C.3     1  UNL1       -0.0355
     18 C          -3.1957    3.0614    1.6077 C.2     1  UNL1       -0.0513
     19 C          -3.6779    3.8614    2.5727 C.2     1  UNL1       -0.0973
     20 C          -2.5413    3.6531    0.3884 C.3     1  UNL1       -0.0416
     21 H          -6.0626   -3.0131    1.7811 H       1  UNL1        0.0782
     22 H          -2.9614   -4.8059   -0.1410 H       1  UNL1        0.0573
     23 H          -2.0088   -2.6156    0.1789 H       1  UNL1        0.0311
     24 H          -2.9729   -2.4742   -1.2870 H       1  UNL1        0.0311
     25 H          -3.6327   -1.4922    1.5421 H       1  UNL1        0.0333
     26 H          -5.8800   -0.8853    0.8451 H       1  UNL1        0.0308
     27 H          -5.6126   -1.4783   -0.7741 H       1  UNL1        0.0308
     28 H          -1.1879   -0.6175    0.2705 H       1  UNL1        0.0294
     29 H          -1.4233    0.9975   -0.3707 H       1  UNL1        0.0294
     30 H          -1.0749    1.5138    1.9152 H       1  UNL1        0.0294
     31 H          -1.9003    0.0546    2.4505 H       1  UNL1        0.0294
     32 H          -3.7945    1.2788    2.6488 H       1  UNL1        0.0643
     33 H          -5.7236   -5.6531    1.7560 H       1  UNL1        0.0276
     34 H          -6.2391   -5.7937    0.0603 H       1  UNL1        0.0276
     35 H          -4.6270   -6.3214    0.5416 H       1  UNL1        0.0276
     36 H          -9.4059   -2.8202   -1.1266 H       1  UNL1        0.0342
     37 H          -9.1534   -4.5832   -0.8825 H       1  UNL1        0.0342
     38 H         -10.2756   -3.6860    0.1565 H       1  UNL1        0.0342
     39 H          -3.2835    1.2076   -1.8327 H       1  UNL1        0.0257
     40 H          -2.9114   -0.4898   -2.1520 H       1  UNL1        0.0257
     41 H          -4.5768    0.0442   -1.8317 H       1  UNL1        0.0257
     42 H          -3.6123    4.9438    2.5014 H       1  UNL1        0.0535
     43 H          -4.1530    3.4612    3.4632 H       1  UNL1        0.0535
     44 H          -1.4964    3.3362    0.3151 H       1  UNL1        0.0275
     45 H          -3.0671    3.3535   -0.5222 H       1  UNL1        0.0275
     46 H          -2.5374    4.7488    0.4190 H       1  UNL1        0.0275
@<TRIPOS>BOND
     1     1     2    1
     2     1     6    1
     3     2     3    2
     4     3     4    1
     5     4     5    1
     6     5     6    1
     7     8     7    1
     8     7     9    1
     9     8    11    1
    10     9    10    1
    11    10    11    1
    12     2    12    1
    13     1    13    1
    14    13    14    1
    15    14    15    2
    16    14    16    1
    17    11    18    1
    18    18    19    2
    19    18    20    1
    20     1    21    1
    21     3    22    1
    22     4    23    1
    23     4    24    1
    24     6    26    1
    25     6    27    1
    26     9    28    1
    27     9    29    1
    28    10    30    1
    29    10    31    1
    30    11    32    1
    31    12    33    1
    32    12    34    1
    33    12    35    1
    34    16    36    1
    35    16    37    1
    36    16    38    1
    37    17    39    1
    38    17    40    1
    39    17    41    1
    40    19    42    1
    41    19    43    1
    42    20    44    1
    43    20    45    1
    44    20    46    1
    45     5    25    1
    46     7     5    1
    47     7    17    1
@<TRIPOS>MOLECULE
mol_816_akc_1478641920232288232
*****
 46 47 0 0 0
SMALL
GASTEIGER

@<TRIPOS>ATOM
      1 C           0.4690   -1.0943    0.1673 C.3     1  UNL1        0.1242
      2 C           1.0636    0.2434   -0.2151 C.2     1  UNL1       -0.0366
      3 C           0.2971    1.3429   -0.3343 C.2     1  UNL1       -0.0812
      4 C          -1.1917    1.3538   -0.1423 C.3     1  UNL1       -0.0288
      5 C          -1.8186   -0.0008    0.2565 C.3     1  UNL1       -0.0050
      6 C          -0.9921   -1.1777   -0.3165 C.3     1  UNL1       -0.0060
      7 C          -3.3379   -0.0726   -0.0600 C.3     1  UNL1        0.0708
      8 O          -3.8471   -1.3575    0.3567 O.3     1  UNL1       -0.3659
      9 C          -3.6930    0.0144   -1.5433 C.3     1  UNL1       -0.0211
     10 C          -5.0288   -0.6895   -1.6055 C.3     1  UNL1       -0.0201
     11 C          -4.8911   -1.7812   -0.5472 C.3     1  UNL1        0.0800
     12 C           2.5250    0.2717   -0.5606 C.3     1  UNL1       -0.0403
     13 O           0.4193   -1.2038    1.6042 O.3     1  UNL1       -0.4571
     14 C           1.4126   -1.8664    2.2405 C.2     1  UNL1        0.3045
     15 O           2.4485   -2.2635    1.7407 O.2     1  UNL1       -0.2511
     16 C           1.0101   -2.0989    3.6708 C.3     1  UNL1        0.0333
     17 C          -4.0899    0.9947    0.7609 C.3     1  UNL1       -0.0355
     18 C          -6.1780   -2.0822    0.2009 C.2     1  UNL1       -0.0513
     19 C          -6.3064   -1.9780    1.5361 C.2     1  UNL1       -0.0973
     20 C          -7.3367   -2.5475   -0.6397 C.3     1  UNL1       -0.0416
     21 H           1.0318   -1.9249   -0.2759 H       1  UNL1        0.0782
     22 H           0.7455    2.2892   -0.6292 H       1  UNL1        0.0573
     23 H          -1.4332    2.1020    0.6223 H       1  UNL1        0.0311
     24 H          -1.6272    1.7094   -1.0823 H       1  UNL1        0.0311
     25 H          -1.7385   -0.0868    1.3508 H       1  UNL1        0.0333
     26 H          -1.4218   -2.1287    0.0182 H       1  UNL1        0.0308
     27 H          -1.0110   -1.1724   -1.4124 H       1  UNL1        0.0308
     28 H          -3.7399    1.0387   -1.9249 H       1  UNL1        0.0294
     29 H          -2.9807   -0.5412   -2.1616 H       1  UNL1        0.0294
     30 H          -5.2427   -1.0997   -2.5975 H       1  UNL1        0.0294
     31 H          -5.8357    0.0132   -1.3656 H       1  UNL1        0.0294
     32 H          -4.5323   -2.7065   -1.0144 H       1  UNL1        0.0643
     33 H           3.1400   -0.0788    0.2710 H       1  UNL1        0.0276
     34 H           2.7104   -0.3672   -1.4315 H       1  UNL1        0.0276
     35 H           2.8620    1.2808   -0.8240 H       1  UNL1        0.0276
     36 H           0.7337   -1.1543    4.1467 H       1  UNL1        0.0342
     37 H           0.1686   -2.7965    3.6982 H       1  UNL1        0.0342
     38 H           1.8466   -2.5343    4.2242 H       1  UNL1        0.0342
     39 H          -3.9148    0.8450    1.8329 H       1  UNL1        0.0257
     40 H          -3.7809    2.0099    0.4954 H       1  UNL1        0.0257
     41 H          -5.1742    0.9322    0.6260 H       1  UNL1        0.0257
     42 H          -7.2366   -2.2113    2.0439 H       1  UNL1        0.0535
     43 H          -5.4764   -1.6620    2.1619 H       1  UNL1        0.0535
     44 H          -7.6641   -1.7551   -1.3200 H       1  UNL1        0.0275
     45 H          -7.0510   -3.4221   -1.2326 H       1  UNL1        0.0275
     46 H          -8.2004   -2.8316   -0.0281 H       1  UNL1        0.0275
@<TRIPOS>BOND
     1     1     2    1
     2     1     6    1
     3     2     3    2
     4     3     4    1
     5     4     5    1
     6     5     6    1
     7     8     7    1
     8     7     9    1
     9     8    11    1
    10     9    10    1
    11    10    11    1
    12     2    12    1
    13    13    14    1
    14    14    15    2
    15    14    16    1
    16     7    17    1
    17    18    19    2
    18    18    20    1
    19     3    22    1
    20     4    23    1
    21     4    24    1
    22     6    26    1
    23     6    27    1
    24     9    28    1
    25     9    29    1
    26    10    30    1
    27    10    31    1
    28    12    33    1
    29    12    34    1
    30    12    35    1
    31    16    36    1
    32    16    37    1
    33    16    38    1
    34    17    39    1
    35    17    40    1
    36    17    41    1
    37    19    42    1
    38    19    43    1
    39    20    44    1
    40    20    45    1
    41    20    46    1
    42     1    21    1
    43     1    13    1
    44     5    25    1
    45     5     7    1
    46    11    32    1
    47    11    18    1
@<TRIPOS>MOLECULE
mol_817_akc_1478641920232288232
*****
 46 47 0 0 0
SMALL
GASTEIGER

@<TRIPOS>ATOM
      1 C          -5.6454   -3.1732    0.8680 C.3     1  UNL1        0.1242
      2 C          -4.7846   -4.2325    0.2288 C.2     1  UNL1       -0.0366
      3 C          -3.5539   -3.9461   -0.2324 C.2     1  UNL1       -0.0812
      4 C          -2.9478   -2.5698   -0.2124 C.3     1  UNL1       -0.0288
      5 C          -3.8091   -1.4609    0.4453 C.3     1  UNL1       -0.0050
      6 C          -5.3098   -1.7964    0.2711 C.3     1  UNL1       -0.0060
      7 C          -3.3825   -0.0259   -0.0230 C.3     1  UNL1        0.0708
      8 O          -3.5158    0.1105   -1.4502 O.3     1  UNL1       -0.3659
      9 C          -4.2387    1.0975    0.5680 C.3     1  UNL1       -0.0211
     10 C          -5.3212    1.3318   -0.4605 C.3     1  UNL1       -0.0201
     11 C          -4.6901    0.8732   -1.7701 C.3     1  UNL1        0.0800
     12 C          -5.4078   -5.5803   -0.0059 C.3     1  UNL1       -0.0403
     13 O          -5.3364   -3.0655    2.2761 O.3     1  UNL1       -0.4571
     14 C          -6.1214   -3.7111    3.1687 C.2     1  UNL1        0.3045
     15 O          -7.0011   -4.5199    2.8980 O.2     1  UNL1       -0.2511
     16 C          -5.8143   -3.2125    4.5521 C.3     1  UNL1        0.0333
     17 C          -1.9052    0.2170    0.3302 C.3     1  UNL1       -0.0355
     18 C          -4.3380    2.0154   -2.6993 C.2     1  UNL1       -0.0513
     19 C          -4.8803    2.1100   -3.9267 C.2     1  UNL1       -0.0973
     20 C          -3.3856    3.0665   -2.1998 C.3     1  UNL1       -0.0416
     21 H          -6.7129   -3.3708    0.7105 H       1  UNL1        0.0782
     22 H          -2.9590   -4.7195   -0.7162 H       1  UNL1        0.0573
     23 H          -1.9838   -2.6357    0.3074 H       1  UNL1        0.0311
     24 H          -2.7319   -2.3086   -1.2551 H       1  UNL1        0.0311
     25 H          -3.6014   -1.4954    1.5245 H       1  UNL1        0.0333
     26 H          -5.9151   -1.0629    0.8103 H       1  UNL1        0.0308
     27 H          -5.5929   -1.7684   -0.7872 H       1  UNL1        0.0308
     28 H          -4.6296    0.8730    1.5653 H       1  UNL1        0.0294
     29 H          -3.6506    2.0195    0.6604 H       1  UNL1        0.0294
     30 H          -5.6721    2.3680   -0.4709 H       1  UNL1        0.0294
     31 H          -6.2075    0.7282   -0.2467 H       1  UNL1        0.0294
     32 H          -5.3808    0.1879   -2.2781 H       1  UNL1        0.0643
     33 H          -5.7572   -6.0267    0.9275 H       1  UNL1        0.0276
     34 H          -6.2560   -5.4749   -0.6879 H       1  UNL1        0.0276
     35 H          -4.7040   -6.2766   -0.4714 H       1  UNL1        0.0276
     36 H          -4.7470   -3.3183    4.7647 H       1  UNL1        0.0342
     37 H          -6.1137   -2.1643    4.6335 H       1  UNL1        0.0342
     38 H          -6.3730   -3.7944    5.2880 H       1  UNL1        0.0342
     39 H          -1.5625    1.1847   -0.0523 H       1  UNL1        0.0257
     40 H          -1.7469    0.1969    1.4138 H       1  UNL1        0.0257
     41 H          -1.2464   -0.5259   -0.1312 H       1  UNL1        0.0257
     42 H          -4.6447    2.9357   -4.5915 H       1  UNL1        0.0535
     43 H          -5.5718    1.3623   -4.3039 H       1  UNL1        0.0535
     44 H          -3.7804    3.5544   -1.3033 H       1  UNL1        0.0275
     45 H          -2.4127    2.6279   -1.9619 H       1  UNL1        0.0275
     46 H          -3.2214    3.8549   -2.9428 H       1  UNL1        0.0275
@<TRIPOS>BOND
     1     1     2    1
     2     1     6    1
     3     2     3    2
     4     3     4    1
     5     4     5    1
     6     5     6    1
     7     8     7    1
     8     7     9    1
     9     8    11    1
    10     9    10    1
    11    10    11    1
    12     2    12    1
    13    13    14    1
    14    14    15    2
    15    14    16    1
    16    11    18    1
    17    18    19    2
    18    18    20    1
    19     3    22    1
    20     4    23    1
    21     4    24    1
    22     6    26    1
    23     6    27    1
    24     9    28    1
    25     9    29    1
    26    10    30    1
    27    10    31    1
    28    11    32    1
    29    12    33    1
    30    12    34    1
    31    12    35    1
    32    16    36    1
    33    16    37    1
    34    16    38    1
    35    17    39    1
    36    17    40    1
    37    17    41    1
    38    19    42    1
    39    19    43    1
    40    20    44    1
    41    20    45    1
    42    20    46    1
    43     1    21    1
    44     1    13    1
    45     5    25    1
    46     7     5    1
    47     7    17    1
@<TRIPOS>MOLECULE
mol_818_akc_journalpone0292946
*****
 50 53 0 0 0
SMALL
GASTEIGER

@<TRIPOS>ATOM
      1 O           4.8089    0.1879    0.1635 O.2     1  UNL1       -0.2741
      2 C           4.2375   -0.8798    0.4003 C.2     1  UNL1        0.2310
      3 N           4.8931   -2.0922    0.2440 N.am    1  UNL1       -0.3089
      4 C           6.2458   -2.1744   -0.2927 C.3     1  UNL1        0.0516
      5 C           7.2936   -1.5172    0.6225 C.3     1  UNL1       -0.0180
      6 N           7.2133   -2.1299    1.9923 N.4     1  UNL1        0.2259
      7 C           8.1614   -1.5401    2.9695 C.3     1  UNL1       -0.0448
      8 C           2.7962   -0.9818    0.9392 C.3     1  UNL1        0.0961
      9 N           2.6190   -0.3518    2.2600 N.am    1  UNL1       -0.2617
     10 C           1.6626    0.7285    2.3832 C.ar    1  UNL1        0.0473
     11 C           0.4805    0.6689    1.6178 C.ar    1  UNL1       -0.0213
     12 C          -0.4044    1.7479    1.5535 C.ar    1  UNL1        0.0428
     13 CL         -1.8092    1.6420    0.5673 Cl      1  UNL1       -0.0835
     14 C          -0.1514    2.9068    2.2700 C.ar    1  UNL1       -0.0427
     15 C           0.9681    2.9671    3.0970 C.ar    1  UNL1       -0.0495
     16 C           1.8743    1.8868    3.1829 C.ar    1  UNL1        0.0201
     17 C           2.9790    1.9812    4.1378 C.ar    1  UNL1        0.0529
     18 N           3.6325    3.1317    4.5087 N.ar    1  UNL1       -0.3539
     19 C           3.5274    0.9489    4.8756 C.ar    1  UNL1       -0.0056
     20 C           3.0841   -0.4545    4.7299 C.3     1  UNL1        0.0522
     21 C           3.3753   -0.9011    3.3034 C.2     1  UNL1        0.2246
     22 O           4.2444   -1.7549    3.0933 O.2     1  UNL1       -0.2749
     23 C           4.5339    1.4889    5.7209 C.ar    1  UNL1        0.0049
     24 C           4.5848    2.8588    5.4662 C.ar    1  UNL1        0.0473
     25 C           5.4730    3.7164    6.1253 C.ar    1  UNL1       -0.0368
     26 C           6.3304    3.1555    7.0784 C.ar    1  UNL1       -0.0466
     27 C           6.2943    1.7903    7.3520 C.ar    1  UNL1        0.0141
     28 I           7.5758    0.9889    8.7830 I       1  UNL1       -0.0438
     29 C           5.4060    0.9417    6.6825 C.ar    1  UNL1       -0.0392
     30 H           4.4606   -2.9232    0.6385 H       1  UNL1        0.1489
     31 H           6.4775   -3.2369   -0.4237 H       1  UNL1        0.0515
     32 H           6.2676   -1.6990   -1.2786 H       1  UNL1        0.0515
     33 H           8.3080   -1.6760    0.2423 H       1  UNL1        0.0829
     34 H           7.1155   -0.4454    0.7461 H       1  UNL1        0.0829
     35 H           6.2417   -1.9942    2.3431 H       1  UNL1        0.2011
     36 H           7.3551   -3.1439    1.9420 H       1  UNL1        0.2011
     37 H           7.9864   -0.4648    3.0163 H       1  UNL1        0.0777
     38 H           7.9681   -2.0073    3.9372 H       1  UNL1        0.0777
     39 H           9.1797   -1.7629    2.6361 H       1  UNL1        0.0777
     40 H           2.1756   -0.5039    0.1750 H       1  UNL1        0.0564
     41 H           2.4912   -2.0295    1.0190 H       1  UNL1        0.0564
     42 H           0.2114   -0.2371    1.0801 H       1  UNL1        0.0651
     43 H          -0.8279    3.7568    2.2071 H       1  UNL1        0.0632
     44 H           1.1111    3.8668    3.6930 H       1  UNL1        0.0625
     45 H           3.4489    4.0539    4.1372 H       1  UNL1        0.1659
     46 H           2.0165   -0.5683    4.9488 H       1  UNL1        0.0408
     47 H           3.6197   -1.1167    5.4182 H       1  UNL1        0.0408
     48 H           5.4956    4.7827    5.9192 H       1  UNL1        0.0639
     49 H           7.0198    3.8090    7.6096 H       1  UNL1        0.0629
     50 H           5.3710   -0.1194    6.9078 H       1  UNL1        0.0634
@<TRIPOS>UNITY_ATOM_ATTR
6 1
charge 1
@<TRIPOS>BOND
     1     1     2    2
     2     2     3   am
     3     3     4    1
     4     4     5    1
     5     5     6    1
     6     6     7    1
     7     2     8    1
     8     8     9    1
     9     9    10    1
    10    10    11   ar
    11    11    12   ar
    12    12    13    1
    13    12    14   ar
    14    14    15   ar
    15    15    16   ar
    16    10    16   ar
    17    16    17    1
    18    17    18   ar
    19    17    19   ar
    20    19    20    1
    21    20    21    1
    22     9    21   am
    23    21    22    2
    24    19    23   ar
    25    23    24   ar
    26    18    24   ar
    27    24    25   ar
    28    25    26   ar
    29    26    27   ar
    30    27    28    1
    31    27    29   ar
    32    23    29   ar
    33     3    30    1
    34     4    31    1
    35     4    32    1
    36     5    33    1
    37     5    34    1
    38     6    35    1
    39     6    36    1
    40     7    37    1
    41     7    38    1
    42     7    39    1
    43     8    40    1
    44     8    41    1
    45    11    42    1
    46    14    43    1
    47    15    44    1
    48    18    45    1
    49    20    46    1
    50    20    47    1
    51    25    48    1
    52    26    49    1
    53    29    50    1
@<TRIPOS>MOLECULE
mol_819_akc_s11696_023_03214_3
*****
 43 44 0 0 0
SMALL
GASTEIGER

@<TRIPOS>ATOM
      1 C           0.8344    0.0399    0.2792 C.ar    1  UNL1       -0.0074
      2 C           0.0714   -1.1222    0.1175 C.ar    1  UNL1        0.1658
      3 C          -1.3268   -1.0149   -0.1059 C.ar    1  UNL1        0.2035
      4 C          -1.9223    0.2661   -0.1786 C.ar    1  UNL1        0.1658
      5 C          -1.1293    1.4144   -0.0473 C.ar    1  UNL1       -0.0074
      6 C           0.2379    1.3010    0.1660 C.ar    1  UNL1        0.0017
      7 O           0.6129   -2.3753    0.0416 O.3     1  UNL1       -0.4913
      8 O          -2.1389   -2.0901   -0.3589 O.3     1  UNL1       -0.4885
      9 O          -3.2407    0.5890   -0.3849 O.3     1  UNL1       -0.4913
     10 C          -4.2014   -0.4446   -0.5207 C.3     1  UNL1        0.0790
     11 C          -1.8625   -3.3230    0.2989 C.3     1  UNL1        0.0791
     12 C           1.9107   -2.6800    0.5256 C.3     1  UNL1        0.0790
     13 C           1.1098    2.4924    0.1993 C.2     1  UNL1        0.0530
     14 N           0.7562    3.6561   -0.2578 N.2     1  UNL1       -0.1885
     15 N           1.7589    4.5896   -0.1818 N.am    1  UNL1       -0.2182
     16 C           1.5898    5.9181   -0.3591 C.2     1  UNL1        0.1542
     17 S           2.6421    6.9436    0.4567 S.2     1  UNL1       -0.0169
     18 N           0.6203    6.4897   -1.1063 N.am    1  UNL1       -0.2956
     19 C           0.1557    6.1825   -2.4043 C.ar    1  UNL1        0.0327
     20 H           0.5261    7.4716   -0.8740 H       1  UNL1        0.1539
     21 C           0.0373    4.8766   -4.4450 C.ar    1  UNL1       -0.0416
     22 C           0.4270    5.0089   -3.1033 C.ar    1  UNL1       -0.0391
     23 C          -0.5372    7.2148   -3.0653 C.ar    1  UNL1       -0.0391
     24 C          -0.9100    7.0926   -4.4090 C.ar    1  UNL1       -0.0416
     25 C          -0.6102    5.9253   -5.0955 C.ar    1  UNL1        0.0411
     26 CL         -1.0145    5.7866   -6.7617 Cl      1  UNL1       -0.0835
     27 H           1.9082   -0.0033    0.4141 H       1  UNL1        0.0662
     28 H          -1.5891    2.3977   -0.1338 H       1  UNL1        0.0662
     29 H          -4.0301   -1.0256   -1.4337 H       1  UNL1        0.0660
     30 H          -4.2409   -1.0765    0.3715 H       1  UNL1        0.0660
     31 H          -5.1829    0.0294   -0.6226 H       1  UNL1        0.0660
     32 H          -1.1849   -3.9317   -0.3057 H       1  UNL1        0.0660
     33 H          -1.4842   -3.1800    1.3172 H       1  UNL1        0.0660
     34 H          -2.8048   -3.8732    0.3735 H       1  UNL1        0.0660
     35 H           2.5349   -1.8311    0.8037 H       1  UNL1        0.0660
     36 H           1.8073   -3.3311    1.3989 H       1  UNL1        0.0660
     37 H           2.4324   -3.2465   -0.2522 H       1  UNL1        0.0660
     38 H           2.1227    2.3254    0.6125 H       1  UNL1        0.0851
     39 H           2.5564    4.3648    0.4046 H       1  UNL1        0.1762
     40 H           0.2637    3.9568   -4.9791 H       1  UNL1        0.0633
     41 H           0.9576    4.1843   -2.6439 H       1  UNL1        0.0636
     42 H          -0.7597    8.1479   -2.5539 H       1  UNL1        0.0636
     43 H          -1.4068    7.9201   -4.9074 H       1  UNL1        0.0633
@<TRIPOS>BOND
     1     1     2   ar
     2     2     3   ar
     3     3     4   ar
     4     4     5   ar
     5     5     6   ar
     6     1     6   ar
     7     2     7    1
     8     3     8    1
     9     4     9    1
    10     9    10    1
    11     8    11    1
    12     7    12    1
    13     6    13    1
    14    13    14    2
    15    14    15    1
    16    15    16    1
    17    16    17    2
    18    16    18    1
    19    18    19    1
    20    18    20    1
    21    21    22   ar
    22    23    24   ar
    23    24    25   ar
    24    21    25   ar
    25    22    19   ar
    26    19    23   ar
    27    25    26    1
    28     1    27    1
    29     5    28    1
    30    10    29    1
    31    10    30    1
    32    10    31    1
    33    11    32    1
    34    11    33    1
    35    11    34    1
    36    12    35    1
    37    12    36    1
    38    12    37    1
    39    13    38    1
    40    15    39    1
    41    21    40    1
    42    22    41    1
    43    23    42    1
    44    24    43    1
@<TRIPOS>MOLECULE
mol_81_akc_s11033_020_05887_5
>80.sdf
 44 46 0 0 0
SMALL
GASTEIGER

@<TRIPOS>ATOM
      1 C           2.7398    1.2569   -1.7686 C.3     1  UNL1       -0.0650
      2 C           2.3734    1.9129   -0.4444 C.3     1  UNL1       -0.0519
      3 C           3.0082    1.2238    0.7678 C.3     1  UNL1       -0.0278
      4 C           4.5199    1.2402    0.7782 C.ar    1  UNL1       -0.0431
      5 C           5.2296    0.0276    0.7660 C.ar    1  UNL1       -0.0131
      6 C           6.6274   -0.0032    0.7893 C.ar    1  UNL1        0.1631
      7 O           7.1490   -1.2674    0.7735 O.3     1  UNL1       -0.4914
      8 C           8.5624   -1.4282    0.7716 C.3     1  UNL1        0.0790
      9 C           7.3073    1.2157    0.8393 C.ar    1  UNL1        0.1805
     10 O           8.7068    1.2147    0.9433 O.2     1  UNL1       -0.4179
     11 C           9.4077    2.3518    1.2898 C.ar    1  UNL1        0.3483
     12 O          10.5320    2.2679    1.7656 O.2     1  UNL1       -0.2444
     13 C           8.7501    3.6410    0.9853 C.ar    1  UNL1        0.1072
     14 C           7.4168    3.6736    0.8286 C.ar    1  UNL1       -0.0332
     15 C           6.6326    2.4399    0.8401 C.ar    1  UNL1        0.0222
     16 C           5.2351    2.4480    0.8119 C.ar    1  UNL1       -0.0476
     17 C           9.4990    4.9327    0.9178 C.2     1  UNL1        0.2000
     18 O           8.9259    6.0060    1.1030 O.2     1  UNL1       -0.2864
     19 C          10.9611    4.9463    0.6168 C.ar    1  UNL1        0.0229
     20 C          11.5737    3.9977   -0.2178 C.ar    1  UNL1       -0.0445
     21 C          12.9616    3.9972   -0.3944 C.ar    1  UNL1        0.0163
     22 C          13.7358    4.9922    0.2127 C.ar    1  UNL1        0.2732
     23 C          13.1298    5.9886    0.9886 C.ar    1  UNL1        0.0163
     24 C          11.7440    5.9610    1.1886 C.ar    1  UNL1       -0.0445
     25 N          15.1905    4.9884    0.0315 N.pl3   1  UNL1        0.0796
     26 O          15.6871    4.0787   -0.6527 O.co2   1  UNL1       -0.5760
     27 O          15.8418    5.8966    0.5696 O.2     1  UNL1        0.0414
     28 H           2.2399    1.7735   -2.5939 H       1  UNL1        0.0230
     29 H           3.8173    1.3013   -1.9540 H       1  UNL1        0.0230
     30 H           2.4291    0.2076   -1.7866 H       1  UNL1        0.0230
     31 H           2.6547    2.9711   -0.4758 H       1  UNL1        0.0266
     32 H           1.2828    1.8816   -0.3299 H       1  UNL1        0.0266
     33 H           2.6565    1.7115    1.6858 H       1  UNL1        0.0313
     34 H           2.6432    0.1898    0.8197 H       1  UNL1        0.0313
     35 H           4.6897   -0.9182    0.7437 H       1  UNL1        0.0658
     36 H           9.0159   -0.9664   -0.1122 H       1  UNL1        0.0660
     37 H           9.0039   -1.0539    1.7011 H       1  UNL1        0.0660
     38 H           8.7791   -2.4992    0.7222 H       1  UNL1        0.0660
     39 H           6.8878    4.6097    0.6651 H       1  UNL1        0.0634
     40 H           4.6936    3.3922    0.8232 H       1  UNL1        0.0627
     41 H          10.9991    3.2199   -0.7125 H       1  UNL1        0.0627
     42 H          13.4184    3.2103   -0.9909 H       1  UNL1        0.0685
     43 H          13.7160    6.7798    1.4534 H       1  UNL1        0.0685
     44 H          11.2789    6.7279    1.8074 H       1  UNL1        0.0627
@<TRIPOS>UNITY_ATOM_ATTR
25 1
charge 1
26 1
charge -1
@<TRIPOS>BOND
     1     1    28    1
     2     1    29    1
     3     1    30    1
     4     2     1    1
     5     2    31    1
     6     2    32    1
     7     3     2    1
     8     3    33    1
     9     3    34    1
    10     4     3    1
    11     5     4   ar
    12     5    35    1
    13     6     5   ar
    14     7     6    1
    15     8     7    1
    16     8    36    1
    17     8    37    1
    18     8    38    1
    19     9     6   ar
    20    10     9   ar
    21    11    10   ar
    22    12    11    2
    23    13    11   ar
    24    14    13   ar
    25    14    39    1
    26    15    14   ar
    27    15     9   ar
    28    16    15   ar
    29    16     4   ar
    30    16    40    1
    31    17    13    1
    32    18    17    2
    33    19    17    1
    34    20    19   ar
    35    20    41    1
    36    21    20   ar
    37    21    42    1
    38    22    21   ar
    39    23    22   ar
    40    23    43    1
    41    24    23   ar
    42    24    19   ar
    43    24    44    1
    44    25    22    1
    45    26    25    1
    46    27    25    2
@<TRIPOS>MOLECULE
mol_820_akc_s11686_023_00746_2
5452
 51 54 0 0 0
SMALL
GASTEIGER

@<TRIPOS>ATOM
      1 S          -5.5201   -4.5798    1.9301 S.3     1  UNL1       -0.0857
      2 S          -9.9111   -1.2775    5.1800 S.3     1  UNL1       -0.1285
      3 N          -2.3441   -2.3981    5.0023 N.3     1  UNL1       -0.3023
      4 N          -5.3878   -1.6210    2.6589 N.pl3   1  UNL1       -0.2982
      5 C          -3.7945   -2.2864    5.3184 C.3     1  UNL1        0.0116
      6 C          -4.0386   -2.4017    6.8562 C.3     1  UNL1       -0.0373
      7 C          -4.4516   -0.9262    4.9164 C.3     1  UNL1       -0.0212
      8 C          -3.3512   -3.5856    7.5175 C.3     1  UNL1       -0.0505
      9 C          -1.7111   -3.5644    5.6590 C.3     1  UNL1       -0.0011
     10 C          -1.8789   -3.5696    7.1703 C.3     1  UNL1       -0.0402
     11 C          -4.7296   -0.5647    3.4441 C.3     1  UNL1        0.0188
     12 C          -2.1028   -2.5621    3.5614 C.3     1  UNL1       -0.0125
     13 C          -6.5220   -2.2883    3.1738 C.ar    1  UNL1        0.0489
     14 C          -4.9084   -1.9151    1.3659 C.ar    1  UNL1        0.0479
     15 C          -6.7188   -3.6554    2.8930 C.ar    1  UNL1        0.0342
     16 C          -4.9121   -3.2468    0.8945 C.ar    1  UNL1        0.0341
     17 C          -7.5205   -1.6037    3.8854 C.ar    1  UNL1       -0.0258
     18 C          -4.5343   -0.8998    0.4718 C.ar    1  UNL1       -0.0393
     19 C          -7.8547   -4.3181    3.3658 C.ar    1  UNL1       -0.0451
     20 C          -4.4736   -3.5489   -0.3998 C.ar    1  UNL1       -0.0462
     21 C          -8.6836   -2.2496    4.3192 C.ar    1  UNL1        0.0094
     22 C          -4.1543   -1.2002   -0.8404 C.ar    1  UNL1       -0.0599
     23 C          -8.8301   -3.6169    4.0774 C.ar    1  UNL1       -0.0472
     24 C          -4.1025   -2.5242   -1.2687 C.ar    1  UNL1       -0.0606
     25 C         -11.4501   -1.9772    4.5221 C.3     1  UNL1       -0.0135
     26 H          -4.3337   -3.1178    4.8490 H       1  UNL1        0.0463
     27 H          -3.6949   -1.4839    7.3529 H       1  UNL1        0.0280
     28 H          -5.1161   -2.4787    7.0513 H       1  UNL1        0.0280
     29 H          -3.8435   -0.1143    5.3399 H       1  UNL1        0.0296
     30 H          -5.4092   -0.8513    5.4487 H       1  UNL1        0.0296
     31 H          -3.4809   -3.5372    8.6042 H       1  UNL1        0.0266
     32 H          -3.8090   -4.5232    7.1797 H       1  UNL1        0.0266
     33 H          -2.1145   -4.5018    5.2520 H       1  UNL1        0.0426
     34 H          -0.6345   -3.5583    5.4472 H       1  UNL1        0.0426
     35 H          -1.3941   -2.6875    7.6069 H       1  UNL1        0.0278
     36 H          -1.3849   -4.4510    7.5967 H       1  UNL1        0.0278
     37 H          -3.7860   -0.2540    2.9869 H       1  UNL1        0.0468
     38 H          -5.3531    0.3385    3.4174 H       1  UNL1        0.0468
     39 H          -1.0343   -2.7110    3.3643 H       1  UNL1        0.0391
     40 H          -2.6400   -3.4234    3.1498 H       1  UNL1        0.0391
     41 H          -2.3644   -1.6713    2.9972 H       1  UNL1        0.0391
     42 H          -7.4207   -0.5339    4.0562 H       1  UNL1        0.0647
     43 H          -4.6060    0.1445    0.7644 H       1  UNL1        0.0636
     44 H          -7.9947   -5.3795    3.1709 H       1  UNL1        0.0630
     45 H          -4.4486   -4.5790   -0.7467 H       1  UNL1        0.0629
     46 H          -3.9190   -0.3967   -1.5345 H       1  UNL1        0.0618
     47 H          -9.7006   -4.1595    4.4321 H       1  UNL1        0.0629
     48 H          -3.8018   -2.7579   -2.2868 H       1  UNL1        0.0618
     49 H         -11.4330   -2.0045    3.4291 H       1  UNL1        0.0344
     50 H         -11.6126   -2.9840    4.9142 H       1  UNL1        0.0344
     51 H         -12.2890   -1.3512    4.8389 H       1  UNL1        0.0344
@<TRIPOS>BOND
     1     1    15    1
     2     1    16    1
     3     2    21    1
     4     2    25    1
     5     3     5    1
     6     3     9    1
     7     3    12    1
     8     4    11    1
     9     4    13    1
    10     4    14    1
    11     5     6    1
    12     6     8    1
    13     6    27    1
    14     6    28    1
    15     7    11    1
    16     7    29    1
    17     7    30    1
    18     8    10    1
    19     8    31    1
    20     8    32    1
    21     9    10    1
    22     9    33    1
    23     9    34    1
    24    10    35    1
    25    10    36    1
    26    11    37    1
    27    11    38    1
    28    12    39    1
    29    12    40    1
    30    12    41    1
    31    13    15   ar
    32    13    17   ar
    33    14    16   ar
    34    14    18   ar
    35    15    19   ar
    36    16    20   ar
    37    17    21   ar
    38    17    42    1
    39    18    22   ar
    40    18    43    1
    41    19    23   ar
    42    19    44    1
    43    20    24   ar
    44    20    45    1
    45    21    23   ar
    46    22    24   ar
    47    22    46    1
    48    23    47    1
    49    24    48    1
    50    25    49    1
    51    25    50    1
    52    25    51    1
    53     5    26    1
    54     5     7    1
@<TRIPOS>MOLECULE
mol_821_akc_s11686_023_00746_2
163184355
 65 70 0 0 0
SMALL
GASTEIGER

@<TRIPOS>ATOM
      1 O           0.6722   -0.2829   -4.4264 O.3     1  UNL1       -0.2891
      2 O           2.1326   -0.0659   -2.5867 O.3     1  UNL1       -0.3193
      3 O           3.9658    1.3752   -3.1148 O.3     1  UNL1       -0.3404
      4 O          -3.1119   -1.4753   -4.2537 O.co2   1  UNL1       -0.5492
      5 O          -3.1314   -1.0375   -2.0176 O.co2   1  UNL1       -0.5492
      6 O           3.9117   -1.6475   -0.9896 O.3     1  UNL1       -0.3841
      7 O           5.8959    0.0716    0.3041 O.3     1  UNL1       -0.3864
      8 O           7.3535    1.6206   -1.6913 O.3     1  UNL1       -0.3865
      9 O           5.1361    3.9233   -3.2546 O.3     1  UNL1       -0.3924
     10 N           0.0462   -1.9040   -2.8205 N.ar    1  UNL1       -0.1710
     11 N          -0.0192   -2.8945    0.7084 N.ar    1  UNL1       -0.3493
     12 C          -0.9015    0.7341   -2.2074 C.3     1  UNL1       -0.0040
     13 C          -1.5091   -0.0217   -3.3769 C.3     1  UNL1        0.0921
     14 C           0.3524    1.5169   -2.7262 C.3     1  UNL1        0.0326
     15 C          -0.4568   -0.9806   -3.8752 C.3     1  UNL1        0.2762
     16 C          -0.5878   -0.2629   -1.0577 C.3     1  UNL1        0.0391
     17 C           1.3293    0.6203   -3.5348 C.3     1  UNL1        0.1753
     18 C          -0.1286   -1.6361   -1.5040 C.ar    1  UNL1        0.2104
     19 C           0.2535   -2.6640   -0.6247 C.ar    1  UNL1        0.1154
     20 C          -2.7201   -0.9159   -3.1974 C.2     1  UNL1        0.0541
     21 C          -0.0316    2.7023   -3.5968 C.2     1  UNL1       -0.0830
     22 C           0.7479   -2.9699   -3.2584 C.ar    1  UNL1        0.1746
     23 C           3.5573    0.0677   -2.7037 C.3     1  UNL1        0.1908
     24 C           1.0629   -3.7271   -1.0391 C.ar    1  UNL1        0.0191
     25 C           4.0952   -0.2518   -1.2875 C.3     1  UNL1        0.1342
     26 C           1.3479   -3.8595   -2.3940 C.ar    1  UNL1        0.0119
     27 C           5.5738    0.1030   -1.1005 C.3     1  UNL1        0.1141
     28 C           5.9348    1.4600   -1.7122 C.3     1  UNL1        0.1119
     29 C           5.4029    1.5014   -3.1482 C.3     1  UNL1        0.1130
     30 C           1.4536   -4.4577    0.1165 C.ar    1  UNL1        0.0078
     31 C           0.6511   -4.0181    1.1650 C.ar    1  UNL1        0.0476
     32 C           0.3817    3.9585   -3.3834 C.2     1  UNL1       -0.1022
     33 C           5.7855    2.8051   -3.8516 C.3     1  UNL1        0.0730
     34 C           2.3751   -5.5007    0.3421 C.ar    1  UNL1       -0.0520
     35 C           0.6186   -4.6803    2.3969 C.ar    1  UNL1       -0.0378
     36 C           2.4052   -6.1250    1.5900 C.ar    1  UNL1       -0.0611
     37 C           1.5066   -5.7494    2.5856 C.ar    1  UNL1       -0.0598
     38 H          -1.6203    1.4650   -1.8138 H       1  UNL1        0.0322
     39 H          -1.7788    0.6856   -4.1705 H       1  UNL1        0.0456
     40 H           0.8873    1.9048   -1.8481 H       1  UNL1        0.0395
     41 H          -0.8305   -1.6200   -4.6840 H       1  UNL1        0.1422
     42 H          -1.4716   -0.3874   -0.4201 H       1  UNL1        0.0376
     43 H           0.1815    0.1660   -0.4043 H       1  UNL1        0.0376
     44 H           1.9555    1.2407   -4.1829 H       1  UNL1        0.0919
     45 H          -0.6433    2.5131   -4.4776 H       1  UNL1        0.0571
     46 H           0.8705   -3.0647   -4.3343 H       1  UNL1        0.1377
     47 H           3.8964   -0.6750   -3.4377 H       1  UNL1        0.0938
     48 H           3.4957    0.2939   -0.5472 H       1  UNL1        0.0671
     49 H           1.9661   -4.6715   -2.7675 H       1  UNL1        0.0683
     50 H           6.1981   -0.6810   -1.5449 H       1  UNL1        0.0648
     51 H          -0.6800   -2.3678    1.2636 H       1  UNL1        0.1661
     52 H           5.4958    2.2687   -1.1146 H       1  UNL1        0.0647
     53 H           5.8325    0.6784   -3.7358 H       1  UNL1        0.0647
     54 H           0.0959    4.7536   -4.0671 H       1  UNL1        0.0532
     55 H           1.0157    4.2254   -2.5443 H       1  UNL1        0.0532
     56 H           6.8624    2.9745   -3.8395 H       1  UNL1        0.0584
     57 H           5.4659    2.7727   -4.9088 H       1  UNL1        0.0584
     58 H           3.0561   -5.8140   -0.4424 H       1  UNL1        0.0624
     59 H           4.3178   -1.7951   -0.1102 H       1  UNL1        0.2101
     60 H          -0.0731   -4.3950    3.1844 H       1  UNL1        0.0638
     61 H           5.7583    0.9586    0.6824 H       1  UNL1        0.2100
     62 H           7.6334    1.6701   -0.7589 H       1  UNL1        0.2100
     63 H           3.1172   -6.9275    1.7709 H       1  UNL1        0.0618
     64 H           1.5036   -6.2922    3.5290 H       1  UNL1        0.0618
     65 H           4.1798    3.7810   -3.3857 H       1  UNL1        0.2095
@<TRIPOS>UNITY_ATOM_ATTR
4 1
charge -1
10 1
charge 1
@<TRIPOS>BOND
     1     1    15    1
     2     1    17    1
     3     3    23    1
     4     3    29    1
     5     4    20   ar
     6     5    20   ar
     7     6    59    1
     8     7    27    1
     9     7    61    1
    10     8    62    1
    11     9    33    1
    12     9    65    1
    13    10    15    1
    14    10    18   ar
    15    10    22   ar
    16    11    19   ar
    17    11    31   ar
    18    11    51    1
    19    12    13    1
    20    12    14    1
    21    12    16    1
    22    12    38    1
    23    13    15    1
    24    13    20    1
    25    13    39    1
    26    14    17    1
    27    14    21    1
    28    14    40    1
    29    15    41    1
    30    16    18    1
    31    16    42    1
    32    16    43    1
    33    18    19   ar
    34    19    24   ar
    35    21    32    2
    36    21    45    1
    37    22    26   ar
    38    22    46    1
    39    23    25    1
    40    24    26   ar
    41    24    30   ar
    42    25    27    1
    43    26    49    1
    44    27    28    1
    45    27    50    1
    46    28    29    1
    47    30    31   ar
    48    30    34   ar
    49    31    35   ar
    50    32    54    1
    51    32    55    1
    52    33    56    1
    53    33    57    1
    54    34    36   ar
    55    34    58    1
    56    35    37   ar
    57    35    60    1
    58    36    37   ar
    59    36    63    1
    60    37    64    1
    61    17    44    1
    62    17     2    1
    63    23    47    1
    64    23     2    1
    65    25    48    1
    66    25     6    1
    67    28    52    1
    68    28     8    1
    69    29    53    1
    70    29    33    1
@<TRIPOS>MOLECULE
mol_822_akc_0074_02760170217
*****
 48 49 0 0 0
SMALL
GASTEIGER

@<TRIPOS>ATOM
      1 C           3.0381    1.8329    0.8581 C.3     1  UNL1       -0.0624
      2 C           2.7573    3.3404    0.6693 C.3     1  UNL1       -0.0433
      3 C           3.3493    4.1282    1.8261 C.3     1  UNL1       -0.0624
      4 C           1.2523    3.5547    0.4234 C.3     1  UNL1       -0.0314
      5 C           0.3380    3.1383    1.5888 C.3     1  UNL1       -0.0457
      6 C          -1.0138    2.7489    1.0043 C.3     1  UNL1       -0.0095
      7 C          -1.6103    3.7017   -0.0926 C.3     1  UNL1        0.1497
      8 C          -2.3299    2.8033   -1.1469 C.3     1  UNL1        0.0848
      9 O          -1.3631    2.0002   -1.8359 O.3     1  UNL1       -0.3911
     10 O          -2.5049    4.6432    0.5764 O.3     1  UNL1       -0.4551
     11 C          -3.6615    4.2431    1.1545 C.2     1  UNL1        0.3046
     12 C          -4.3832    5.4231    1.7334 C.3     1  UNL1        0.0333
     13 O          -4.0862    3.0954    1.2007 O.2     1  UNL1       -0.2511
     14 C          -0.5683    4.6218   -0.8542 C.3     1  UNL1        0.1047
     15 C           0.6748    4.9377    0.0030 C.3     1  UNL1       -0.0023
     16 C           1.5540    5.9958   -0.6110 C.2     1  UNL1       -0.0665
     17 C           1.0932    7.2685   -0.6218 C.2     1  UNL1        0.0698
     18 C          -0.3004    7.5832   -0.1492 C.3     1  UNL1        0.1239
     19 O          -1.2862    7.0275   -1.0433 O.3     1  UNL1       -0.4593
     20 C          -1.3049    5.7748   -1.5418 C.2     1  UNL1        0.3150
     21 O          -2.0063    5.5505   -2.5300 O.2     1  UNL1       -0.2504
     22 C           1.8936    8.4348   -1.0575 C.2     1  UNL1        0.3358
     23 O           2.9460    8.1027   -1.8116 O.3     1  UNL1       -0.4773
     24 O           1.6462    9.5994   -0.7875 O.2     1  UNL1       -0.2454
     25 H           2.5622    1.4299    1.7576 H       1  UNL1        0.0232
     26 H           2.6625    1.2571    0.0034 H       1  UNL1        0.0232
     27 H           4.1100    1.6354    0.9459 H       1  UNL1        0.0232
     28 H           3.2873    3.6347   -0.2456 H       1  UNL1        0.0298
     29 H           2.9444    3.8022    2.7882 H       1  UNL1        0.0232
     30 H           3.1689    5.1999    1.7141 H       1  UNL1        0.0232
     31 H           4.4354    3.9784    1.8548 H       1  UNL1        0.0232
     32 H           1.0532    2.8588   -0.4063 H       1  UNL1        0.0309
     33 H           0.7256    2.2990    2.1694 H       1  UNL1        0.0269
     34 H           0.2131    3.9510    2.3184 H       1  UNL1        0.0269
     35 H          -1.7090    2.6257    1.8420 H       1  UNL1        0.0305
     36 H          -0.8784    1.7430    0.5871 H       1  UNL1        0.0305
     37 H          -2.8851    3.3905   -1.8809 H       1  UNL1        0.0597
     38 H          -3.0410    2.1157   -0.6822 H       1  UNL1        0.0597
     39 H          -1.8259    1.5581   -2.5688 H       1  UNL1        0.2096
     40 H          -3.7137    6.2857    1.8085 H       1  UNL1        0.0342
     41 H          -5.2299    5.6812    1.0932 H       1  UNL1        0.0342
     42 H          -4.7252    5.1771    2.7422 H       1  UNL1        0.0342
     43 H          -0.1598    4.0659   -1.7138 H       1  UNL1        0.0460
     44 H           0.3316    5.4012    0.9351 H       1  UNL1        0.0355
     45 H           2.5502    5.7506   -0.9674 H       1  UNL1        0.0581
     46 H          -0.5095    7.2467    0.8710 H       1  UNL1        0.0751
     47 H          -0.4904    8.6604   -0.1321 H       1  UNL1        0.0751
     48 H           3.3444    8.9689   -2.0379 H       1  UNL1        0.2954
@<TRIPOS>BOND
     1     1     2    1
     2     2     3    1
     3     4     5    1
     4     5     6    1
     5     6     7    1
     6     8     9    1
     7    10    11    1
     8    11    12    1
     9    11    13    2
    10     7    14    1
    11    14    15    1
    12     4    15    1
    13    15    16    1
    14    16    17    2
    15    17    18    1
    16    18    19    1
    17    19    20    1
    18    14    20    1
    19    20    21    2
    20    17    22    1
    21    22    23    1
    22    22    24    2
    23     1    25    1
    24     1    26    1
    25     1    27    1
    26     2    28    1
    27     3    29    1
    28     3    30    1
    29     3    31    1
    30     5    33    1
    31     5    34    1
    32     6    35    1
    33     6    36    1
    34     8    37    1
    35     8    38    1
    36     9    39    1
    37    12    40    1
    38    12    41    1
    39    12    42    1
    40    14    43    1
    41    15    44    1
    42    16    45    1
    43    18    46    1
    44    18    47    1
    45    23    48    1
    46     4    32    1
    47     4     2    1
    48     7    10    1
    49     7     8    1
@<TRIPOS>MOLECULE
mol_823_akc_scitranslmedadh9902
*****
 36 39 0 0 0
SMALL
GASTEIGER

@<TRIPOS>ATOM
      1 N           2.5056    0.0856   -4.3295 N.1     1  UNL1       -0.1907
      2 C           3.3362    0.1404   -3.5222 C.1     1  UNL1        0.1030
      3 C           4.3886    0.1941   -2.5531 C.ar    1  UNL1        0.0971
      4 C           5.5483   -0.5840   -2.7052 C.ar    1  UNL1       -0.0400
      5 C           6.6106   -0.4902   -1.7819 C.ar    1  UNL1       -0.0490
      6 C           6.5286    0.3944   -0.7035 C.ar    1  UNL1        0.0300
      7 C           7.6637    0.6879    0.1570 C.ar    1  UNL1        0.0170
      8 C           7.6258    0.5402    1.5381 C.ar    1  UNL1        0.0231
      9 C           6.7007   -0.1973    2.4381 C.3     1  UNL1       -0.0238
     10 N           8.6085    1.3568    2.0537 N.ar    1  UNL1       -0.3425
     11 C           9.2407    2.0259    1.0432 C.ar    1  UNL1        0.1443
     12 N          10.1234    3.0191    1.2183 N.ar    1  UNL1       -0.1968
     13 C          10.5488    3.5261    0.0565 C.ar    1  UNL1        0.2147
     14 N          11.3168    4.6708    0.1071 N.pl3   1  UNL1       -0.3274
     15 N          10.3113    3.0247   -1.1647 N.ar    1  UNL1       -0.2192
     16 C           9.4385    1.9915   -1.3068 C.ar    1  UNL1        0.0531
     17 C           9.2875    1.4117   -2.6784 C.3     1  UNL1       -0.0215
     18 C           8.7866    1.5167   -0.1603 C.ar    1  UNL1        0.0479
     19 C           5.3528    1.1287   -0.5608 C.ar    1  UNL1        0.1752
     20 C           4.3135    1.0321   -1.4580 C.ar    1  UNL1        0.1841
     21 O           3.2839    1.8684   -1.1436 O.3     1  UNL1       -0.4513
     22 C           3.7823    2.4989    0.0517 C.3     1  UNL1        0.2333
     23 O           5.0949    2.0468    0.4180 O.3     1  UNL1       -0.4519
     24 H           5.6479   -1.2505   -3.5612 H       1  UNL1        0.0632
     25 H           7.5082   -1.0841   -1.9398 H       1  UNL1        0.0625
     26 H           6.0057    0.4923    2.9272 H       1  UNL1        0.0292
     27 H           7.2636   -0.7288    3.2125 H       1  UNL1        0.0292
     28 H           6.1179   -0.9401    1.8857 H       1  UNL1        0.0292
     29 H           8.7762    1.5426    3.0319 H       1  UNL1        0.1670
     30 H          11.8821    4.7422   -0.7261 H       1  UNL1        0.1452
     31 H          11.7660    4.7587    1.0053 H       1  UNL1        0.1452
     32 H           9.4280    0.3262   -2.6384 H       1  UNL1        0.0293
     33 H           8.3031    1.6373   -3.0928 H       1  UNL1        0.0293
     34 H          10.0520    1.8105   -3.3527 H       1  UNL1        0.0293
     35 H           3.0937    2.2847    0.8773 H       1  UNL1        0.1166
     36 H           3.8158    3.5832   -0.1047 H       1  UNL1        0.1166
@<TRIPOS>BOND
     1     1     2    3
     2     2     3    1
     3     3     4   ar
     4     4     5   ar
     5     5     6   ar
     6     6     7    1
     7     7     8   ar
     8     8     9    1
     9     8    10   ar
    10    10    11   ar
    11    11    12   ar
    12    12    13   ar
    13    13    14    1
    14    13    15   ar
    15    15    16   ar
    16    16    17    1
    17    16    18   ar
    18    11    18   ar
    19     7    18   ar
    20     6    19   ar
    21    19    20   ar
    22     3    20   ar
    23    20    21    1
    24    21    22    1
    25    22    23    1
    26    19    23    1
    27     4    24    1
    28     5    25    1
    29     9    26    1
    30     9    27    1
    31     9    28    1
    32    10    29    1
    33    14    30    1
    34    14    31    1
    35    17    32    1
    36    17    33    1
    37    17    34    1
    38    22    35    1
    39    22    36    1
@<TRIPOS>MOLECULE
mol_824_akc_molecules29010074
*****
 58 63 0 0 0
SMALL
GASTEIGER

@<TRIPOS>ATOM
      1 C           1.9422   -0.5640   -0.1391 C.ar    1  UNL1        0.1609
      2 N           2.7776   -1.5930   -0.2785 N.ar    1  UNL1       -0.2354
      3 C           4.1088   -1.3812   -0.2221 C.ar    1  UNL1        0.0329
      4 C           4.6759   -0.1487    0.0110 C.ar    1  UNL1       -0.0316
      5 C           3.7946    0.9090    0.2228 C.ar    1  UNL1       -0.0461
      6 C           2.3878    0.7538    0.0906 C.ar    1  UNL1        0.0275
      7 C          -0.2772    0.1090   -0.1285 C.ar    1  UNL1        0.0805
      8 N           0.6547   -0.8622   -0.2243 N.ar    1  UNL1       -0.2269
      9 C           1.4134    1.8105    0.1632 C.ar    1  UNL1       -0.0004
     10 C           0.0440    1.4564    0.0283 C.ar    1  UNL1        0.0060
     11 C          -2.7194    0.5927   -0.2877 C.ar    1  UNL1        0.0608
     12 C          -1.6812   -0.3445   -0.1417 C.ar    1  UNL1        0.0234
     13 C          -1.0981    2.4430    0.1152 C.3     1  UNL1        0.0626
     14 N          -2.3852    1.9794   -0.4396 N.pl3   1  UNL1       -0.1980
     15 C          -2.0261   -1.6967    0.0582 C.ar    1  UNL1       -0.0507
     16 C          -3.3594   -2.0970    0.1641 C.ar    1  UNL1       -0.0610
     17 C          -4.3724   -1.1517    0.0725 C.ar    1  UNL1       -0.0599
     18 C          -4.0540    0.1871   -0.1519 C.ar    1  UNL1       -0.0384
     19 C           6.1573    0.0388    0.0103 C.3     1  UNL1       -0.0383
     20 S          -3.1542    2.9908   -1.5590 S.O2    1  UNL1        0.0750
     21 C           1.8278    3.2412    0.3472 C.ar    1  UNL1       -0.0168
     22 C           2.8482    3.8188   -0.4348 C.ar    1  UNL1       -0.0540
     23 C           1.2201    4.0808    1.3001 C.ar    1  UNL1       -0.0540
     24 C           1.5808    5.4262    1.4375 C.ar    1  UNL1       -0.0612
     25 C           2.6277    5.9469    0.6874 C.ar    1  UNL1       -0.0617
     26 C           3.2769    5.1365   -0.2352 C.ar    1  UNL1       -0.0612
     27 O          -4.3840    2.4155   -2.0470 O.2     1  UNL1       -0.1498
     28 O          -3.1562    4.3203   -0.9857 O.2     1  UNL1       -0.1498
     29 C          -2.0236    3.0133   -2.9326 C.ar    1  UNL1        0.1087
     30 C          -0.7877    1.8457   -4.6389 C.ar    1  UNL1       -0.0570
     31 C          -1.7307    1.8300   -3.6095 C.ar    1  UNL1       -0.0348
     32 C          -1.4281    4.2197   -3.3129 C.ar    1  UNL1       -0.0348
     33 C          -0.4899    4.2290   -4.3454 C.ar    1  UNL1       -0.0570
     34 C          -0.1416    3.0381   -4.9962 C.ar    1  UNL1       -0.0503
     35 C           0.9108    3.0561   -6.0655 C.3     1  UNL1       -0.0397
     36 H           4.7156   -2.2683   -0.3806 H       1  UNL1        0.0833
     37 H           4.2202    1.8749    0.4757 H       1  UNL1        0.0628
     38 H          -0.8031    3.3754   -0.3750 H       1  UNL1        0.0533
     39 H          -1.2875    2.6612    1.1734 H       1  UNL1        0.0533
     40 H          -1.2448   -2.4482    0.1669 H       1  UNL1        0.0625
     41 H          -3.6002   -3.1424    0.3437 H       1  UNL1        0.0618
     42 H          -5.4115   -1.4497    0.1883 H       1  UNL1        0.0618
     43 H          -4.8644    0.9110   -0.1837 H       1  UNL1        0.0637
     44 H           6.6163   -0.4920    0.8519 H       1  UNL1        0.0278
     45 H           6.5822   -0.3380   -0.9260 H       1  UNL1        0.0278
     46 H           6.4262    1.0970    0.0854 H       1  UNL1        0.0278
     47 H           3.3513    3.2358   -1.2049 H       1  UNL1        0.0624
     48 H           0.4406    3.7076    1.9585 H       1  UNL1        0.0624
     49 H           1.0483    6.0611    2.1416 H       1  UNL1        0.0618
     50 H           2.9357    6.9805    0.8226 H       1  UNL1        0.0618
     51 H           4.1142    5.5284   -0.8075 H       1  UNL1        0.0618
     52 H          -0.5510    0.9165   -5.1558 H       1  UNL1        0.0621
     53 H          -2.2221    0.8968   -3.3402 H       1  UNL1        0.0637
     54 H          -1.6775    5.1523   -2.8115 H       1  UNL1        0.0637
     55 H          -0.0221    5.1695   -4.6337 H       1  UNL1        0.0621
     56 H           0.5534    3.5999   -6.9449 H       1  UNL1        0.0278
     57 H           1.8180    3.5401   -5.6874 H       1  UNL1        0.0278
     58 H           1.1854    2.0421   -6.3736 H       1  UNL1        0.0278
@<TRIPOS>BOND
     1     1     2   ar
     2     2     3   ar
     3     3     4   ar
     4     4     5   ar
     5     5     6   ar
     6     8     1   ar
     7     1     6   ar
     8     6     9   ar
     9     7     8   ar
    10     9    10   ar
    11    12     7    1
    12     7    10   ar
    13    10    13    1
    14    13    14    1
    15    11    14    1
    16    12    15   ar
    17    11    12   ar
    18    11    18   ar
    19    15    16   ar
    20    16    17   ar
    21    17    18   ar
    22     4    19    1
    23    14    20    1
    24     9    21    1
    25    22    21   ar
    26    21    23   ar
    27    23    24   ar
    28    24    25   ar
    29    25    26   ar
    30    22    26   ar
    31    20    27    2
    32    20    28    2
    33    20    29    1
    34    31    29   ar
    35    29    32   ar
    36    30    31   ar
    37    32    33   ar
    38    33    34   ar
    39    30    34   ar
    40    34    35    1
    41     3    36    1
    42     5    37    1
    43    13    38    1
    44    13    39    1
    45    15    40    1
    46    16    41    1
    47    17    42    1
    48    18    43    1
    49    19    44    1
    50    19    45    1
    51    19    46    1
    52    22    47    1
    53    23    48    1
    54    24    49    1
    55    25    50    1
    56    26    51    1
    57    30    52    1
    58    31    53    1
    59    32    54    1
    60    33    55    1
    61    35    56    1
    62    35    57    1
    63    35    58    1
@<TRIPOS>MOLECULE
mol_825_akc_preprints2023121664v1
*****
 43 46 0 0 0
SMALL
GASTEIGER

@<TRIPOS>ATOM
      1 C          -0.9619    1.4295   -0.0633 C.ar    1  UNL1        0.0000
      2 C          -2.1427    0.6737   -0.0838 C.ar    1  UNL1        0.0000
      3 C          -2.0720   -0.7380   -0.1118 C.ar    1  UNL1        0.0000
      4 C          -0.8142   -1.3725   -0.1549 C.ar    1  UNL1        0.0000
      5 C           0.3250   -0.5651   -0.1443 C.ar    1  UNL1        0.0000
      6 N           0.2256    0.7725   -0.0810 N.ar    1  UNL1        0.0000
      7 N           1.6011   -0.9947   -0.1642 N.ar    1  UNL1        0.0000
      8 C           2.3404    0.1381   -0.0594 C.ar    1  UNL1        0.0000
      9 C           1.4825    1.2464   -0.0170 C.ar    1  UNL1        0.0000
     10 C          -3.3248   -1.5642   -0.0801 C.3     1  UNL1        0.0000
     11 SE          1.9325    3.1259    0.1372 Se      1  UNL1        0.0000
     12 C           2.3578    3.5533   -1.7136 C.ar    1  UNL1        0.0000
     13 C           3.8231    0.1189    0.0176 C.ar    1  UNL1        0.0000
     14 C           4.5389   -0.9255   -0.5964 C.ar    1  UNL1        0.0000
     15 C           4.5400    1.1149    0.7094 C.ar    1  UNL1        0.0000
     16 C           5.9335    1.0736    0.7734 C.ar    1  UNL1        0.0000
     17 C           6.6332    0.0478    0.1385 C.ar    1  UNL1        0.0000
     18 C           5.9371   -0.9520   -0.5463 C.ar    1  UNL1        0.0000
     19 C           2.6092    5.2602   -3.4350 C.ar    1  UNL1        0.0000
     20 C           2.9874    4.2819   -4.3542 C.ar    1  UNL1        0.0000
     21 C           3.0598    2.9448   -3.9622 C.ar    1  UNL1        0.0000
     22 C           2.7489    2.5785   -2.6477 C.ar    1  UNL1        0.0000
     23 C           2.2935    4.9056   -2.1065 C.ar    1  UNL1        0.0000
     24 O           1.9350    5.8340   -1.1801 O.3     1  UNL1        0.0000
     25 C           1.8328    7.1931   -1.3905 C.3     1  UNL1        0.0000
     26 H          -1.0029    2.5109   -0.0244 H       1  UNL1        0.0000
     27 H          -3.0994    1.1804   -0.0606 H       1  UNL1        0.0000
     28 H          -0.7294   -2.4523   -0.1761 H       1  UNL1        0.0000
     29 H          -3.3764   -2.2158   -0.9766 H       1  UNL1        0.0000
     30 H          -3.3249   -2.1995    0.8318 H       1  UNL1        0.0000
     31 H          -4.2336   -0.9250   -0.0533 H       1  UNL1        0.0000
     32 H           4.0188   -1.7062   -1.1357 H       1  UNL1        0.0000
     33 H           4.0374    1.9096    1.2329 H       1  UNL1        0.0000
     34 H           6.4687    1.8389    1.3204 H       1  UNL1        0.0000
     35 H           7.7144    0.0255    0.1836 H       1  UNL1        0.0000
     36 H           6.4823   -1.7438   -1.0390 H       1  UNL1        0.0000
     37 H           2.5690    6.2896   -3.7656 H       1  UNL1        0.0000
     38 H           3.2302    4.5636   -5.3719 H       1  UNL1        0.0000
     39 H           3.3606    2.1929   -4.6803 H       1  UNL1        0.0000
     40 H           2.8204    1.5381   -2.3721 H       1  UNL1        0.0000
     41 H           2.8128    7.6089   -1.7086 H       1  UNL1        0.0000
     42 H           1.0592    7.4037   -2.1588 H       1  UNL1        0.0000
     43 H           1.5337    7.6832   -0.4414 H       1  UNL1        0.0000
@<TRIPOS>BOND
     1     1     2   ar
     2     2     3   ar
     3     3     4   ar
     4     4     5   ar
     5     1     6   ar
     6     5     7   ar
     7     5     6   ar
     8     6     9   ar
     9     7     8   ar
    10     8     9   ar
    11     3    10    1
    12     9    11    1
    13    11    12    1
    14     8    13    1
    15    14    13   ar
    16    13    15   ar
    17    15    16   ar
    18    16    17   ar
    19    17    18   ar
    20    14    18   ar
    21    22    12   ar
    22    12    23   ar
    23    19    20   ar
    24    20    21   ar
    25    21    22   ar
    26    19    23   ar
    27    23    24    1
    28    24    25    1
    29     1    26    1
    30     2    27    1
    31     4    28    1
    32    10    29    1
    33    10    30    1
    34    10    31    1
    35    14    32    1
    36    15    33    1
    37    16    34    1
    38    17    35    1
    39    18    36    1
    40    19    37    1
    41    20    38    1
    42    21    39    1
    43    22    40    1
    44    25    41    1
    45    25    42    1
    46    25    43    1
@<TRIPOS>MOLECULE
mol_826_akc_rs3rs_3731615v1
*****
 24 25 0 0 0
SMALL
GASTEIGER

@<TRIPOS>ATOM
      1 C          -1.7987    0.1897   -0.6540 C.ar    1  UNL1       -0.0613
      2 C          -1.2222    1.2922   -0.0223 C.ar    1  UNL1       -0.0590
      3 C           0.0091    1.1599    0.6163 C.ar    1  UNL1       -0.0261
      4 C           0.6528   -0.0743    0.6228 C.ar    1  UNL1        0.1283
      5 C           0.0922   -1.1900   -0.0028 C.ar    1  UNL1        0.0090
      6 C          -1.1470   -1.0462   -0.6433 C.ar    1  UNL1       -0.0541
      7 C           0.7871   -2.5217    0.0531 C.3     1  UNL1        0.0692
      8 N           0.3883   -3.2809    1.2299 N.ar    1  UNL1       -0.2652
      9 C           1.0495   -3.3342    2.4283 C.ar    1  UNL1        0.0465
     10 C           0.3252   -4.1904    3.2111 C.ar    1  UNL1        0.0625
     11 C          -0.7482   -4.6159    2.4084 C.ar    1  UNL1        0.0700
     12 N          -0.7046   -4.0801    1.1827 N.ar    1  UNL1       -0.1775
     13 N           0.6142   -4.5289    4.4737 N.pl3   1  UNL1       -0.3556
     14 F           1.8366   -0.1839    1.2427 F       1  UNL1       -0.2051
     15 H          -2.7631    0.2885   -1.1468 H       1  UNL1        0.0618
     16 H          -1.7366    2.2499   -0.0226 H       1  UNL1        0.0618
     17 H           0.4686    2.0078    1.1143 H       1  UNL1        0.0646
     18 H          -1.6188   -1.9026   -1.1232 H       1  UNL1        0.0622
     19 H           0.5546   -3.1276   -0.8308 H       1  UNL1        0.0559
     20 H           1.8764   -2.4022    0.0807 H       1  UNL1        0.0559
     21 H           1.9465   -2.7602    2.6073 H       1  UNL1        0.0845
     22 H          -1.5519   -5.2943    2.6561 H       1  UNL1        0.0867
     23 H           0.0860   -5.2277    4.9867 H       1  UNL1        0.1424
     24 H           1.4678   -4.2287    4.9331 H       1  UNL1        0.1424
@<TRIPOS>BOND
     1     1     2   ar
     2     2     3   ar
     3     3     4   ar
     4     4     5   ar
     5     5     6   ar
     6     1     6   ar
     7     5     7    1
     8     7     8    1
     9     8     9   ar
    10     9    10   ar
    11    10    11   ar
    12    11    12   ar
    13     8    12   ar
    14    10    13    1
    15     4    14    1
    16     1    15    1
    17     2    16    1
    18     3    17    1
    19     6    18    1
    20     7    19    1
    21     7    20    1
    22     9    21    1
    23    11    22    1
    24    13    23    1
    25    13    24    1
@<TRIPOS>MOLECULE
mol_827_akc_rs3rs_3731615v1
*****
 47 49 0 0 0
SMALL
GASTEIGER

@<TRIPOS>ATOM
      1 C          -0.3742   -0.6235   -4.1713 C.3     1  UNL1       -0.0390
      2 C          -1.1401   -1.3928   -3.0973 C.3     1  UNL1        0.0531
      3 C          -2.5815   -1.6165   -3.5573 C.3     1  UNL1       -0.0390
      4 O          -0.6122   -2.6955   -2.8343 O.3     1  UNL1       -0.3770
      5 C           0.7509   -2.7976   -2.4417 C.3     1  UNL1        0.0496
      6 C           1.0686   -2.2236   -1.0676 C.3     1  UNL1       -0.0113
      7 C           0.1622   -2.7587    0.0476 C.3     1  UNL1        0.0286
      8 N           0.6770   -2.3452    1.3757 N.ar    1  UNL1       -0.3099
      9 C           0.5638   -0.9867    1.7602 C.ar    1  UNL1        0.1498
     10 C           1.1614   -0.5826    2.9047 C.ar    1  UNL1        0.0831
     11 C           1.8252   -1.5303    3.7880 C.ar    1  UNL1       -0.0329
     12 C           2.0082   -2.8236    3.4669 C.ar    1  UNL1        0.0457
     13 C           1.4743   -3.2365    2.1101 C.ar    1  UNL1        0.1370
     14 N           1.7784   -4.4089    1.6253 N.2     1  UNL1       -0.2828
     15 C           2.6651   -3.7509    4.4368 C.2     1  UNL1        0.0804
     16 S           3.9254   -3.4152    5.4854 S.2     1  UNL1       -0.0351
     17 N           2.1471   -5.0171    4.4561 N.am    1  UNL1       -0.3517
     18 C           1.1730    0.8675    3.2419 C.ar    1  UNL1        0.2675
     19 O           1.6650    1.2496    4.3075 O.2     1  UNL1       -0.2665
     20 N           0.6417    1.7146    2.2860 N.ar    1  UNL1       -0.2676
     21 C           0.7390    3.0911    2.4524 C.ar    1  UNL1        0.0146
     22 C           0.2259    3.9473    1.5591 C.ar    1  UNL1       -0.0450
     23 C          -0.4780    3.4447    0.4100 C.ar    1  UNL1       -0.0569
     24 C          -0.6116    2.1276    0.2195 C.ar    1  UNL1       -0.0186
     25 C           0.0008    1.1749    1.1861 C.ar    1  UNL1        0.1425
     26 N          -0.0832   -0.0894    0.9434 N.ar    1  UNL1       -0.2113
     27 H          -0.2215   -1.2332   -5.0677 H       1  UNL1        0.0254
     28 H           0.6136   -0.3217   -3.8085 H       1  UNL1        0.0254
     29 H          -0.9063    0.2916   -4.4552 H       1  UNL1        0.0254
     30 H          -1.1559   -0.8097   -2.1702 H       1  UNL1        0.0590
     31 H          -2.6352   -2.4183   -4.3035 H       1  UNL1        0.0254
     32 H          -3.2003   -1.9356   -2.7120 H       1  UNL1        0.0254
     33 H          -3.0255   -0.7114   -3.9826 H       1  UNL1        0.0254
     34 H           0.9908   -3.8665   -2.4382 H       1  UNL1        0.0560
     35 H           1.3997   -2.3471   -3.2004 H       1  UNL1        0.0560
     36 H           2.1166   -2.4455   -0.8313 H       1  UNL1        0.0305
     37 H           0.9906   -1.1328   -1.1179 H       1  UNL1        0.0305
     38 H          -0.8631   -2.3888   -0.0801 H       1  UNL1        0.0493
     39 H           0.0819   -3.8502   -0.0189 H       1  UNL1        0.0493
     40 H           2.1566   -1.1370    4.7455 H       1  UNL1        0.0634
     41 H           2.4187   -4.9111    2.2529 H       1  UNL1        0.1883
     42 H           1.3083   -5.2845    3.9463 H       1  UNL1        0.1428
     43 H           2.5032   -5.6784    5.1381 H       1  UNL1        0.1428
     44 H           1.2684    3.4471    3.3348 H       1  UNL1        0.0814
     45 H           0.3202    5.0210    1.6893 H       1  UNL1        0.0632
     46 H          -0.8989    4.1566   -0.2942 H       1  UNL1        0.0619
     47 H          -1.1323    1.7077   -0.6316 H       1  UNL1        0.0654
@<TRIPOS>BOND
     1     1     2    1
     2     2     3    1
     3     2     4    1
     4     4     5    1
     5     5     6    1
     6     6     7    1
     7     7     8    1
     8     8     9   ar
     9     9    10   ar
    10    10    11   ar
    11    11    12   ar
    12    12    13   ar
    13     8    13   ar
    14    13    14    2
    15    12    15    1
    16    15    16    2
    17    15    17    1
    18    10    18   ar
    19    18    19    2
    20    18    20   ar
    21    20    21   ar
    22    21    22   ar
    23    22    23   ar
    24    23    24   ar
    25    24    25   ar
    26    20    25   ar
    27    25    26   ar
    28     9    26   ar
    29     1    27    1
    30     1    28    1
    31     1    29    1
    32     2    30    1
    33     3    31    1
    34     3    32    1
    35     3    33    1
    36     5    34    1
    37     5    35    1
    38     6    36    1
    39     6    37    1
    40     7    38    1
    41     7    39    1
    42    11    40    1
    43    14    41    1
    44    17    42    1
    45    17    43    1
    46    21    44    1
    47    22    45    1
    48    23    46    1
    49    24    47    1
@<TRIPOS>MOLECULE
mol_828_akc_rs3rs_3731615v1
*****
 43 45 0 0 0
SMALL
GASTEIGER

@<TRIPOS>ATOM
      1 C          -3.8373   -3.5474   -1.3159 C.3     1  UNL1       -0.0127
      2 N          -2.9292   -2.4022   -1.3546 N.3     1  UNL1       -0.3029
      3 C          -3.6417   -1.1583   -1.0167 C.3     1  UNL1        0.0114
      4 C          -2.6884    0.0575   -0.9235 C.3     1  UNL1        0.0120
      5 N          -1.5805   -0.1029    0.0446 N.3     1  UNL1       -0.2957
      6 C          -0.8848   -1.3708   -0.2719 C.3     1  UNL1        0.0120
      7 C          -1.7928   -2.6145   -0.4395 C.3     1  UNL1        0.0114
      8 C          -2.0707   -0.0358    1.4361 C.3     1  UNL1        0.0252
      9 C          -0.9518    0.0047    2.4633 C.ar    1  UNL1       -0.0196
     10 C          -0.1675    1.1745    2.5386 C.ar    1  UNL1       -0.0563
     11 C           0.9256    1.2573    3.4018 C.ar    1  UNL1       -0.0614
     12 C           1.2652    0.1660    4.1943 C.ar    1  UNL1       -0.0607
     13 C           0.4906   -0.9906    4.1495 C.ar    1  UNL1       -0.0477
     14 C          -0.6349   -1.0754    3.3118 C.ar    1  UNL1        0.0171
     15 S          -1.5739   -2.5928    3.3702 S.3     1  UNL1       -0.0891
     16 C          -2.5744   -2.4542    4.8443 C.ar    1  UNL1        0.0127
     17 C          -2.6972   -1.2929    5.6154 C.ar    1  UNL1       -0.0480
     18 C          -3.4921   -1.2824    6.7661 C.ar    1  UNL1       -0.0607
     19 C          -4.1830   -2.4287    7.1514 C.ar    1  UNL1       -0.0617
     20 C          -4.0841   -3.5859    6.3844 C.ar    1  UNL1       -0.0607
     21 C          -3.2854   -3.5969    5.2383 C.ar    1  UNL1       -0.0480
     22 H          -3.3152   -4.4638   -1.6116 H       1  UNL1        0.0391
     23 H          -4.2628   -3.7046   -0.3158 H       1  UNL1        0.0391
     24 H          -4.6640   -3.4102   -2.0200 H       1  UNL1        0.0391
     25 H          -4.3852   -0.9490   -1.7949 H       1  UNL1        0.0439
     26 H          -4.1909   -1.2690   -0.0726 H       1  UNL1        0.0439
     27 H          -2.2534    0.2391   -1.9131 H       1  UNL1        0.0439
     28 H          -3.2666    0.9595   -0.6875 H       1  UNL1        0.0439
     29 H          -0.3426   -1.2180   -1.2150 H       1  UNL1        0.0439
     30 H          -0.1021   -1.5870    0.4637 H       1  UNL1        0.0439
     31 H          -2.1614   -2.9271    0.5431 H       1  UNL1        0.0439
     32 H          -1.1747   -3.4345   -0.8245 H       1  UNL1        0.0439
     33 H          -2.6337    0.8994    1.5623 H       1  UNL1        0.0476
     34 H          -2.7940   -0.8262    1.6574 H       1  UNL1        0.0476
     35 H          -0.4029    2.0245    1.9007 H       1  UNL1        0.0621
     36 H           1.5209    2.1655    3.4401 H       1  UNL1        0.0618
     37 H           2.1337    0.2144    4.8466 H       1  UNL1        0.0618
     38 H           0.7720   -1.8362    4.7738 H       1  UNL1        0.0629
     39 H          -2.1800   -0.3766    5.3459 H       1  UNL1        0.0629
     40 H          -3.5687   -0.3761    7.3616 H       1  UNL1        0.0618
     41 H          -4.7983   -2.4193    8.0472 H       1  UNL1        0.0618
     42 H          -4.6247   -4.4822    6.6771 H       1  UNL1        0.0618
     43 H          -3.2213   -4.5128    4.6543 H       1  UNL1        0.0629
@<TRIPOS>BOND
     1     1     2    1
     2     2     3    1
     3     3     4    1
     4     4     5    1
     5     5     6    1
     6     6     7    1
     7     2     7    1
     8     5     8    1
     9     8     9    1
    10     9    10   ar
    11    10    11   ar
    12    11    12   ar
    13    12    13   ar
    14    13    14   ar
    15     9    14   ar
    16    14    15    1
    17    15    16    1
    18    16    17   ar
    19    17    18   ar
    20    18    19   ar
    21    19    20   ar
    22    20    21   ar
    23    16    21   ar
    24     1    22    1
    25     1    23    1
    26     1    24    1
    27     3    25    1
    28     3    26    1
    29     4    27    1
    30     4    28    1
    31     6    29    1
    32     6    30    1
    33     7    31    1
    34     7    32    1
    35     8    33    1
    36     8    34    1
    37    10    35    1
    38    11    36    1
    39    12    37    1
    40    13    38    1
    41    17    39    1
    42    18    40    1
    43    19    41    1
    44    20    42    1
    45    21    43    1
@<TRIPOS>MOLECULE
mol_829_akc_rs3rs_3731615v1
*****
 42 44 0 0 0
SMALL
GASTEIGER

@<TRIPOS>ATOM
      1 C           0.7508   -1.2622    0.2679 C.3     1  UNL1        0.0280
      2 C          -0.7240   -1.1641   -0.1946 C.3     1  UNL1        0.0305
      3 N          -1.3463    0.1200    0.1802 N.am    1  UNL1       -0.2970
      4 C          -0.5733    1.2927   -0.2613 C.3     1  UNL1        0.0305
      5 C           0.8597    1.2250    0.2922 C.3     1  UNL1        0.0280
      6 N           1.4935   -0.0384   -0.1008 N.pl3   1  UNL1       -0.3269
      7 C           2.5543   -0.0693   -0.9870 C.ar    1  UNL1        0.0298
      8 C           3.5195   -1.0856   -0.9306 C.ar    1  UNL1       -0.0407
      9 C           4.6332   -1.0939   -1.7802 C.ar    1  UNL1       -0.0600
     10 C           4.8030   -0.0826   -2.7190 C.ar    1  UNL1       -0.0616
     11 C           3.8574    0.9298   -2.8091 C.ar    1  UNL1       -0.0600
     12 C           2.7503    0.9310   -1.9535 C.ar    1  UNL1       -0.0407
     13 C          -2.4115    0.1381    1.0656 C.2     1  UNL1        0.2357
     14 O          -2.8552   -0.8927    1.5772 O.2     1  UNL1       -0.2736
     15 C          -3.0370    1.4762    1.4207 C.3     1  UNL1        0.1069
     16 N          -2.4064    2.1625    2.5449 N.ar    1  UNL1       -0.2563
     17 C          -1.3829    1.6710    3.3254 C.ar    1  UNL1        0.1106
     18 C          -1.1692    2.6236    4.3020 C.ar    1  UNL1        0.3903
     19 N          -2.0047    3.7022    4.1258 N.ar    1  UNL1       -0.0957
     20 C          -2.7370    3.3948    3.0690 C.ar    1  UNL1        0.4563
     21 N          -3.7516    4.2801    2.5477 N.pl3   1  UNL1        0.1198
     22 O          -4.3054    3.9475    1.4901 O.2     1  UNL1        0.0447
     23 O          -3.9864    5.3120    3.1839 O.co2   1  UNL1       -0.5735
     24 N          -0.2189    2.5640    5.3926 N.pl3   1  UNL1        0.1023
     25 O           0.5230    1.5729    5.4253 O.2     1  UNL1        0.0432
     26 O          -0.2146    3.5009    6.2020 O.co2   1  UNL1       -0.5746
     27 H           0.7831   -1.3686    1.3589 H       1  UNL1        0.0479
     28 H           1.1879   -2.1699   -0.1625 H       1  UNL1        0.0479
     29 H          -1.2929   -2.0115    0.2025 H       1  UNL1        0.0480
     30 H          -0.7692   -1.2244   -1.2886 H       1  UNL1        0.0480
     31 H          -0.5645    1.2777   -1.3572 H       1  UNL1        0.0480
     32 H          -1.0320    2.2292    0.0554 H       1  UNL1        0.0480
     33 H           0.8285    1.2552    1.3879 H       1  UNL1        0.0479
     34 H           1.4290    2.1096   -0.0113 H       1  UNL1        0.0479
     35 H           3.4460   -1.8682   -0.1796 H       1  UNL1        0.0636
     36 H           5.3745   -1.8833   -1.6924 H       1  UNL1        0.0618
     37 H           5.6705   -0.0803   -3.3728 H       1  UNL1        0.0618
     38 H           3.9765    1.7254   -3.5396 H       1  UNL1        0.0618
     39 H           2.0297    1.7335   -2.0755 H       1  UNL1        0.0636
     40 H          -3.0313    2.1330    0.5481 H       1  UNL1        0.0590
     41 H          -4.0808    1.2979    1.7047 H       1  UNL1        0.0590
     42 H          -0.9113    0.7099    3.1609 H       1  UNL1        0.0899
@<TRIPOS>UNITY_ATOM_ATTR
21 1
charge 1
23 1
charge -1
24 1
charge 1
26 1
charge -1
@<TRIPOS>BOND
     1     1     2    1
     2     2     3    1
     3     3     4    1
     4     4     5    1
     5     5     6    1
     6     1     6    1
     7     6     7    1
     8     7     8   ar
     9     8     9   ar
    10     9    10   ar
    11    10    11   ar
    12    11    12   ar
    13     7    12   ar
    14     3    13   am
    15    13    14    2
    16    13    15    1
    17    15    16    1
    18    16    17   ar
    19    17    18   ar
    20    18    19   ar
    21    19    20   ar
    22    16    20   ar
    23    20    21    1
    24    21    22    2
    25    21    23    1
    26    18    24    1
    27    24    25    2
    28    24    26    1
    29     1    27    1
    30     1    28    1
    31     2    29    1
    32     2    30    1
    33     4    31    1
    34     4    32    1
    35     5    33    1
    36     5    34    1
    37     8    35    1
    38     9    36    1
    39    10    37    1
    40    11    38    1
    41    12    39    1
    42    15    40    1
    43    15    41    1
    44    17    42    1
@<TRIPOS>MOLECULE
mol_82_akc_jejmech2022114675
>81.sdf
 81 82 0 0 0
SMALL
GASTEIGER

@<TRIPOS>ATOM
      1 C           8.4624   -3.8895   13.3234 C.3     1  UNL1       -0.0653
      2 C           8.4492   -2.4789   12.7600 C.3     1  UNL1       -0.0559
      3 C           9.3931   -2.3581   11.5675 C.3     1  UNL1       -0.0533
      4 C           9.3850   -0.9434   10.9975 C.3     1  UNL1       -0.0531
      5 C          10.3314   -0.8384    9.8053 C.3     1  UNL1       -0.0531
      6 C          10.3230    0.5728    9.2334 C.3     1  UNL1       -0.0531
      7 C          11.2598    0.6818    8.0353 C.3     1  UNL1       -0.0531
      8 C          11.2298    2.0985    7.4804 C.3     1  UNL1       -0.0531
      9 C          12.1501    2.2458    6.2753 C.3     1  UNL1       -0.0531
     10 C          12.1140    3.6870    5.7835 C.3     1  UNL1       -0.0530
     11 C          13.0534    3.8976    4.6041 C.3     1  UNL1       -0.0500
     12 C          13.0471    5.3407    4.1127 C.3     1  UNL1       -0.0186
     13 C          13.4382    6.3867    5.1571 C.3     1  UNL1        0.0898
     14 O          14.6862    6.0625    5.7841 O.3     1  UNL1       -0.4883
     15 C          15.1905    6.9867    6.6659 C.ar    1  UNL1        0.1619
     16 C          16.2103    6.6135    7.5571 C.ar    1  UNL1        0.1619
     17 O          16.7874    5.4007    7.7884 O.3     1  UNL1       -0.4914
     18 C          16.4668    4.2940    6.9619 C.3     1  UNL1        0.0790
     19 C          16.7708    7.5874    8.4064 C.ar    1  UNL1       -0.0081
     20 C          16.3091    8.9064    8.4506 C.ar    1  UNL1        0.0008
     21 C          16.9342    9.9290    9.3642 C.3     1  UNL1       -0.0043
     22 N          16.6959    9.7909   10.8920 N.4     1  UNL1        0.2444
     23 C          15.1928    9.6911   11.1778 C.3     1  UNL1       -0.0410
     24 C          17.3417    8.5033   11.4180 C.3     1  UNL1       -0.0410
     25 C          17.2861   10.9686   11.6917 C.3     1  UNL1       -0.0192
     26 C          16.6721   12.3369   11.3967 C.3     1  UNL1       -0.0096
     27 C          17.6989   13.3311   11.9468 C.3     1  UNL1       -0.0478
     28 C          19.0098   12.5605   12.1118 C.3     1  UNL1       -0.0478
     29 C          18.7772   11.2040   11.4580 C.3     1  UNL1       -0.0096
     30 C          15.2982    9.2671    7.5650 C.ar    1  UNL1       -0.0499
     31 C          14.7629    8.3250    6.6795 C.ar    1  UNL1       -0.0158
     32 H           7.7837   -3.9634   14.1781 H       1  UNL1        0.0230
     33 H           8.1416   -4.6144   12.5683 H       1  UNL1        0.0230
     34 H           9.4669   -4.1660   13.6594 H       1  UNL1        0.0230
     35 H           7.4286   -2.2184   12.4564 H       1  UNL1        0.0263
     36 H           8.7458   -1.7721   13.5437 H       1  UNL1        0.0263
     37 H          10.4121   -2.6235   11.8745 H       1  UNL1        0.0265
     38 H           9.0952   -3.0693   10.7872 H       1  UNL1        0.0265
     39 H           8.3681   -0.6739   10.6866 H       1  UNL1        0.0265
     40 H           9.6864   -0.2283   11.7728 H       1  UNL1        0.0265
     41 H          11.3493   -1.1050   10.1146 H       1  UNL1        0.0265
     42 H          10.0305   -1.5525    9.0291 H       1  UNL1        0.0265
     43 H           9.3040    0.8430    8.9298 H       1  UNL1        0.0265
     44 H          10.6290    1.2876   10.0074 H       1  UNL1        0.0265
     45 H          12.2820    0.4216    8.3358 H       1  UNL1        0.0265
     46 H          10.9574   -0.0294    7.2574 H       1  UNL1        0.0265
     47 H          10.2043    2.3617    7.1931 H       1  UNL1        0.0265
     48 H          11.5348    2.8037    8.2640 H       1  UNL1        0.0265
     49 H          13.1754    1.9732    6.5532 H       1  UNL1        0.0265
     50 H          11.8357    1.5655    5.4745 H       1  UNL1        0.0265
     51 H          11.0907    3.9555    5.4940 H       1  UNL1        0.0265
     52 H          12.3985    4.3431    6.6142 H       1  UNL1        0.0265
     53 H          14.0728    3.6026    4.8737 H       1  UNL1        0.0266
     54 H          12.7461    3.2471    3.7749 H       1  UNL1        0.0266
     55 H          13.7400    5.4122    3.2682 H       1  UNL1        0.0298
     56 H          12.0496    5.5920    3.7269 H       1  UNL1        0.0298
     57 H          13.5072    7.3331    4.6116 H       1  UNL1        0.0696
     58 H          12.6582    6.4723    5.9236 H       1  UNL1        0.0696
     59 H          15.4101    4.0268    7.0385 H       1  UNL1        0.0660
     60 H          16.7804    4.4747    5.9309 H       1  UNL1        0.0660
     61 H          17.0432    3.4412    7.3377 H       1  UNL1        0.0660
     62 H          17.6086    7.2728    9.0229 H       1  UNL1        0.0660
     63 H          18.0151    9.9224    9.1944 H       1  UNL1        0.0868
     64 H          16.5619   10.9181    9.0804 H       1  UNL1        0.0868
     65 H          14.7956    8.7862   10.7094 H       1  UNL1        0.0778
     66 H          15.0550    9.6329   12.2620 H       1  UNL1        0.0778
     67 H          14.6960   10.5760   10.7718 H       1  UNL1        0.0778
     68 H          18.3723    8.4509   11.0556 H       1  UNL1        0.0778
     69 H          17.3241    8.5295   12.5146 H       1  UNL1        0.0778
     70 H          16.7602    7.6410   11.0845 H       1  UNL1        0.0778
     71 H          17.1175   10.7349   12.7526 H       1  UNL1        0.0852
     72 H          16.5420   12.5282   10.3285 H       1  UNL1        0.0320
     73 H          15.6985   12.4698   11.8781 H       1  UNL1        0.0320
     74 H          17.8190   14.1786   11.2639 H       1  UNL1        0.0267
     75 H          17.3743   13.7326   12.9130 H       1  UNL1        0.0267
     76 H          19.8565   13.0876   11.6611 H       1  UNL1        0.0267
     77 H          19.2306   12.4297   13.1776 H       1  UNL1        0.0267
     78 H          19.4086   10.4307   11.9048 H       1  UNL1        0.0320
     79 H          19.0309   11.2837   10.3967 H       1  UNL1        0.0320
     80 H          14.9309   10.2923    7.5081 H       1  UNL1        0.0623
     81 H          14.0144    8.6950    5.9856 H       1  UNL1        0.0655
@<TRIPOS>UNITY_ATOM_ATTR
22 1
charge 1
@<TRIPOS>BOND
     1     1    32    1
     2     1    33    1
     3     1    34    1
     4     2     1    1
     5     2    35    1
     6     2    36    1
     7     3     2    1
     8     3    37    1
     9     3    38    1
    10     4     3    1
    11     4    39    1
    12     4    40    1
    13     5     4    1
    14     5    41    1
    15     5    42    1
    16     6     5    1
    17     6    43    1
    18     6    44    1
    19     7     6    1
    20     7    45    1
    21     7    46    1
    22     8     7    1
    23     8    47    1
    24     8    48    1
    25     9     8    1
    26     9    49    1
    27     9    50    1
    28    10     9    1
    29    10    51    1
    30    10    52    1
    31    11    10    1
    32    11    53    1
    33    11    54    1
    34    12    11    1
    35    12    55    1
    36    12    56    1
    37    13    12    1
    38    13    57    1
    39    13    58    1
    40    14    13    1
    41    15    14    1
    42    16    15   ar
    43    17    16    1
    44    18    17    1
    45    18    59    1
    46    18    60    1
    47    18    61    1
    48    19    16   ar
    49    19    62    1
    50    20    19   ar
    51    21    20    1
    52    21    63    1
    53    21    64    1
    54    22    21    1
    55    23    22    1
    56    23    65    1
    57    23    66    1
    58    23    67    1
    59    24    22    1
    60    24    68    1
    61    24    69    1
    62    24    70    1
    63    25    22    1
    64    25    71    1
    65    26    25    1
    66    26    72    1
    67    26    73    1
    68    27    26    1
    69    27    74    1
    70    27    75    1
    71    28    27    1
    72    28    76    1
    73    28    77    1
    74    29    28    1
    75    29    25    1
    76    29    78    1
    77    29    79    1
    78    30    20   ar
    79    30    80    1
    80    31    30   ar
    81    31    15   ar
    82    31    81    1
@<TRIPOS>MOLECULE
mol_830_akc_acsjmedchem3c01439
*****
 83 87 0 0 0
SMALL
GASTEIGER

@<TRIPOS>ATOM
      1 C          -5.2638    1.9017    1.4768 C.3     1  UNL1       -0.0141
      2 C          -4.0002    1.5643    2.2776 C.3     1  UNL1        0.0565
      3 N          -2.9571    1.1035    1.3691 N.am    1  UNL1       -0.2751
      4 C          -2.5311    2.2242    0.5054 C.3     1  UNL1        0.0565
      5 C          -3.7060    2.7501   -0.3632 C.3     1  UNL1       -0.0141
      6 N          -5.0036    3.0680    0.4641 N.4     1  UNL1        0.2434
      7 C          -4.8937    4.3760    1.2876 C.3     1  UNL1       -0.0299
      8 C          -4.5618    5.6964    0.5786 C.3     1  UNL1       -0.0085
      9 C          -5.5905    6.2274   -0.4145 C.3     1  UNL1       -0.0229
     10 C          -5.2983    7.5444   -1.0960 C.ar    1  UNL1       -0.0472
     11 C          -5.7918    7.7215   -2.4031 C.ar    1  UNL1       -0.0586
     12 C          -5.5825    8.9089   -3.1028 C.ar    1  UNL1       -0.0615
     13 C          -4.8880    9.9506   -2.5010 C.ar    1  UNL1       -0.0617
     14 C          -4.4137    9.8038   -1.1983 C.ar    1  UNL1       -0.0615
     15 C          -4.6201    8.6101   -0.4948 C.ar    1  UNL1       -0.0586
     16 C          -6.2073    3.0214   -0.4866 C.3     1  UNL1       -0.0412
     17 C          -2.4945   -0.1849    1.0575 C.2     1  UNL1        0.3098
     18 O          -1.6049   -0.2796    0.2157 O.2     1  UNL1       -0.2520
     19 N          -3.0839   -1.3295    1.6052 N.am    1  UNL1       -0.2481
     20 C          -2.5877   -2.6401    1.2469 C.ar    1  UNL1        0.0384
     21 C          -1.2408   -2.9806    1.4139 C.ar    1  UNL1       -0.0375
     22 C          -0.7783   -4.2449    1.0237 C.ar    1  UNL1       -0.0247
     23 C          -1.6674   -5.1818    0.5053 C.ar    1  UNL1        0.1235
     24 C          -3.0201   -4.8994    0.4160 C.ar    1  UNL1       -0.0247
     25 C          -3.4758   -3.6312    0.7778 C.ar    1  UNL1       -0.0375
     26 F          -1.2145   -6.3673    0.0788 F       1  UNL1       -0.2055
     27 C          -4.2493   -1.3930    2.4714 C.3     1  UNL1        0.0792
     28 O          -2.5935   -1.0250    4.2831 O.2     1  UNL1       -0.4535
     29 C          -3.8999   -1.2116    3.9091 C.ar    1  UNL1        0.1236
     30 C          -4.7218   -1.1191    5.0087 C.ar    1  UNL1       -0.0183
     31 C          -3.8776   -0.9361    6.1250 C.ar    1  UNL1       -0.0109
     32 C          -2.5739   -0.8717    5.6548 C.ar    1  UNL1        0.1895
     33 C          -1.3047   -0.6915    6.3572 C.2     1  UNL1        0.2794
     34 O          -1.2318   -0.5353    7.5739 O.2     1  UNL1       -0.2668
     35 N          -0.1930   -0.6589    5.5423 N.am    1  UNL1       -0.3085
     36 C           1.1829   -0.5009    6.0244 C.3     1  UNL1        0.0160
     37 C           2.1956   -0.5560    4.8669 C.3     1  UNL1       -0.0120
     38 C           3.6212   -0.3972    5.3399 C.ar    1  UNL1       -0.0457
     39 C           4.3955   -1.5257    5.6545 C.ar    1  UNL1       -0.0558
     40 C           5.6881   -1.3779    6.1629 C.ar    1  UNL1       -0.0262
     41 C           6.2080   -0.1045    6.3554 C.ar    1  UNL1        0.1234
     42 C           5.4673    1.0252    6.0311 C.ar    1  UNL1       -0.0262
     43 C           4.1762    0.8804    5.5176 C.ar    1  UNL1       -0.0558
     44 F           7.4371    0.0370    6.8690 F       1  UNL1       -0.2055
     45 H          -5.5822    1.0378    0.8790 H       1  UNL1        0.0831
     46 H          -6.0951    2.2022    2.1244 H       1  UNL1        0.0831
     47 H          -4.2340    0.8892    3.0781 H       1  UNL1        0.0518
     48 H          -3.6110    2.4369    2.8142 H       1  UNL1        0.0518
     49 H          -2.1633    3.0251    1.1590 H       1  UNL1        0.0518
     50 H          -1.7009    1.9527   -0.1522 H       1  UNL1        0.0518
     51 H          -3.4404    3.6608   -0.9056 H       1  UNL1        0.0831
     52 H          -3.9889    1.9798   -1.0897 H       1  UNL1        0.0831
     53 H          -5.8099    4.4616    1.8844 H       1  UNL1        0.0815
     54 H          -4.0714    4.2146    1.9910 H       1  UNL1        0.0815
     55 H          -4.4529    6.4383    1.3823 H       1  UNL1        0.0320
     56 H          -3.5756    5.6325    0.1083 H       1  UNL1        0.0320
     57 H          -5.6393    5.5143   -1.2317 H       1  UNL1        0.0315
     58 H          -6.5812    6.2808    0.0516 H       1  UNL1        0.0315
     59 H          -6.3515    6.9284   -2.8951 H       1  UNL1        0.0620
     60 H          -5.9684    9.0218   -4.1130 H       1  UNL1        0.0618
     61 H          -4.7267   10.8799   -3.0426 H       1  UNL1        0.0618
     62 H          -3.8870   10.6315   -0.7278 H       1  UNL1        0.0618
     63 H          -4.2460    8.5490    0.5230 H       1  UNL1        0.0620
     64 H          -6.2495    2.0247   -0.9413 H       1  UNL1        0.0778
     65 H          -7.1204    3.2109    0.0843 H       1  UNL1        0.0778
     66 H          -6.0738    3.7270   -1.2971 H       1  UNL1        0.0778
     67 H          -0.5468   -2.2853    1.8782 H       1  UNL1        0.0637
     68 H           0.2707   -4.5080    1.1170 H       1  UNL1        0.0647
     69 H          -3.7071   -5.6549    0.0461 H       1  UNL1        0.0647
     70 H          -4.5349   -3.4300    0.6439 H       1  UNL1        0.0637
     71 H          -4.9801   -0.6687    2.1149 H       1  UNL1        0.0549
     72 H          -4.7917   -2.3362    2.3893 H       1  UNL1        0.0549
     73 H          -5.8010   -1.1878    4.9907 H       1  UNL1        0.0653
     74 H          -4.1811   -0.8539    7.1596 H       1  UNL1        0.0657
     75 H          -0.3583   -0.7942    4.5524 H       1  UNL1        0.1491
     76 H           1.2510    0.4447    6.5592 H       1  UNL1        0.0465
     77 H           1.3859   -1.3020    6.7495 H       1  UNL1        0.0465
     78 H           2.0951   -1.5041    4.3213 H       1  UNL1        0.0328
     79 H           1.9670    0.2268    4.1313 H       1  UNL1        0.0328
     80 H           3.9954   -2.5281    5.5173 H       1  UNL1        0.0621
     81 H           6.2870   -2.2457    6.4220 H       1  UNL1        0.0646
     82 H           5.8963    2.0092    6.1924 H       1  UNL1        0.0646
     83 H           3.6049    1.7719    5.2697 H       1  UNL1        0.0621
@<TRIPOS>UNITY_ATOM_ATTR
6 1
charge 1
@<TRIPOS>BOND
     1     1     2    1
     2     1     6    1
     3     2     3    1
     4     3     4    1
     5     3    17   am
     6     4     5    1
     7     5     6    1
     8     6     7    1
     9     6    16    1
    10     7     8    1
    11     8     9    1
    12     9    10    1
    13    10    11   ar
    14    10    15   ar
    15    11    12   ar
    16    12    13   ar
    17    13    14   ar
    18    14    15   ar
    19    17    18    2
    20    17    19   am
    21    19    20    1
    22    19    27    1
    23    20    21   ar
    24    20    25   ar
    25    21    22   ar
    26    22    23   ar
    27    23    24   ar
    28    23    26    1
    29    24    25   ar
    30    27    29    1
    31    28    29   ar
    32    28    32   ar
    33    29    30   ar
    34    30    31   ar
    35    31    32   ar
    36    32    33    1
    37    33    34    2
    38    33    35   am
    39    35    36    1
    40    36    37    1
    41    37    38    1
    42    38    39   ar
    43    38    43   ar
    44    39    40   ar
    45    40    41   ar
    46    41    42   ar
    47    41    44    1
    48    42    43   ar
    49     1    45    1
    50     1    46    1
    51     2    47    1
    52     2    48    1
    53     4    49    1
    54     4    50    1
    55     5    51    1
    56     5    52    1
    57     7    53    1
    58     7    54    1
    59     8    55    1
    60     8    56    1
    61     9    57    1
    62     9    58    1
    63    11    59    1
    64    12    60    1
    65    13    61    1
    66    14    62    1
    67    15    63    1
    68    16    64    1
    69    16    65    1
    70    16    66    1
    71    21    67    1
    72    22    68    1
    73    24    69    1
    74    25    70    1
    75    27    71    1
    76    27    72    1
    77    30    73    1
    78    31    74    1
    79    35    75    1
    80    36    76    1
    81    36    77    1
    82    37    78    1
    83    37    79    1
    84    39    80    1
    85    40    81    1
    86    42    82    1
    87    43    83    1
@<TRIPOS>MOLECULE
mol_831_akc_ijms25010659
N-(2-methoxyphenyl)-1-methyl-1H-benzimidazol-2-amine
 34 36 0 0 0
SMALL
GASTEIGER

@<TRIPOS>ATOM
      1 C          -0.1322    0.5650   -0.1897 C.ar    1  UNL1        0.0698
      2 N          -1.4996    0.3789   -0.1642 N.ar    1  UNL1       -0.3147
      3 C          -1.7491   -0.9792   -0.1632 C.ar    1  UNL1        0.2008
      4 N          -0.6205   -1.6463   -0.2967 N.ar    1  UNL1       -0.2142
      5 C           0.3810   -0.7206   -0.2973 C.ar    1  UNL1        0.0909
      6 C           1.7672   -0.9157   -0.3675 C.ar    1  UNL1       -0.0342
      7 C           2.6050    0.2007   -0.2973 C.ar    1  UNL1       -0.0596
      8 C           2.0709    1.4851   -0.1705 C.ar    1  UNL1       -0.0597
      9 C           0.6871    1.6983   -0.1224 C.ar    1  UNL1       -0.0360
     10 N          -2.9944   -1.4894   -0.0441 N.pl3   1  UNL1       -0.2820
     11 C          -2.4525    1.4571   -0.0785 C.3     1  UNL1        0.0150
     12 C          -3.3213   -2.7950    0.3945 C.ar    1  UNL1        0.0757
     13 C          -4.5932   -3.3261    0.1095 C.ar    1  UNL1        0.1412
     14 C          -4.9689   -4.5990    0.5476 C.ar    1  UNL1       -0.0181
     15 C          -4.0554   -5.3901    1.2377 C.ar    1  UNL1       -0.0582
     16 C          -2.7738   -4.9077    1.4906 C.ar    1  UNL1       -0.0598
     17 C          -2.4122   -3.6247    1.0653 C.ar    1  UNL1       -0.0369
     18 O          -5.5338   -2.5890   -0.5709 O.3     1  UNL1       -0.4933
     19 C          -5.2291   -2.5426   -1.9687 C.3     1  UNL1        0.0789
     20 H           2.1683   -1.9193   -0.4588 H       1  UNL1        0.0639
     21 H           3.6828    0.0622   -0.3343 H       1  UNL1        0.0618
     22 H           2.7444    2.3370   -0.1056 H       1  UNL1        0.0618
     23 H           0.2800    2.6983   -0.0224 H       1  UNL1        0.0639
     24 H          -3.8287   -0.9229   -0.1335 H       1  UNL1        0.1551
     25 H          -2.3220    1.9567    0.8852 H       1  UNL1        0.0457
     26 H          -2.2582    2.1557   -0.8976 H       1  UNL1        0.0457
     27 H          -3.4748    1.0884   -0.1657 H       1  UNL1        0.0457
     28 H          -5.9679   -4.9729    0.3412 H       1  UNL1        0.0655
     29 H          -4.3361   -6.3844    1.5763 H       1  UNL1        0.0619
     30 H          -2.0509   -5.5191    2.0236 H       1  UNL1        0.0618
     31 H          -1.4081   -3.2744    1.2957 H       1  UNL1        0.0637
     32 H          -4.9567   -1.5164   -2.2337 H       1  UNL1        0.0660
     33 H          -4.4255   -3.2233   -2.2750 H       1  UNL1        0.0660
     34 H          -6.1342   -2.8084   -2.5226 H       1  UNL1        0.0660
@<TRIPOS>BOND
     1     1     2   ar
     2     2     3   ar
     3     3     4   ar
     4     4     5   ar
     5     1     5   ar
     6     5     6   ar
     7     6     7   ar
     8     7     8   ar
     9     8     9   ar
    10     1     9   ar
    11     3    10    1
    12     2    11    1
    13    12    13   ar
    14    13    14   ar
    15    14    15   ar
    16    15    16   ar
    17    16    17   ar
    18    12    17   ar
    19    18    19    1
    20    13    18    1
    21    10    12    1
    22     6    20    1
    23     7    21    1
    24     8    22    1
    25     9    23    1
    26    10    24    1
    27    11    25    1
    28    11    26    1
    29    11    27    1
    30    14    28    1
    31    15    29    1
    32    16    30    1
    33    17    31    1
    34    19    32    1
    35    19    33    1
    36    19    34    1
@<TRIPOS>MOLECULE
mol_832_akc_1809_4392202203181c813
10621
 77 81 0 0 0
SMALL
GASTEIGER

@<TRIPOS>ATOM
      1 O          -0.1498    7.3188   -0.2613 O.3     1  UNL1       -0.3313
      2 O          -0.4318    4.5139   -0.3692 O.3     1  UNL1       -0.3461
      3 O          -1.2077    2.4601   -1.2669 O.3     1  UNL1       -0.3431
      4 O          -3.1768    6.9666   -2.3119 O.3     1  UNL1       -0.3865
      5 O           0.7786    9.1107    1.0297 O.3     1  UNL1       -0.4606
      6 O          -2.9448    9.8084   -2.1177 O.3     1  UNL1       -0.3864
      7 O          -1.5193   10.7509    0.2527 O.3     1  UNL1       -0.3829
      8 O           0.9610    1.1137   -0.0378 O.3     1  UNL1       -0.3841
      9 O           0.0914    1.5253    2.5666 O.3     1  UNL1       -0.3864
     10 O          -2.8058    1.7957    2.0060 O.3     1  UNL1       -0.3866
     11 O           5.2589    7.9040    1.8129 O.3     1  UNL1       -0.4828
     12 O           3.5843    8.2421   -2.7470 O.3     1  UNL1       -0.5058
     13 O           6.0012    7.4325   -2.1801 O.2     1  UNL1       -0.2917
     14 O          10.5201    7.6363    5.2762 O.3     1  UNL1       -0.4915
     15 O          10.2970    5.1697    3.4799 O.3     1  UNL1       -0.5033
     16 C          -1.3151    6.6911   -0.8039 C.3     1  UNL1        0.1144
     17 C          -1.9918    7.6050   -1.8201 C.3     1  UNL1        0.1120
     18 C          -2.3404    8.9421   -1.1485 C.3     1  UNL1        0.1152
     19 C          -1.1169    9.5813   -0.4751 C.3     1  UNL1        0.1454
     20 C           0.5619    2.4397    0.3652 C.3     1  UNL1        0.1341
     21 C          -0.0764    3.2094   -0.8043 C.3     1  UNL1        0.1879
     22 C          -0.4560    2.3238    1.5072 C.3     1  UNL1        0.1140
     23 C          -1.7758    1.7002    1.0136 C.3     1  UNL1        0.1095
     24 C          -0.4069    8.5403    0.4254 C.3     1  UNL1        0.2308
     25 C          -0.8823    5.3569   -1.4362 C.3     1  UNL1        0.0796
     26 C          -2.2525    2.3690   -0.2879 C.3     1  UNL1        0.0873
     27 C          -3.3995    1.5872   -0.9217 C.3     1  UNL1       -0.0361
     28 C           1.9839    8.7738    0.4728 C.ar    1  UNL1        0.1310
     29 C           3.0306    8.5162    1.3606 C.ar    1  UNL1        0.0229
     30 C           4.2850    8.1248    0.8780 C.ar    1  UNL1        0.1389
     31 C           2.2139    8.7093   -0.9045 C.ar    1  UNL1        0.0226
     32 C           6.3913    7.1420    1.3532 C.3     1  UNL1        0.1323
     33 C           4.4936    8.0171   -0.4992 C.ar    1  UNL1        0.1007
     34 C           6.9316    7.6488    0.0228 C.3     1  UNL1        0.0520
     35 C           3.4538    8.3125   -1.3782 C.ar    1  UNL1        0.1343
     36 C           5.8266    7.6461   -0.9836 C.2     1  UNL1        0.1740
     37 C           7.4944    7.2211    2.3989 C.ar    1  UNL1       -0.0033
     38 C           8.4361    6.1882    2.5220 C.ar    1  UNL1       -0.0098
     39 C           7.6403    8.3433    3.2215 C.ar    1  UNL1       -0.0514
     40 C           9.4702    6.2559    3.4686 C.ar    1  UNL1        0.1588
     41 C           8.6749    8.4078    4.1584 C.ar    1  UNL1       -0.0159
     42 C           9.6003    7.3663    4.3053 C.ar    1  UNL1        0.1613
     43 C          11.5697    6.7296    5.5550 C.3     1  UNL1        0.0790
     44 H          -2.0011    6.4656    0.0193 H       1  UNL1        0.0647
     45 H          -1.3364    7.7971   -2.6814 H       1  UNL1        0.0647
     46 H          -3.1254    8.7788   -0.3976 H       1  UNL1        0.0648
     47 H          -0.4359    9.9497   -1.2475 H       1  UNL1        0.0683
     48 H           1.4591    2.9507    0.7307 H       1  UNL1        0.0671
     49 H           0.6401    3.2666   -1.6320 H       1  UNL1        0.0937
     50 H          -0.6515    3.3112    1.9417 H       1  UNL1        0.0648
     51 H          -1.6117    0.6292    0.8431 H       1  UNL1        0.0646
     52 H          -1.0598    8.3119    1.2767 H       1  UNL1        0.1084
     53 H          -1.7222    4.8821   -1.9515 H       1  UNL1        0.0587
     54 H          -0.0567    5.5111   -2.1389 H       1  UNL1        0.0587
     55 H          -2.6339    3.3750   -0.0720 H       1  UNL1        0.0621
     56 H          -4.2878    1.5925   -0.2835 H       1  UNL1        0.0255
     57 H          -3.6652    2.0171   -1.8933 H       1  UNL1        0.0255
     58 H          -3.1086    0.5476   -1.1064 H       1  UNL1        0.0255
     59 H          -3.9155    7.6021   -2.2339 H       1  UNL1        0.2100
     60 H          -2.2404   10.3072   -2.5707 H       1  UNL1        0.2100
     61 H          -2.0999   10.4855    0.9881 H       1  UNL1        0.2102
     62 H           0.3594    0.8435   -0.7601 H       1  UNL1        0.2101
     63 H           0.5305    0.7677    2.1304 H       1  UNL1        0.2100
     64 H          -2.6286    2.5796    2.5546 H       1  UNL1        0.2100
     65 H           2.8631    8.5954    2.4336 H       1  UNL1        0.0691
     66 H           1.4392    8.9462   -1.6215 H       1  UNL1        0.0691
     67 H           6.0608    6.0969    1.2703 H       1  UNL1        0.0789
     68 H           7.7365    6.9999   -0.3390 H       1  UNL1        0.0385
     69 H           7.3110    8.6742    0.0952 H       1  UNL1        0.0385
     70 H           8.3718    5.3094    1.8829 H       1  UNL1        0.0659
     71 H           6.9521    9.1827    3.1436 H       1  UNL1        0.0623
     72 H           4.4930    7.9219   -2.9479 H       1  UNL1        0.2922
     73 H           8.7646    9.2938    4.7842 H       1  UNL1        0.0655
     74 H          10.4481    4.9303    4.4059 H       1  UNL1        0.2923
     75 H          11.1812    5.8292    6.0397 H       1  UNL1        0.0660
     76 H          12.1579    6.4955    4.6635 H       1  UNL1        0.0660
     77 H          12.2393    7.2116    6.2746 H       1  UNL1        0.0660
@<TRIPOS>BOND
     1     1    16    1
     2     1    24    1
     3     2    25    1
     4     3    21    1
     5     3    26    1
     6     4    17    1
     7     4    59    1
     8     5    24    1
     9     5    28    1
    10     6    18    1
    11     6    60    1
    12     7    19    1
    13     7    61    1
    14     8    20    1
    15     8    62    1
    16     9    22    1
    17     9    63    1
    18    10    23    1
    19    10    64    1
    20    11    30    1
    21    11    32    1
    22    12    35    1
    23    12    72    1
    24    13    36    2
    25    14    42    1
    26    14    43    1
    27    15    40    1
    28    15    74    1
    29    16    17    1
    30    16    25    1
    31    16    44    1
    32    17    18    1
    33    17    45    1
    34    18    19    1
    35    18    46    1
    36    19    24    1
    37    19    47    1
    38    20    21    1
    39    20    22    1
    40    20    48    1
    41    22    23    1
    42    22    50    1
    43    23    26    1
    44    23    51    1
    45    24    52    1
    46    25    53    1
    47    25    54    1
    48    26    27    1
    49    26    55    1
    50    27    56    1
    51    27    57    1
    52    27    58    1
    53    28    29   ar
    54    28    31   ar
    55    29    30   ar
    56    29    65    1
    57    30    33   ar
    58    31    35   ar
    59    31    66    1
    60    32    34    1
    61    33    35   ar
    62    33    36    1
    63    34    36    1
    64    34    68    1
    65    34    69    1
    66    37    38   ar
    67    37    39   ar
    68    38    40   ar
    69    38    70    1
    70    39    41   ar
    71    39    71    1
    72    40    42   ar
    73    41    42   ar
    74    41    73    1
    75    43    75    1
    76    43    76    1
    77    43    77    1
    78    21    49    1
    79    21     2    1
    80    32    67    1
    81    32    37    1
@<TRIPOS>MOLECULE
mol_833_akc_preprints2024010661v1
*****
 56 58 0 0 0
SMALL
GASTEIGER

@<TRIPOS>ATOM
      1 C          -1.4976    3.6066   -4.8805 C.ar    0  UNK0        0.0516
      2 N          -0.7235    3.8135   -5.9504 N.ar    0  UNK0       -0.2193
      3 C           0.5732    3.5718   -5.7512 C.ar    0  UNK0        0.2145
      4 N           1.1222    3.1523   -4.5993 N.ar    0  UNK0       -0.1998
      5 C           0.2976    2.9318   -3.5627 C.ar    0  UNK0        0.1249
      6 C          -1.0495    3.1597   -3.6534 C.ar    0  UNK0        0.0167
      7 C          -2.9911    3.7367   -4.9097 C.3     0  UNK0       -0.0094
      8 C          -3.3188    3.7143   -3.4137 C.3     0  UNK0       -0.0406
      9 C          -2.1912    2.9134   -2.7152 C.3     0  UNK0       -0.0092
     10 N           0.9011    2.4744   -2.3986 N.pl3   0  UNK0       -0.3428
     11 N           1.4272    3.7983   -6.8166 N.pl3   0  UNK0       -0.3274
     12 C          -2.0058    3.3421   -1.2584 C.3     0  UNK0       -0.0305
     13 C          -3.2094    2.9478   -0.3881 C.3     0  UNK0        0.0097
     14 N          -3.0819    3.5277    0.9423 N.pl3   0  UNK0       -0.3438
     15 C          -3.4797    4.8440    1.1956 C.ar    0  UNK0        0.0272
     16 C          -4.2746    7.0525    0.5102 C.ar    0  UNK0       -0.0479
     17 C          -3.9745    5.7161    0.2190 C.ar    0  UNK0       -0.0401
     18 C          -3.2634    5.3665    2.4768 C.ar    0  UNK0       -0.0401
     19 C          -3.5379    6.7087    2.7714 C.ar    0  UNK0       -0.0479
     20 C          -4.0406    7.5679    1.7869 C.ar    0  UNK0        0.0368
     21 C          -4.3237    8.9946    2.1467 C.2     0  UNK0        0.2446
     22 O          -4.2714    9.3311    3.3256 O.2     0  UNK0       -0.2702
     23 N          -4.6515    9.8270    1.1001 N.am    1  GLU1       -0.3034
     24 CA         -4.7094   11.3013    1.2312 C.3     1  GLU1        0.0632
     25 C          -3.3752   11.9862    0.7647 C.2     1  GLU1        0.0620
     26 CB         -5.9307   11.8605    0.4758 C.3     1  GLU1       -0.0241
     27 CG         -6.0068   11.5052   -1.0150 C.3     1  GLU1       -0.0112
     28 CD         -7.2968   11.9066   -1.7449 C.2     1  GLU1        0.0418
     29 O          -2.6468   11.2667    0.0071 O.co2   1  GLU1       -0.5479
     30 OXT        -3.1456   13.1416    1.2270 O.co2   1  GLU1       -0.5479
     31 OE1        -7.3398   11.5599   -2.9651 O.co2   1  GLU1       -0.5498
     32 OE2        -8.1843   12.5028   -1.0725 O.co2   1  GLU1       -0.5498
     33 H          -3.4318    2.8835   -5.4271 H       0  UNK0        0.0328
     34 H          -3.3153    4.6716   -5.3793 H       0  UNK0        0.0328
     35 H          -4.3083    3.2851   -3.2269 H       0  UNK0        0.0275
     36 H          -3.3393    4.7473   -3.0398 H       0  UNK0        0.0275
     37 H          -2.4294    1.8392   -2.7601 H       0  UNK0        0.0351
     38 H           0.4569    1.6458   -2.0273 H       0  UNK0        0.1437
     39 H           1.8887    2.3389   -2.5922 H       0  UNK0        0.1437
     40 H           0.9951    4.4939   -7.4113 H       0  UNK0        0.1452
     41 H           2.3379    4.0266   -6.4443 H       0  UNK0        0.1452
     42 H          -1.1164    2.8696   -0.8253 H       0  UNK0        0.0286
     43 H          -1.8185    4.4222   -1.2112 H       0  UNK0        0.0286
     44 H          -4.1705    3.2048   -0.8465 H       0  UNK0        0.0461
     45 H          -3.2140    1.8569   -0.2853 H       0  UNK0        0.0461
     46 H          -3.3362    2.9062    1.7057 H       0  UNK0        0.1461
     47 H          -4.6921    7.6706   -0.2803 H       0  UNK0        0.0626
     48 H          -4.1560    5.3893   -0.7983 H       0  UNK0        0.0636
     49 H          -2.8478    4.7383    3.2589 H       0  UNK0        0.0636
     50 H          -3.3458    7.0907    3.7719 H       0  UNK0        0.0626
     51 H          -4.2299    9.6045    0.2049 H       1  GLU1        0.1496
     52 HA         -4.8284   11.5367    2.2960 H       1  GLU1        0.0560
     53 HB1        -6.8362   11.4828    0.9691 H       1  GLU1        0.0290
     54 HB2        -5.9545   12.9527    0.5810 H       1  GLU1        0.0290
     55 HG1        -5.1666   11.9709   -1.5439 H       1  GLU1        0.0325
     56 HG2        -5.9104   10.4206   -1.1443 H       1  GLU1        0.0325
@<TRIPOS>UNITY_ATOM_ATTR
29 1
charge -1
32 1
charge -1
@<TRIPOS>BOND
     1     1     2   ar
     2     2     3   ar
     3     3     4   ar
     4     4     5   ar
     5     5     6   ar
     6     1     7    1
     7     1     6   ar
     8     6     9    1
     9     7     8    1
    10     8     9    1
    11     5    10    1
    12     3    11    1
    13    12    13    1
    14    13    14    1
    15    14    15    1
    16    17    15   ar
    17    15    18   ar
    18    16    17   ar
    19    18    19   ar
    20    19    20   ar
    21    16    20   ar
    22    20    21    1
    23    21    22    2
    24    21    23   am
    25    24    23    1
    26    24    25    1
    27    24    26    1
    28    26    27    1
    29    27    28    1
    30    25    29   ar
    31    25    30   ar
    32    28    31   ar
    33    28    32   ar
    34     7    33    1
    35     7    34    1
    36     8    35    1
    37     8    36    1
    38    10    38    1
    39    10    39    1
    40    11    40    1
    41    11    41    1
    42    12    42    1
    43    12    43    1
    44    13    44    1
    45    13    45    1
    46    14    46    1
    47    16    47    1
    48    17    48    1
    49    18    49    1
    50    19    50    1
    51    23    51    1
    52    24    52    1
    53    26    53    1
    54    26    54    1
    55    27    55    1
    56    27    56    1
    57     9    37    1
    58     9    12    1
@<TRIPOS>MOLECULE
mol_834_akc_jijantimicag2024107092
5281035
 57 60 0 0 0
SMALL
GASTEIGER

@<TRIPOS>ATOM
      1 N           0.0172    1.0895    0.0673 N.ar    1  UNL1       -0.3171
      2 N          -0.7389   -5.6209   -1.1131 N.ar    1  UNL1       -0.1936
      3 N          -2.8611  -10.8528   -0.9901 N.pl3   1  UNL1       -0.3360
      4 C          -0.8959    0.0150    0.1613 C.ar    1  UNL1        0.0281
      5 C          -0.1731   -1.1745    0.1059 C.ar    1  UNL1       -0.0038
      6 C          -1.2645   -6.8876   -1.1064 C.ar    1  UNL1        0.2152
      7 C           1.2956    0.5377   -0.0503 C.ar    1  UNL1        0.0215
      8 C          -1.3935   -7.5823    0.1170 C.ar    1  UNL1        0.0482
      9 C          -0.4498   -4.9838    0.0557 C.ar    1  UNL1        0.2080
     10 C           1.1832   -0.8343   -0.0311 C.ar    1  UNL1       -0.0334
     11 C          -0.2929    2.4950    0.0718 C.ar    1  UNL1        0.0465
     12 C          -0.7031   -2.5078    0.1499 C.2     1  UNL1       -0.0467
     13 C           0.0644   -3.6096    0.0615 C.2     1  UNL1        0.0103
     14 C          -1.9080   -8.8963    0.1385 C.ar    1  UNL1       -0.0272
     15 C          -2.3446   -9.5693   -1.0126 C.ar    1  UNL1        0.0302
     16 C          -1.0154   -6.9568    1.3027 C.ar    1  UNL1       -0.0420
     17 C          -0.5664   -5.6489    1.2743 C.ar    1  UNL1        0.0105
     18 C          -1.6907   -7.5481   -2.2645 C.ar    1  UNL1        0.0121
     19 C          -2.3779    0.2013    0.2061 C.3     1  UNL1       -0.0233
     20 C           2.5863    1.2874   -0.0781 C.3     1  UNL1       -0.0239
     21 C          -2.2167   -8.8487   -2.2096 C.ar    1  UNL1       -0.0344
     22 C          -0.4594   -4.9594   -2.4127 C.3     1  UNL1        0.1415
     23 C          -1.3222    3.0100    0.8690 C.ar    1  UNL1       -0.0378
     24 C           0.4386    3.3877   -0.7252 C.ar    1  UNL1       -0.0378
     25 C          -3.0414  -11.6597    0.2171 C.3     1  UNL1        0.0004
     26 C          -3.4102  -11.4621   -2.2054 C.3     1  UNL1        0.0004
     27 C          -1.6287    4.3769    0.8474 C.ar    1  UNL1       -0.0598
     28 C           0.1562    4.7578   -0.7172 C.ar    1  UNL1       -0.0598
     29 C          -0.8856    5.2507    0.0603 C.ar    1  UNL1       -0.0616
     30 H           2.0336   -1.5012   -0.0910 H       1  UNL1        0.0641
     31 H          -1.7810   -2.6163    0.2495 H       1  UNL1        0.0626
     32 H           1.1438   -3.5494   -0.0183 H       1  UNL1        0.0683
     33 H          -1.9705   -9.3846    1.1071 H       1  UNL1        0.0644
     34 H          -1.0845   -7.4763    2.2586 H       1  UNL1        0.0628
     35 H          -0.2905   -5.1559    2.2058 H       1  UNL1        0.0683
     36 H          -1.6514   -7.0861   -3.2467 H       1  UNL1        0.0684
     37 H          -2.7085    0.5228    1.1976 H       1  UNL1        0.0292
     38 H          -2.7130    0.9245   -0.5461 H       1  UNL1        0.0292
     39 H          -2.9160   -0.7303   -0.0032 H       1  UNL1        0.0292
     40 H           2.7739    1.7208   -1.0636 H       1  UNL1        0.0292
     41 H           2.6192    2.0641    0.6909 H       1  UNL1        0.0292
     42 H           3.4229    0.6052    0.1166 H       1  UNL1        0.0292
     43 H          -2.5293   -9.2896   -3.1547 H       1  UNL1        0.0638
     44 H           0.1126   -5.6589   -3.0307 H       1  UNL1        0.0993
     45 H          -1.4154   -4.7018   -2.8745 H       1  UNL1        0.0993
     46 H           0.1518   -4.0644   -2.2992 H       1  UNL1        0.0993
     47 H          -1.8779    2.3904    1.5624 H       1  UNL1        0.0638
     48 H           1.2104    3.0486   -1.4060 H       1  UNL1        0.0638
     49 H          -4.1085  -11.8436    0.3852 H       1  UNL1        0.0428
     50 H          -2.5459  -12.6283    0.0856 H       1  UNL1        0.0428
     51 H          -2.6385  -11.2280    1.1335 H       1  UNL1        0.0428
     52 H          -4.2339  -10.8601   -2.6054 H       1  UNL1        0.0428
     53 H          -2.6335  -11.5789   -2.9687 H       1  UNL1        0.0428
     54 H          -3.8126  -12.4621   -2.0060 H       1  UNL1        0.0428
     55 H          -2.4400    4.7621    1.4608 H       1  UNL1        0.0618
     56 H           0.7441    5.4367   -1.3306 H       1  UNL1        0.0618
     57 H          -1.1150    6.3135    0.0542 H       1  UNL1        0.0618
@<TRIPOS>UNITY_ATOM_ATTR
2 1
charge 1
@<TRIPOS>BOND
     1     1     4   ar
     2     1     7   ar
     3     1    11    1
     4     2     6   ar
     5     2     9   ar
     6     2    22    1
     7     3    15    1
     8     3    25    1
     9     3    26    1
    10     4     5   ar
    11     4    19    1
    12     5    10   ar
    13     5    12    1
    14     6     8   ar
    15     6    18   ar
    16     7    10   ar
    17     7    20    1
    18     8    14   ar
    19     8    16   ar
    20     9    13    1
    21     9    17   ar
    22    10    30    1
    23    11    23   ar
    24    11    24   ar
    25    12    13    2
    26    12    31    1
    27    13    32    1
    28    14    15   ar
    29    14    33    1
    30    15    21   ar
    31    16    17   ar
    32    16    34    1
    33    17    35    1
    34    18    21   ar
    35    18    36    1
    36    19    37    1
    37    19    38    1
    38    19    39    1
    39    20    40    1
    40    20    41    1
    41    20    42    1
    42    21    43    1
    43    22    44    1
    44    22    45    1
    45    22    46    1
    46    23    27   ar
    47    23    47    1
    48    24    28   ar
    49    24    48    1
    50    25    49    1
    51    25    50    1
    52    25    51    1
    53    26    52    1
    54    26    53    1
    55    26    54    1
    56    27    29   ar
    57    27    55    1
    58    28    29   ar
    59    28    56    1
    60    29    57    1
@<TRIPOS>MOLECULE
mol_835_akc_jijantimicag2024107092
6197
 43 44 0 0 0
SMALL
GASTEIGER

@<TRIPOS>ATOM
      1 O           1.8864   -0.3007   -0.0480 O.3     1  UNL1       -0.3911
      2 O           0.1240   -1.9772   -3.8214 O.2     1  UNL1       -0.2967
      3 O           3.5019   -2.6540    1.8614 O.2     1  UNL1       -0.2754
      4 O           1.1745   -6.1070    0.2939 O.2     1  UNL1       -0.2754
      5 N           2.2102   -4.4786    1.4749 N.am    1  UNL1       -0.2564
      6 C           1.0070   -0.3682   -2.2862 C.3     1  UNL1        0.0439
      7 C          -0.2611    1.8520   -2.3120 C.3     1  UNL1       -0.0425
      8 C           1.0992    1.1565   -2.4674 C.3     1  UNL1       -0.0385
      9 C           0.7865   -0.7831   -0.8195 C.3     1  UNL1        0.0650
     10 C          -1.4139   -0.2217   -3.2760 C.3     1  UNL1        0.0153
     11 C          -1.2465    1.2982   -3.3506 C.3     1  UNL1       -0.0411
     12 C          -0.0647   -0.9221   -3.2097 C.2     1  UNL1        0.1417
     13 C           0.6368   -2.3002   -0.6068 C.3     1  UNL1       -0.0225
     14 C           0.1413   -2.6905    0.8123 C.3     1  UNL1       -0.0222
     15 C          -0.1155    3.3658   -2.4618 C.3     1  UNL1       -0.0624
     16 C          -2.3303   -0.6668   -2.1412 C.3     1  UNL1       -0.0557
     17 C           1.1132   -2.3600    1.9446 C.3     1  UNL1        0.0277
     18 C          -0.1550   -4.1944    0.8868 C.3     1  UNL1        0.0277
     19 C           2.3843   -3.1516    1.7743 C.2     1  UNL1        0.2195
     20 C           1.1176   -5.0124    0.8448 C.2     1  UNL1        0.2195
     21 H           1.9715   -0.7784   -2.6189 H       1  UNL1        0.0403
     22 H           1.8222    1.5808   -1.7602 H       1  UNL1        0.0275
     23 H           1.4951    1.3678   -3.4704 H       1  UNL1        0.0275
     24 H          -0.6519    1.6675   -1.3051 H       1  UNL1        0.0299
     25 H          -0.1020   -0.2927   -0.4169 H       1  UNL1        0.0600
     26 H          -1.8811   -0.5457   -4.2161 H       1  UNL1        0.0375
     27 H          -2.2228    1.7860   -3.2424 H       1  UNL1        0.0274
     28 H          -0.8807    1.5557   -4.3539 H       1  UNL1        0.0274
     29 H          -0.0937   -2.7001   -1.3182 H       1  UNL1        0.0293
     30 H           1.5910   -2.7925   -0.8280 H       1  UNL1        0.0293
     31 H          -0.8003   -2.1559    0.9963 H       1  UNL1        0.0311
     32 H           0.2407    3.6374   -3.4609 H       1  UNL1        0.0232
     33 H          -1.0780    3.8614   -2.2973 H       1  UNL1        0.0232
     34 H           0.5937    3.7613   -1.7278 H       1  UNL1        0.0232
     35 H          -3.3749   -0.4582   -2.3927 H       1  UNL1        0.0236
     36 H          -2.2405   -1.7415   -1.9508 H       1  UNL1        0.0236
     37 H          -2.1195   -0.1448   -1.2033 H       1  UNL1        0.0236
     38 H           0.6786   -2.6284    2.9154 H       1  UNL1        0.0361
     39 H           1.3409   -1.2934    1.9987 H       1  UNL1        0.0361
     40 H          -0.6754   -4.4376    1.8213 H       1  UNL1        0.0361
     41 H          -0.8014   -4.5000    0.0580 H       1  UNL1        0.0361
     42 H           2.6907   -0.7974   -0.2879 H       1  UNL1        0.2098
     43 H           3.0643   -5.0056    1.3452 H       1  UNL1        0.1575
@<TRIPOS>BOND
     1     1     9    1
     2     1    42    1
     3     2    12    2
     4     3    19    2
     5     4    20    2
     6     5    19   am
     7     5    20   am
     8     5    43    1
     9     6     8    1
    10     6     9    1
    11     6    12    1
    12     6    21    1
    13     7     8    1
    14     7    11    1
    15     8    22    1
    16     8    23    1
    17     9    13    1
    18     9    25    1
    19    10    11    1
    20    10    12    1
    21    10    16    1
    22    10    26    1
    23    11    27    1
    24    11    28    1
    25    13    14    1
    26    13    29    1
    27    13    30    1
    28    14    17    1
    29    14    18    1
    30    14    31    1
    31    15    32    1
    32    15    33    1
    33    15    34    1
    34    16    35    1
    35    16    36    1
    36    16    37    1
    37    17    19    1
    38    17    38    1
    39    17    39    1
    40    18    20    1
    41    18    40    1
    42    18    41    1
    43     7    24    1
    44     7    15    1
@<TRIPOS>MOLECULE
mol_836_akc_pathogens13020104
*****
 52 54 0 0 0
SMALL
GASTEIGER

@<TRIPOS>ATOM
      1 C           3.8923    4.7712    1.3525 C.ar    1  UNL1       -0.0404
      2 C           5.0784    5.2598    1.9193 C.ar    1  UNL1       -0.0595
      3 C           5.1705    5.4893    3.2958 C.ar    1  UNL1       -0.0500
      4 C           4.0693    5.2198    4.1112 C.ar    1  UNL1        0.0566
      5 C           2.8904    4.7025    3.5339 C.ar    1  UNL1       -0.0288
      6 C           2.7796    4.4986    2.1513 C.ar    1  UNL1        0.0353
      7 N           1.5220    4.0664    1.6629 N.am    1  UNL1       -0.2695
      8 C           4.1270    5.4638    5.5994 C.3     1  UNL1        0.4175
      9 F           5.0659    6.3786    5.9650 F       1  UNL1       -0.1659
     10 C           1.0569    4.1988    0.3924 C.2     1  UNL1        0.3041
     11 O           1.7057    4.6100   -0.5728 O.2     1  UNL1       -0.2525
     12 N          -0.2568    3.9132    0.1611 N.am    1  UNL1       -0.2963
     13 C          -1.2346    2.9782    0.7343 C.3     1  UNL1        0.0248
     14 C          -1.6881    3.2314    2.1779 C.3     1  UNL1       -0.0311
     15 C          -0.8182    1.5280    0.4827 C.3     1  UNL1       -0.0311
     16 C          -1.7036    0.4714    1.1431 C.3     1  UNL1       -0.0141
     17 C          -2.2162    0.7899    2.5601 C.3     1  UNL1        0.1003
     18 C          -2.7702    2.2198    2.5839 C.3     1  UNL1       -0.0141
     19 O          -3.2358   -0.1915    2.7932 O.3     1  UNL1       -0.4888
     20 C          -3.6085   -0.5783    4.0440 C.ar    1  UNL1        0.1211
     21 C          -4.0277   -0.3235    6.4214 C.ar    1  UNL1       -0.0162
     22 C          -3.4466    0.1393    5.2244 C.ar    1  UNL1       -0.0165
     23 C          -4.2900   -1.7967    4.0866 C.ar    1  UNL1       -0.0165
     24 C          -4.8542   -2.2654    5.2770 C.ar    1  UNL1       -0.0162
     25 C          -4.7719   -1.5026    6.4399 C.ar    1  UNL1        0.1302
     26 O          -5.4076   -2.0370    7.5187 O.3     1  UNL1       -0.4057
     27 C          -6.0103   -1.1652    8.4653 C.3     1  UNL1        0.5752
     28 F          -6.0860    0.1207    8.0619 F       1  UNL1       -0.1328
     29 F          -7.2697   -1.5967    8.7060 F       1  UNL1       -0.1328
     30 F          -5.3206   -1.2188    9.6251 F       1  UNL1       -0.1328
     31 F           2.9457    5.9224    6.1011 F       1  UNL1       -0.1659
     32 F           4.4115    4.3306    6.2968 F       1  UNL1       -0.1659
     33 H           3.8713    4.6094    0.2737 H       1  UNL1        0.0636
     34 H           5.9359    5.4736    1.2753 H       1  UNL1        0.0618
     35 H           6.0890    5.8898    3.7091 H       1  UNL1        0.0623
     36 H           2.0420    4.4959    4.1822 H       1  UNL1        0.0642
     37 H           0.8060    3.9213    2.3574 H       1  UNL1        0.1564
     38 H          -0.4250    4.1239   -0.8101 H       1  UNL1        0.1505
     39 H          -2.1287    3.1588    0.1229 H       1  UNL1        0.0499
     40 H          -0.8625    3.1510    2.8888 H       1  UNL1        0.0284
     41 H          -2.0900    4.2478    2.2666 H       1  UNL1        0.0284
     42 H          -0.8383    1.3517   -0.6026 H       1  UNL1        0.0284
     43 H           0.2218    1.3722    0.7902 H       1  UNL1        0.0284
     44 H          -1.1632   -0.4845    1.1650 H       1  UNL1        0.0301
     45 H          -2.5692    0.2841    0.4910 H       1  UNL1        0.0301
     46 H          -1.3943    0.6721    3.2777 H       1  UNL1        0.0733
     47 H          -3.1529    2.4752    3.5763 H       1  UNL1        0.0301
     48 H          -3.6356    2.2946    1.9121 H       1  UNL1        0.0301
     49 H          -3.8908    0.2698    7.3237 H       1  UNL1        0.0655
     50 H          -2.9052    1.0771    5.2500 H       1  UNL1        0.0655
     51 H          -4.3941   -2.3903    3.1808 H       1  UNL1        0.0655
     52 H          -5.3844   -3.2141    5.2814 H       1  UNL1        0.0655
@<TRIPOS>BOND
     1     1     2   ar
     2     1     6   ar
     3     2     3   ar
     4     3     4   ar
     5     4     5   ar
     6     5     6   ar
     7     6     7    1
     8     4     8    1
     9     8     9    1
    10     7    10   am
    11    10    11    2
    12    10    12   am
    13    13    12    1
    14    14    13    1
    15    13    15    1
    16    14    18    1
    17    15    16    1
    18    16    17    1
    19    17    18    1
    20    19    20    1
    21    22    20   ar
    22    20    23   ar
    23    21    22   ar
    24    21    25   ar
    25    23    24   ar
    26    24    25   ar
    27    25    26    1
    28    26    27    1
    29    27    28    1
    30    27    29    1
    31    27    30    1
    32     8    31    1
    33     8    32    1
    34     1    33    1
    35     2    34    1
    36     3    35    1
    37     5    36    1
    38     7    37    1
    39    12    38    1
    40    13    39    1
    41    14    40    1
    42    14    41    1
    43    15    42    1
    44    15    43    1
    45    16    44    1
    46    16    45    1
    47    18    47    1
    48    18    48    1
    49    21    49    1
    50    22    50    1
    51    23    51    1
    52    24    52    1
    53    17    46    1
    54    17    19    1
@<TRIPOS>MOLECULE
mol_837_akc_jbmc201304063
*****
 33 35 0 0 0
SMALL
GASTEIGER

@<TRIPOS>ATOM
      1 C           0.0420   -0.7523    0.0117 C.ar    1  UNL1        0.0007
      2 C           1.2864   -1.4036    0.0138 C.ar    1  UNL1       -0.0494
      3 C           2.4773   -0.6724    0.0094 C.ar    1  UNL1       -0.0469
      4 C           2.4042    0.7218    0.0088 C.ar    1  UNL1       -0.0565
      5 C           1.1590    1.3646    0.0053 C.ar    1  UNL1       -0.0355
      6 C          -0.0345    0.6537    0.0066 C.ar    1  UNL1        0.0717
      7 N          -1.2121    1.3112    0.0019 N.ar    1  UNL1       -0.2467
      8 C          -2.3696    0.5980    0.0075 C.ar    1  UNL1        0.0717
      9 C          -2.3649   -0.7955    0.0057 C.ar    1  UNL1       -0.0351
     10 C          -1.1515   -1.4731    0.0115 C.ar    1  UNL1       -0.0505
     11 C          -3.6258    1.3799   -0.0268 C.ar    1  UNL1        0.0004
     12 C          -3.6786    2.6383   -0.6538 C.ar    1  UNL1       -0.0526
     13 C          -4.8762    3.3546   -0.7550 C.ar    1  UNL1       -0.0611
     14 C          -6.0499    2.8313   -0.2207 C.ar    1  UNL1       -0.0617
     15 C          -6.0223    1.6044    0.4333 C.ar    1  UNL1       -0.0611
     16 C          -4.8228    0.8926    0.5349 C.ar    1  UNL1       -0.0526
     17 C           3.8066   -1.3809    0.0473 C.3     1  UNL1       -0.0305
     18 C           4.2556   -1.6501    1.4754 C.3     1  UNL1       -0.0613
     19 H           1.3270   -2.4921    0.0215 H       1  UNL1        0.0627
     20 H           3.3108    1.3226    0.0145 H       1  UNL1        0.0621
     21 H           1.1199    2.4511    0.0040 H       1  UNL1        0.0639
     22 H          -3.2874   -1.3632   -0.0240 H       1  UNL1        0.0639
     23 H          -1.1483   -2.5597    0.0065 H       1  UNL1        0.0625
     24 H          -2.7742    3.0638   -1.0867 H       1  UNL1        0.0624
     25 H          -4.8888    4.3177   -1.2582 H       1  UNL1        0.0618
     26 H          -6.9830    3.3811   -0.3092 H       1  UNL1        0.0618
     27 H          -6.9326    1.1960    0.8645 H       1  UNL1        0.0618
     28 H          -4.8375   -0.0543    1.0694 H       1  UNL1        0.0624
     29 H           3.7349   -2.3279   -0.5022 H       1  UNL1        0.0311
     30 H           4.5625   -0.7831   -0.4757 H       1  UNL1        0.0311
     31 H           3.5301   -2.2737    2.0093 H       1  UNL1        0.0233
     32 H           5.2178   -2.1715    1.4791 H       1  UNL1        0.0233
     33 H           4.3719   -0.7167    2.0365 H       1  UNL1        0.0233
@<TRIPOS>BOND
     1     1     2   ar
     2     1     6   ar
     3     1    10   ar
     4     2     3   ar
     5     3     4   ar
     6     4     5   ar
     7     5     6   ar
     8     6     7   ar
     9     7     8   ar
    10     8     9   ar
    11     9    10   ar
    12     8    11    1
    13    11    12   ar
    14    11    16   ar
    15    12    13   ar
    16    13    14   ar
    17    14    15   ar
    18    15    16   ar
    19     3    17    1
    20    17    18    1
    21     2    19    1
    22     4    20    1
    23     5    21    1
    24     9    22    1
    25    10    23    1
    26    12    24    1
    27    13    25    1
    28    14    26    1
    29    15    27    1
    30    16    28    1
    31    17    29    1
    32    17    30    1
    33    18    31    1
    34    18    32    1
    35    18    33    1
@<TRIPOS>MOLECULE
mol_838_akc_aac02201_12
*****
 50 52 0 0 0
SMALL
GASTEIGER

@<TRIPOS>ATOM
      1 C           0.5683   -0.3152   -0.2371 C.ar    1  UNL1        0.2572
      2 C           1.5519   -1.2981    0.0562 C.ar    1  UNL1        0.1922
      3 C           2.8762   -0.9258    0.2689 C.ar    1  UNL1       -0.0127
      4 C           3.2323    0.4110    0.3415 C.ar    1  UNL1       -0.0496
      5 C           2.2855    1.4339    0.1735 C.ar    1  UNL1       -0.0042
      6 C           0.9387    1.0718   -0.1418 C.ar    1  UNL1        0.0579
      7 C          -0.0564    2.0385   -0.3748 C.ar    1  UNL1       -0.0420
      8 C          -1.3651    1.6743   -0.6183 C.ar    1  UNL1        0.0027
      9 C          -1.6725    0.3398   -0.7270 C.ar    1  UNL1        0.1716
     10 N          -0.7245   -0.6194   -0.6033 N.ar    1  UNL1       -0.1968
     11 C           2.7686    2.8223    0.3600 C.ar    1  UNL1       -0.0171
     12 C           3.9160    3.2819   -0.3118 C.ar    1  UNL1       -0.0538
     13 C           4.4290    4.5622   -0.0829 C.ar    1  UNL1       -0.0583
     14 C           3.7979    5.4255    0.8149 C.ar    1  UNL1       -0.0504
     15 C           2.6462    4.9907    1.4754 C.ar    1  UNL1       -0.0583
     16 C           2.1549    3.6981    1.2703 C.ar    1  UNL1       -0.0538
     17 C           4.3249    6.8097    1.0514 C.3     1  UNL1       -0.0397
     18 O           1.2334   -2.6372    0.0876 O.3     1  UNL1       -0.4857
     19 C           1.6509   -3.3127    1.2917 C.3     1  UNL1        0.0899
     20 C          -1.1345   -1.9940   -0.9703 C.3     1  UNL1        0.1411
     21 C           1.8031   -4.8130    1.0384 C.3     1  UNL1       -0.0186
     22 C           2.7410   -5.1950   -0.1127 C.3     1  UNL1       -0.0502
     23 C           4.2039   -4.7653    0.0202 C.3     1  UNL1       -0.0558
     24 C           4.9114   -5.3211    1.2449 C.3     1  UNL1       -0.0653
     25 H           3.6630   -1.6620    0.3987 H       1  UNL1        0.0656
     26 H           4.2731    0.6524    0.5642 H       1  UNL1        0.0625
     27 H           0.1747    3.1047   -0.3612 H       1  UNL1        0.0628
     28 H          -2.1351    2.4383   -0.7484 H       1  UNL1        0.0677
     29 H          -2.6895    0.0244   -0.9448 H       1  UNL1        0.1376
     30 H           4.4434    2.6373   -1.0134 H       1  UNL1        0.0624
     31 H           5.3324    4.8744   -0.6040 H       1  UNL1        0.0620
     32 H           2.1344    5.6522    2.1717 H       1  UNL1        0.0620
     33 H           1.2870    3.3828    1.8446 H       1  UNL1        0.0624
     34 H           3.7016    7.5420    0.5292 H       1  UNL1        0.0278
     35 H           4.3279    7.0382    2.1224 H       1  UNL1        0.0278
     36 H           5.3545    6.9108    0.6926 H       1  UNL1        0.0278
     37 H           2.5836   -2.9282    1.7155 H       1  UNL1        0.0696
     38 H           0.8677   -3.1576    2.0441 H       1  UNL1        0.0696
     39 H          -0.3902   -2.4174   -1.6489 H       1  UNL1        0.0993
     40 H          -1.2697   -2.5711   -0.0545 H       1  UNL1        0.0993
     41 H          -2.0813   -1.9587   -1.5193 H       1  UNL1        0.0993
     42 H           2.1274   -5.3015    1.9643 H       1  UNL1        0.0298
     43 H           0.8132   -5.2226    0.8003 H       1  UNL1        0.0298
     44 H           2.7115   -6.2866   -0.2247 H       1  UNL1        0.0266
     45 H           2.3442   -4.7841   -1.0492 H       1  UNL1        0.0266
     46 H           4.7413   -5.1071   -0.8729 H       1  UNL1        0.0263
     47 H           4.2836   -3.6770    0.0221 H       1  UNL1        0.0263
     48 H           4.8314   -6.4119    1.2863 H       1  UNL1        0.0230
     49 H           5.9758   -5.0631    1.2092 H       1  UNL1        0.0230
     50 H           4.5016   -4.9042    2.1694 H       1  UNL1        0.0230
@<TRIPOS>UNITY_ATOM_ATTR
10 1
charge 1
@<TRIPOS>BOND
     1     1     2   ar
     2     1     6   ar
     3     1    10   ar
     4     2     3   ar
     5     3     4   ar
     6     4     5   ar
     7     5     6   ar
     8     6     7   ar
     9     7     8   ar
    10     8     9   ar
    11     9    10   ar
    12     5    11    1
    13    11    12   ar
    14    11    16   ar
    15    12    13   ar
    16    13    14   ar
    17    14    15   ar
    18    15    16   ar
    19    14    17    1
    20     2    18    1
    21    18    19    1
    22    10    20    1
    23    19    21    1
    24    21    22    1
    25    22    23    1
    26    23    24    1
    27     3    25    1
    28     4    26    1
    29     7    27    1
    30     8    28    1
    31     9    29    1
    32    12    30    1
    33    13    31    1
    34    15    32    1
    35    16    33    1
    36    17    34    1
    37    17    35    1
    38    17    36    1
    39    19    37    1
    40    19    38    1
    41    20    39    1
    42    20    40    1
    43    20    41    1
    44    21    42    1
    45    21    43    1
    46    22    44    1
    47    22    45    1
    48    23    46    1
    49    23    47    1
    50    24    48    1
    51    24    49    1
    52    24    50    1
@<TRIPOS>MOLECULE
mol_839_akc_jbmcl201403065
*****
 38 40 0 0 0
SMALL
GASTEIGER

@<TRIPOS>ATOM
      1 C          -0.0815   -0.7300    0.1026 C.ar    1  UNL1        0.0230
      2 C          -1.3922   -1.2841    0.1271 C.ar    1  UNL1       -0.0296
      3 C          -2.5307   -0.4813    0.1926 C.ar    1  UNL1        0.0768
      4 C          -2.3897    0.8946    0.1610 C.ar    1  UNL1        0.1437
      5 C          -1.1250    1.4652    0.1267 C.ar    1  UNL1        0.0011
      6 C           0.0184    0.6892    0.1307 C.ar    1  UNL1        0.0762
      7 N           1.1814    1.3423    0.1334 N.ar    1  UNL1       -0.2471
      8 C           2.3241    0.6378    0.1190 C.ar    1  UNL1        0.0661
      9 C           2.3384   -0.7479    0.0530 C.ar    1  UNL1       -0.0146
     10 C           1.1353   -1.4742    0.0011 C.ar    1  UNL1        0.0412
     11 CL         -4.0833   -1.2115    0.3071 Cl      1  UNL1       -0.0806
     12 F          -3.4659    1.6960    0.1592 F       1  UNL1       -0.2039
     13 N           1.1518   -2.8475   -0.2806 N.pl3   1  UNL1       -0.3250
     14 O           1.3298   -5.6673   -0.7625 O.3     1  UNL1       -0.3767
     15 C           1.9347   -4.7359   -1.6748 C.3     1  UNL1        0.0634
     16 C           2.3270   -3.4186   -0.9831 C.3     1  UNL1        0.0357
     17 C           0.5881   -3.8248    0.6758 C.3     1  UNL1        0.0357
     18 C           0.1809   -5.0753   -0.1284 C.3     1  UNL1        0.0634
     19 C           3.5884    1.3937    0.1547 C.2     1  UNL1       -0.0380
     20 C           3.6700    2.7360    0.1422 C.2     1  UNL1       -0.0569
     21 C           4.9476    3.5026    0.2142 C.3     1  UNL1        0.0627
     22 O           5.0736    4.2992   -0.9519 O.3     1  UNL1       -0.3910
     23 H          -1.5376   -2.3560    0.0967 H       1  UNL1        0.0640
     24 H          -1.0403    2.5475    0.0912 H       1  UNL1        0.0668
     25 H           3.2939   -1.2589    0.0250 H       1  UNL1        0.0657
     26 H           1.2410   -4.5474   -2.5026 H       1  UNL1        0.0575
     27 H           2.8285   -5.2121   -2.0906 H       1  UNL1        0.0575
     28 H           3.1239   -3.6145   -0.2546 H       1  UNL1        0.0486
     29 H           2.7090   -2.7335   -1.7489 H       1  UNL1        0.0486
     30 H           1.3591   -4.0961    1.4084 H       1  UNL1        0.0486
     31 H          -0.2675   -3.4509    1.2397 H       1  UNL1        0.0486
     32 H          -0.2602   -5.8295    0.5300 H       1  UNL1        0.0575
     33 H          -0.5603   -4.8270   -0.9001 H       1  UNL1        0.0575
     34 H           4.4982    0.8013    0.1996 H       1  UNL1        0.0636
     35 H           2.7623    3.3354    0.0986 H       1  UNL1        0.0595
     36 H           4.9401    4.1644    1.0848 H       1  UNL1        0.0601
     37 H           5.8235    2.8510    0.2863 H       1  UNL1        0.0601
     38 H           4.9614    3.7072   -1.7145 H       1  UNL1        0.2098
@<TRIPOS>BOND
     1     1     2   ar
     2     1     6   ar
     3     1    10   ar
     4     2     3   ar
     5     3     4   ar
     6     4     5   ar
     7     5     6   ar
     8     6     7   ar
     9     7     8   ar
    10     8     9   ar
    11     9    10   ar
    12     3    11    1
    13     4    12    1
    14    10    13    1
    15    16    13    1
    16    13    17    1
    17    14    15    1
    18    14    18    1
    19    15    16    1
    20    17    18    1
    21     8    19    1
    22    19    20    2
    23    20    21    1
    24    21    22    1
    25     2    23    1
    26     5    24    1
    27     9    25    1
    28    15    26    1
    29    15    27    1
    30    16    28    1
    31    16    29    1
    32    17    30    1
    33    17    31    1
    34    18    32    1
    35    18    33    1
    36    19    34    1
    37    20    35    1
    38    21    36    1
    39    21    37    1
    40    22    38    1
@<TRIPOS>MOLECULE
mol_83_akc_molecules27175401
>82.sdf
 54 59 0 0 0
SMALL
GASTEIGER

@<TRIPOS>ATOM
      1 N          -1.3295   -0.1541   -2.1451 N.pl3   1  UNL1       -0.3430
      2 C          -0.1313    0.1797   -1.6239 C.ar    1  UNL1        0.1227
      3 C           0.6797    1.2518   -1.9129 C.ar    1  UNL1       -0.0022
      4 C           1.8508    1.0386   -1.1739 C.ar    1  UNL1        0.0517
      5 N           1.8138   -0.0818   -0.4609 N.ar    1  UNL1       -0.1707
      6 N           0.5852   -0.6253   -0.7256 N.ar    1  UNL1       -0.1861
      7 C           0.2673   -1.9209   -0.2702 C.2     1  UNL1        0.2521
      8 O          -0.9018   -2.2387   -0.0649 O.2     1  UNL1       -0.2705
      9 C           1.4281   -2.8807   -0.4718 C.3     1  UNL1        0.0403
     10 C           2.6006   -2.8867    0.5217 C.3     1  UNL1       -0.0367
     11 C           3.6589   -3.9542    0.1363 C.3     1  UNL1        0.0050
     12 C           3.5116   -4.4053   -1.3349 C.3     1  UNL1        0.2059
     13 C           2.1165   -5.0316   -1.5435 C.3     1  UNL1        0.0050
     14 C           1.0209   -4.3402   -0.7050 C.3     1  UNL1       -0.0367
     15 O           3.6946   -3.2596   -2.1699 O.3     1  UNL1       -0.1965
     16 O           5.1404   -3.1504   -2.2270 O.3     1  UNL1       -0.1960
     17 C           5.5370   -4.5154   -2.3455 C.3     1  UNL1        0.2114
     18 O           4.5150   -5.3284   -1.7422 O.3     1  UNL1       -0.3112
     19 C           5.7267   -4.8236   -3.8510 C.3     1  UNL1        0.0168
     20 C           6.8483   -3.9145   -4.4148 C.3     1  UNL1       -0.0424
     21 C           8.1650   -4.1698   -3.6575 C.3     1  UNL1       -0.0400
     22 C           8.5622   -5.6476   -3.8247 C.3     1  UNL1       -0.0473
     23 C           7.4514   -6.5616   -3.2768 C.3     1  UNL1       -0.0400
     24 C           6.1450   -6.2877   -4.0430 C.3     1  UNL1       -0.0424
     25 C           7.2488   -6.2536   -1.7815 C.3     1  UNL1       -0.0424
     26 C           6.8548   -4.7737   -1.5949 C.3     1  UNL1        0.0168
     27 C           7.9639   -3.8719   -2.1620 C.3     1  UNL1       -0.0424
     28 H          -1.8109   -1.0202   -1.8947 H       1  UNL1        0.1437
     29 H          -1.7473    0.3588   -2.9154 H       1  UNL1        0.1437
     30 H           0.4704    2.0589   -2.5979 H       1  UNL1        0.0667
     31 H           2.7478    1.6470   -1.1396 H       1  UNL1        0.0848
     32 H           1.7882   -2.5370   -1.4481 H       1  UNL1        0.0397
     33 H           2.2449   -3.0776    1.5420 H       1  UNL1        0.0274
     34 H           3.0947   -1.9110    0.5591 H       1  UNL1        0.0274
     35 H           3.5747   -4.8270    0.7965 H       1  UNL1        0.0318
     36 H           4.6576   -3.5415    0.3247 H       1  UNL1        0.0318
     37 H           2.1306   -6.1013   -1.3022 H       1  UNL1        0.0318
     38 H           1.8441   -4.9541   -2.6035 H       1  UNL1        0.0318
     39 H           0.9234   -4.8551    0.2622 H       1  UNL1        0.0274
     40 H           0.0491   -4.4381   -1.1990 H       1  UNL1        0.0274
     41 H           4.8007   -4.6305   -4.4007 H       1  UNL1        0.0354
     42 H           6.9895   -4.1153   -5.4847 H       1  UNL1        0.0272
     43 H           6.5667   -2.8577   -4.3321 H       1  UNL1        0.0272
     44 H           8.9560   -3.5256   -4.0574 H       1  UNL1        0.0301
     45 H           8.7429   -5.8686   -4.8834 H       1  UNL1        0.0271
     46 H           9.5012   -5.8441   -3.2925 H       1  UNL1        0.0271
     47 H           7.7376   -7.6109   -3.4045 H       1  UNL1        0.0301
     48 H           5.3493   -6.9570   -3.6954 H       1  UNL1        0.0272
     49 H           6.2874   -6.4956   -5.1114 H       1  UNL1        0.0272
     50 H           6.4749   -6.9120   -1.3679 H       1  UNL1        0.0272
     51 H           8.1701   -6.4657   -1.2269 H       1  UNL1        0.0272
     52 H           6.7277   -4.5642   -0.5266 H       1  UNL1        0.0354
     53 H           8.8980   -4.0461   -1.6139 H       1  UNL1        0.0272
     54 H           7.7085   -2.8150   -2.0189 H       1  UNL1        0.0272
@<TRIPOS>BOND
     1     1    28    1
     2     1    29    1
     3     2     1    1
     4     3     2   ar
     5     3    30    1
     6     4     3   ar
     7     4    31    1
     8     5     4   ar
     9     6     5   ar
    10     6     2   ar
    11     7     6   am
    12     8     7    2
    13    10     9    1
    14    10    33    1
    15    10    34    1
    16    11    10    1
    17    11    35    1
    18    11    36    1
    19    12    11    1
    20    13    12    1
    21    13    37    1
    22    13    38    1
    23    14    13    1
    24    14     9    1
    25    14    39    1
    26    14    40    1
    27    15    12    1
    28    16    15    1
    29    17    16    1
    30    18    17    1
    31    18    12    1
    32    19    17    1
    33    19    41    1
    34    20    19    1
    35    20    42    1
    36    20    43    1
    37    21    20    1
    38    21    44    1
    39    22    21    1
    40    22    45    1
    41    22    46    1
    42    23    22    1
    43    23    47    1
    44    24    23    1
    45    24    19    1
    46    24    48    1
    47    24    49    1
    48    25    23    1
    49    25    50    1
    50    25    51    1
    51    26    25    1
    52    26    17    1
    53    26    52    1
    54    27    26    1
    55    27    21    1
    56    27    53    1
    57    27    54    1
    58     9    32    1
    59     9     7    1
@<TRIPOS>MOLECULE
mol_840_akc_acsjmedchem5b00515
N-(3-chloro-4-((3-fluorobenzyl)oxy)phenyl)-7-(4-((4-methyl-1,4-diazepan-1-yl)sulfonyl)phenyl)cinnolin-4-amine
 75 80 0 0 0
SMALL
GASTEIGER

@<TRIPOS>ATOM
      1 C          -2.3666    0.5230   -0.3371 C.ar    1  UNL1       -0.0533
      2 C          -2.3314   -0.8746   -0.2328 C.ar    1  UNL1       -0.0158
      3 C          -1.0651   -1.4781   -0.1407 C.ar    1  UNL1       -0.0262
      4 C           0.1198   -0.7410   -0.0887 C.ar    1  UNL1        0.0957
      5 N           1.2997   -1.3731    0.0142 N.ar    1  UNL1       -0.1491
      6 N           2.4690   -0.6728    0.1183 N.ar    1  UNL1       -0.1552
      7 C           2.4300    0.6720    0.1455 C.ar    1  UNL1        0.0717
      8 C           1.2507    1.3951    0.0279 C.ar    1  UNL1        0.0607
      9 C           0.0553    0.6631   -0.1111 C.ar    1  UNL1        0.0248
     10 C          -1.1983    1.2808   -0.2746 C.ar    1  UNL1       -0.0501
     11 N           1.2088    2.8032    0.2483 N.pl3   1  UNL1       -0.3127
     12 C          -3.5907   -1.6472   -0.1314 C.ar    1  UNL1       -0.0177
     13 C          -4.7439   -1.2595   -0.8445 C.ar    1  UNL1       -0.0522
     14 C          -5.9890   -1.8423   -0.5906 C.ar    1  UNL1       -0.0348
     15 C          -6.0869   -2.8488    0.3662 C.ar    1  UNL1        0.1055
     16 C          -4.9515   -3.3136    1.0301 C.ar    1  UNL1       -0.0348
     17 C          -3.7141   -2.7148    0.7784 C.ar    1  UNL1       -0.0522
     18 S          -7.6751   -3.4599    0.8646 S.O2    1  UNL1        0.0609
     19 O          -7.7281   -3.3323    2.3060 O.2     1  UNL1       -0.1528
     20 O          -8.6891   -2.8599    0.0225 O.2     1  UNL1       -0.1528
     21 C          -7.6336   -5.3840   -1.0066 C.3     1  UNL1        0.0217
     22 N          -7.5951   -5.1229    0.4616 N.3     1  UNL1       -0.1753
     23 C          -8.6125   -5.9368    1.1945 C.3     1  UNL1        0.0332
     24 C          -8.0528   -7.3079    1.6221 C.3     1  UNL1        0.0130
     25 N          -7.3744   -8.1424    0.6158 N.3     1  UNL1       -0.3040
     26 C          -7.8323   -7.9420   -0.7554 C.3     1  UNL1       -0.0001
     27 C          -7.0972   -6.7575   -1.3841 C.3     1  UNL1       -0.0257
     28 C          -7.4054   -9.5499    1.0065 C.3     1  UNL1       -0.0127
     29 C           2.1733    3.7491   -0.1662 C.ar    1  UNL1        0.0330
     30 C           2.4401    4.8754    0.6187 C.ar    1  UNL1       -0.0186
     31 C           3.3329    5.8579    0.1747 C.ar    1  UNL1        0.0843
     32 C           3.9509    5.7489   -1.0797 C.ar    1  UNL1        0.1393
     33 C           3.6861    4.6255   -1.8628 C.ar    1  UNL1       -0.0167
     34 C           2.7995    3.6426   -1.4150 C.ar    1  UNL1       -0.0370
     35 O           4.8373    6.7255   -1.4495 O.3     1  UNL1       -0.4859
     36 C           4.8500    7.0850   -2.8361 C.3     1  UNL1        0.1148
     37 C           5.9366    6.3904   -3.6281 C.ar    1  UNL1       -0.0077
     38 C           7.1192    5.9474   -3.0195 C.ar    1  UNL1       -0.0201
     39 C           8.1236    5.3671   -3.7881 C.ar    1  UNL1        0.1238
     40 C           7.9830    5.2221   -5.1628 C.ar    1  UNL1       -0.0264
     41 C           6.8134    5.6577   -5.7815 C.ar    1  UNL1       -0.0587
     42 C           5.7968    6.2407   -5.0187 C.ar    1  UNL1       -0.0552
     43 F           9.2497    4.9500   -3.1945 F       1  UNL1       -0.2055
     44 CL          3.6194    7.2204    1.2001 Cl      1  UNL1       -0.0797
     45 H          -3.3132    1.0521   -0.4233 H       1  UNL1        0.0624
     46 H          -0.9820   -2.5623   -0.0817 H       1  UNL1        0.0646
     47 H           3.3903    1.1514    0.2939 H       1  UNL1        0.0867
     48 H          -1.2754    2.3633   -0.3515 H       1  UNL1        0.0625
     49 H           0.9106    2.9702    1.2089 H       1  UNL1        0.1522
     50 H          -4.6934   -0.4588   -1.5793 H       1  UNL1        0.0624
     51 H          -6.8720   -1.4716   -1.1064 H       1  UNL1        0.0637
     52 H          -5.0338   -4.1000    1.7779 H       1  UNL1        0.0637
     53 H          -2.8569   -3.0531    1.3586 H       1  UNL1        0.0624
     54 H          -8.6573   -5.2658   -1.3814 H       1  UNL1        0.0444
     55 H          -7.0140   -4.6463   -1.5283 H       1  UNL1        0.0444
     56 H          -8.9343   -5.4323    2.1121 H       1  UNL1        0.0456
     57 H          -9.5153   -6.0578    0.5857 H       1  UNL1        0.0456
     58 H          -7.3369   -7.1432    2.4363 H       1  UNL1        0.0439
     59 H          -8.8968   -7.8585    2.0590 H       1  UNL1        0.0439
     60 H          -7.5736   -8.8200   -1.3624 H       1  UNL1        0.0427
     61 H          -8.9221   -7.8400   -0.8260 H       1  UNL1        0.0427
     62 H          -7.1695   -6.8536   -2.4755 H       1  UNL1        0.0290
     63 H          -6.0264   -6.8157   -1.1473 H       1  UNL1        0.0290
     64 H          -8.4224   -9.9573    0.9901 H       1  UNL1        0.0391
     65 H          -6.7819  -10.1512    0.3352 H       1  UNL1        0.0391
     66 H          -6.9931   -9.6813    2.0131 H       1  UNL1        0.0391
     67 H           1.9610    4.9956    1.5875 H       1  UNL1        0.0652
     68 H           4.1641    4.4778   -2.8284 H       1  UNL1        0.0655
     69 H           2.5876    2.7962   -2.0628 H       1  UNL1        0.0637
     70 H           3.8618    6.9422   -3.2936 H       1  UNL1        0.0748
     71 H           5.0583    8.1609   -2.8758 H       1  UNL1        0.0748
     72 H           7.2723    6.0513   -1.9489 H       1  UNL1        0.0650
     73 H           8.7867    4.7784   -5.7410 H       1  UNL1        0.0646
     74 H           6.6964    5.5521   -6.8571 H       1  UNL1        0.0619
     75 H           4.8942    6.5848   -5.5212 H       1  UNL1        0.0621
@<TRIPOS>BOND
     1     1     2   ar
     2     2     3   ar
     3     3     4   ar
     4     4     5   ar
     5     5     6   ar
     6     6     7   ar
     7     7     8   ar
     8     8     9   ar
     9     4     9   ar
    10     9    10   ar
    11     1    10   ar
    12     8    11    1
    13    12    13   ar
    14    13    14   ar
    15    14    15   ar
    16    15    16   ar
    17    16    17   ar
    18    12    17   ar
    19    18    19    2
    20    18    20    2
    21    21    22    1
    22    22    23    1
    23    23    24    1
    24    24    25    1
    25    25    26    1
    26    26    27    1
    27    21    27    1
    28    25    28    1
    29    18    22    1
    30    15    18    1
    31     2    12    1
    32    29    30   ar
    33    30    31   ar
    34    31    32   ar
    35    32    33   ar
    36    33    34   ar
    37    29    34   ar
    38    36    37    1
    39    37    38   ar
    40    38    39   ar
    41    39    40   ar
    42    40    41   ar
    43    41    42   ar
    44    37    42   ar
    45    39    43    1
    46    35    36    1
    47    32    35    1
    48    31    44    1
    49    11    29    1
    50     1    45    1
    51     3    46    1
    52     7    47    1
    53    10    48    1
    54    11    49    1
    55    13    50    1
    56    14    51    1
    57    16    52    1
    58    17    53    1
    59    21    54    1
    60    21    55    1
    61    23    56    1
    62    23    57    1
    63    24    58    1
    64    24    59    1
    65    26    60    1
    66    26    61    1
    67    27    62    1
    68    27    63    1
    69    28    64    1
    70    28    65    1
    71    28    66    1
    72    30    67    1
    73    33    68    1
    74    34    69    1
    75    36    70    1
    76    36    71    1
    77    38    72    1
    78    40    73    1
    79    41    74    1
    80    42    75    1
@<TRIPOS>MOLECULE
mol_841_akc_s41598_017_00848_8
*****
 87 89 0 0 0
SMALL
GASTEIGER

@<TRIPOS>ATOM
      1 C          -7.6986    4.5760   -7.7094 C.ar    1  UNL1        0.0714
      2 C          -8.4252    5.5726   -8.3525 C.ar    1  UNL1       -0.0357
      3 C          -9.3574    5.2771   -9.3510 C.ar    1  UNL1       -0.0597
      4 C          -9.5708    3.9534   -9.7234 C.ar    1  UNL1       -0.0611
      5 C          -8.8551    2.9310   -9.1144 C.ar    1  UNL1       -0.0526
      6 C          -7.9084    3.2442   -8.1139 C.ar    1  UNL1        0.0004
      7 C          -7.1771    2.2478   -7.4584 C.ar    1  UNL1       -0.0508
      8 C          -6.2730    2.5916   -6.4565 C.ar    1  UNL1       -0.0375
      9 C          -6.1358    3.9319   -6.1174 C.ar    1  UNL1        0.0675
     10 N          -6.8247    4.9173   -6.7479 N.ar    1  UNL1       -0.2493
     11 C          -5.1423    4.3656   -5.0626 C.3     1  UNL1        0.0897
     12 O          -5.1268    3.4694   -3.9410 O.3     1  UNL1       -0.3719
     13 C          -4.2120    3.9412   -2.9491 C.3     1  UNL1        0.0677
     14 C          -4.0925    2.9283   -1.8157 C.3     1  UNL1        0.0665
     15 N          -3.0037    3.2944   -0.9399 N.ar    1  UNL1       -0.2492
     16 N          -0.9919    3.9208   -0.5383 N.ar    1  UNL1       -0.1327
     17 N          -1.7313    3.1847   -1.3522 N.ar    1  UNL1       -0.0653
     18 C          -3.0763    3.9781    0.2291 C.ar    1  UNL1        0.0505
     19 C          -1.7958    4.4693    0.4414 C.ar    1  UNL1        0.1133
     20 C          -1.2414    5.4804    1.4979 C.3     1  UNL1        0.2276
     21 P          -1.9418    5.1761    3.1610 P.3     1  UNL1        0.3579
     22 C           0.2761    5.5014    1.5833 C.3     1  UNL1        0.0425
     23 O          -3.3807    5.3787    2.7046 O.2     1  UNL1       -0.2568
     24 O          -1.6387    3.5574    3.1769 O.3     1  UNL1       -0.3041
     25 O          -2.6039    4.8883    4.7331 O.3     1  UNL1       -0.3041
     26 C          -0.9619    2.5245    2.5061 C.3     1  UNL1        0.0624
     27 C           0.3232    2.1951    3.2472 C.3     1  UNL1       -0.0385
     28 C          -1.8979    1.3076    2.4815 C.3     1  UNL1       -0.0385
     29 C          -3.3343    3.6936    5.0768 C.3     1  UNL1        0.0624
     30 C          -3.8216    3.8210    6.5178 C.3     1  UNL1       -0.0385
     31 C          -4.5293    3.3745    4.1767 C.3     1  UNL1       -0.0385
     32 C           0.8584    5.7301    0.1980 C.1     1  UNL1       -0.1034
     33 C           1.3579    5.9263   -0.9903 C.1     1  UNL1       -0.1191
     34 P          -1.8393    7.0919    0.8698 P.3     1  UNL1        0.3579
     35 O          -3.2686    6.6207    0.6461 O.2     1  UNL1       -0.2568
     36 O          -1.5664    7.9175    2.3558 O.3     1  UNL1       -0.3041
     37 O          -2.4045    8.6153    0.2760 O.3     1  UNL1       -0.3041
     38 C          -2.3696    8.1951    3.5627 C.3     1  UNL1        0.0624
     39 C          -1.3349    8.2832    4.6985 C.3     1  UNL1       -0.0385
     40 C          -3.1675    9.5195    3.8110 C.3     1  UNL1       -0.0385
     41 C          -3.3871    9.4854    0.7830 C.3     1  UNL1        0.0624
     42 C          -3.6167   10.6545   -0.1734 C.3     1  UNL1       -0.0385
     43 C          -4.7345    8.8368    1.1016 C.3     1  UNL1       -0.0385
     44 H          -8.2623    6.6105   -8.0596 H       1  UNL1        0.0639
     45 H          -9.9139    6.0807   -9.8271 H       1  UNL1        0.0618
     46 H         -10.3022    3.7150  -10.4920 H       1  UNL1        0.0618
     47 H          -9.0299    1.9029   -9.3930 H       1  UNL1        0.0624
     48 H          -7.3033    1.1995   -7.7262 H       1  UNL1        0.0625
     49 H          -5.6939    1.8264   -5.9451 H       1  UNL1        0.0636
     50 H          -4.1466    4.3952   -5.5200 H       1  UNL1        0.0625
     51 H          -5.4025    5.3731   -4.7138 H       1  UNL1        0.0625
     52 H          -3.2345    4.1071   -3.4176 H       1  UNL1        0.0578
     53 H          -4.5693    4.9002   -2.5545 H       1  UNL1        0.0578
     54 H          -5.0192    2.8892   -1.2306 H       1  UNL1        0.0532
     55 H          -3.9047    1.9174   -2.1919 H       1  UNL1        0.0532
     56 H          -4.0207    4.1779    0.7183 H       1  UNL1        0.0846
     57 H           0.6127    6.3070    2.2452 H       1  UNL1        0.0419
     58 H           0.6902    4.5737    1.9791 H       1  UNL1        0.0419
     59 H          -0.6886    2.7476    1.4856 H       1  UNL1        0.0595
     60 H           0.6058    2.9905    3.9447 H       1  UNL1        0.0255
     61 H           0.2527    1.2564    3.8062 H       1  UNL1        0.0255
     62 H           1.1382    2.0715    2.5247 H       1  UNL1        0.0255
     63 H          -2.7226    1.4653    1.7765 H       1  UNL1        0.0255
     64 H          -1.3770    0.3916    2.1874 H       1  UNL1        0.0255
     65 H          -2.3652    1.1407    3.4590 H       1  UNL1        0.0255
     66 H          -2.6333    2.8531    5.0763 H       1  UNL1        0.0595
     67 H          -4.7225    4.4405    6.5801 H       1  UNL1        0.0255
     68 H          -4.0686    2.8313    6.9196 H       1  UNL1        0.0255
     69 H          -3.0610    4.2780    7.1573 H       1  UNL1        0.0255
     70 H          -4.2202    3.1470    3.1528 H       1  UNL1        0.0255
     71 H          -5.0763    2.4996    4.5425 H       1  UNL1        0.0255
     72 H          -5.2238    4.2202    4.1273 H       1  UNL1        0.0255
     73 H           1.7579    6.0644   -1.9690 H       1  UNL1        0.1228
     74 H          -3.0730    7.3985    3.7334 H       1  UNL1        0.0595
     75 H          -1.7273    8.8107    5.5741 H       1  UNL1        0.0255
     76 H          -0.4469    8.8315    4.3660 H       1  UNL1        0.0255
     77 H          -1.0206    7.2893    5.0287 H       1  UNL1        0.0255
     78 H          -3.7160    9.4228    4.7574 H       1  UNL1        0.0255
     79 H          -2.5109   10.3924    3.9041 H       1  UNL1        0.0255
     80 H          -3.9655    9.7898    3.1280 H       1  UNL1        0.0255
     81 H          -2.9040    9.9770    1.6125 H       1  UNL1        0.0595
     82 H          -4.0638   10.3239   -1.1111 H       1  UNL1        0.0255
     83 H          -4.2754   11.3995    0.2932 H       1  UNL1        0.0255
     84 H          -2.6694   11.1464   -0.4129 H       1  UNL1        0.0255
     85 H          -4.6559    8.0634    1.8744 H       1  UNL1        0.0255
     86 H          -5.4549    9.5771    1.4655 H       1  UNL1        0.0255
     87 H          -5.1600    8.3604    0.2126 H       1  UNL1        0.0255
@<TRIPOS>BOND
     1     1     2   ar
     2     2     3   ar
     3     3     4   ar
     4     4     5   ar
     5     5     6   ar
     6     7     8   ar
     7     8     9   ar
     8     9    10   ar
     9     1     6   ar
    10     1    10   ar
    11     6     7   ar
    12     9    11    1
    13    11    12    1
    14    12    13    1
    15    13    14    1
    16    14    15    1
    17    17    15   ar
    18    15    18   ar
    19    16    17   ar
    20    18    19   ar
    21    16    19   ar
    22    19    20    1
    23    20    21    1
    24    20    22    1
    25    21    23    2
    26    21    24    1
    27    21    25    1
    28    24    26    1
    29    26    27    1
    30    26    28    1
    31    25    29    1
    32    29    30    1
    33    29    31    1
    34    22    32    1
    35    32    33    3
    36    20    34    1
    37    34    35    2
    38    34    36    1
    39    34    37    1
    40    36    38    1
    41    38    39    1
    42    38    40    1
    43    37    41    1
    44    41    42    1
    45    41    43    1
    46     2    44    1
    47     3    45    1
    48     4    46    1
    49     5    47    1
    50     7    48    1
    51     8    49    1
    52    11    50    1
    53    11    51    1
    54    13    52    1
    55    13    53    1
    56    14    54    1
    57    14    55    1
    58    18    56    1
    59    22    57    1
    60    22    58    1
    61    26    59    1
    62    27    60    1
    63    27    61    1
    64    27    62    1
    65    28    63    1
    66    28    64    1
    67    28    65    1
    68    29    66    1
    69    30    67    1
    70    30    68    1
    71    30    69    1
    72    31    70    1
    73    31    71    1
    74    31    72    1
    75    33    73    1
    76    38    74    1
    77    39    75    1
    78    39    76    1
    79    39    77    1
    80    40    78    1
    81    40    79    1
    82    40    80    1
    83    41    81    1
    84    42    82    1
    85    42    83    1
    86    42    84    1
    87    43    85    1
    88    43    86    1
    89    43    87    1
@<TRIPOS>MOLECULE
mol_842_akc_bcpt12990
*****
 18 19 0 0 0
SMALL
GASTEIGER

@<TRIPOS>ATOM
      1 C          -0.0109   -0.7003   -0.0409 C.ar    1  UNL1        0.1146
      2 C           1.2215   -1.3711   -0.0505 C.ar    1  UNL1        0.1558
      3 C           2.4388   -0.6808   -0.0324 C.ar    1  UNL1        0.0583
      4 C           2.4488    0.7062    0.0109 C.ar    1  UNL1       -0.0260
      5 C           1.2372    1.3975    0.0293 C.ar    1  UNL1        0.0513
      6 C          -0.0044    0.7142   -0.0035 C.ar    1  UNL1        0.0223
      7 C          -1.2601    1.3644   -0.0054 C.ar    1  UNL1       -0.0496
      8 C          -2.4407    0.6344   -0.0480 C.ar    1  UNL1       -0.0430
      9 C          -2.3427   -0.7372   -0.0792 C.ar    1  UNL1        0.0284
     10 N          -1.1686   -1.3993   -0.0736 N.ar    1  UNL1       -0.2512
     11 O           1.2079   -2.7500   -0.0829 O.3     1  UNL1       -0.5036
     12 I           4.2702   -1.6879   -0.0816 I       1  UNL1       -0.0399
     13 CL          1.3311    3.1281    0.0877 Cl      1  UNL1       -0.0828
     14 H           3.3859    1.2570    0.0277 H       1  UNL1        0.0644
     15 H          -1.3297    2.4495    0.0199 H       1  UNL1        0.0625
     16 H          -3.4071    1.1257   -0.0580 H       1  UNL1        0.0633
     17 H          -3.2275   -1.3662   -0.1132 H       1  UNL1        0.0830
     18 H           2.1264   -3.0675   -0.0807 H       1  UNL1        0.2923
@<TRIPOS>BOND
     1     1     2   ar
     2     2     3   ar
     3     3     4   ar
     4     4     5   ar
     5     5     6   ar
     6     7     8   ar
     7     8     9   ar
     8     9    10   ar
     9     1     6   ar
    10     1    10   ar
    11     6     7   ar
    12     2    11    1
    13     3    12    1
    14     5    13    1
    15     4    14    1
    16     7    15    1
    17     8    16    1
    18     9    17    1
    19    11    18    1
@<TRIPOS>MOLECULE
mol_843_akc_jbiopha201101003
*****
 41 42 0 0 0
SMALL
GASTEIGER

@<TRIPOS>ATOM
      1 C          -2.4995    0.0417   -2.6555 C.ar    1  UNL1        0.0741
      2 C          -3.1487    0.9365   -3.4932 C.ar    1  UNL1       -0.0173
      3 C          -4.4904    1.2521   -3.3155 C.ar    1  UNL1        0.0430
      4 C          -5.1972    0.7070   -2.2580 C.ar    1  UNL1       -0.0426
      5 C          -4.5542   -0.1792   -1.3959 C.ar    1  UNL1       -0.0494
      6 C          -3.2131   -0.5889   -1.6035 C.ar    1  UNL1        0.0213
      7 C          -2.5138   -1.5617   -0.8315 C.ar    1  UNL1        0.0380
      8 C          -1.1385   -1.7101   -1.0509 C.ar    1  UNL1       -0.0221
      9 C          -0.5346   -1.0086   -2.0727 C.ar    1  UNL1        0.0300
     10 N          -1.2006   -0.1746   -2.8889 N.ar    1  UNL1       -0.2548
     11 CL         -5.2748    2.3430   -4.3857 Cl      1  UNL1       -0.0835
     12 N          -3.0367   -2.3613    0.1956 N.pl3   1  UNL1       -0.3382
     13 C          -4.3851   -2.9234    0.2216 C.3     1  UNL1        0.0493
     14 C          -4.7760   -3.6634   -1.0854 C.3     1  UNL1       -0.0126
     15 N          -6.2789   -4.0831   -1.1826 N.4     1  UNL1        0.2597
     16 C          -6.6382   -4.9832   -0.0045 C.3     1  UNL1       -0.0393
     17 C          -7.1913   -2.8437   -1.2193 C.3     1  UNL1        0.0333
     18 C          -6.4684   -4.9132   -2.4812 C.3     1  UNL1        0.0333
     19 C          -8.6148   -3.1950   -1.2701 C.1     1  UNL1       -0.0561
     20 C          -9.7856   -3.4651   -1.2764 C.1     1  UNL1       -0.1140
     21 C          -6.1035   -4.1528   -3.6851 C.1     1  UNL1       -0.0561
     22 C          -5.7903   -3.5388   -4.6655 C.1     1  UNL1       -0.1140
     23 H          -2.5850    1.4045   -4.2972 H       1  UNL1        0.0653
     24 H          -6.2334    0.9860   -2.0851 H       1  UNL1        0.0632
     25 H          -5.1105   -0.5015   -0.5289 H       1  UNL1        0.0625
     26 H          -0.5429   -2.3903   -0.4496 H       1  UNL1        0.0651
     27 H           0.5285   -1.1093   -2.2761 H       1  UNL1        0.0830
     28 H          -2.7457   -1.9804    1.1007 H       1  UNL1        0.1463
     29 H          -4.4026   -3.6492    1.0427 H       1  UNL1        0.0514
     30 H          -5.1023   -2.1593    0.5149 H       1  UNL1        0.0514
     31 H          -4.5672   -3.0461   -1.9614 H       1  UNL1        0.0831
     32 H          -4.1869   -4.5853   -1.1715 H       1  UNL1        0.0831
     33 H          -6.5794   -4.3981    0.9170 H       1  UNL1        0.0779
     34 H          -7.6522   -5.3702   -0.1374 H       1  UNL1        0.0779
     35 H          -5.9286   -5.8157    0.0220 H       1  UNL1        0.0779
     36 H          -7.0066   -2.2744   -0.3045 H       1  UNL1        0.0960
     37 H          -6.8959   -2.2248   -2.0716 H       1  UNL1        0.0960
     38 H          -5.8388   -5.8039   -2.3818 H       1  UNL1        0.0960
     39 H          -7.5128   -5.2408   -2.5219 H       1  UNL1        0.0960
     40 H         -10.8302   -3.6894   -1.2670 H       1  UNL1        0.1230
     41 H          -5.5008   -3.0002   -5.5428 H       1  UNL1        0.1230
@<TRIPOS>UNITY_ATOM_ATTR
15 1
charge 1
@<TRIPOS>BOND
     1     1     2   ar
     2     2     3   ar
     3     3     4   ar
     4     4     5   ar
     5     5     6   ar
     6     7     8   ar
     7     8     9   ar
     8     9    10   ar
     9     1     6   ar
    10     1    10   ar
    11     6     7   ar
    12     3    11    1
    13     7    12    1
    14    12    13    1
    15    13    14    1
    16    14    15    1
    17    15    16    1
    18    15    17    1
    19    15    18    1
    20    17    19    1
    21    19    20    3
    22    18    21    1
    23    21    22    3
    24     2    23    1
    25     4    24    1
    26     5    25    1
    27     8    26    1
    28     9    27    1
    29    12    28    1
    30    13    29    1
    31    13    30    1
    32    14    31    1
    33    14    32    1
    34    16    33    1
    35    16    34    1
    36    16    35    1
    37    17    36    1
    38    17    37    1
    39    18    38    1
    40    18    39    1
    41    20    40    1
    42    22    41    1
@<TRIPOS>MOLECULE
mol_844_akc_jbmcl2019126725
*****
 33 35 0 0 0
SMALL
GASTEIGER

@<TRIPOS>ATOM
      1 C           1.8063    1.3686   -0.0298 C.ar    1  UNL1       -0.0599
      2 C           0.4174    1.5618   -0.0365 C.ar    1  UNL1       -0.0393
      3 C          -0.4276    0.4585   -0.0632 C.ar    1  UNL1        0.0480
      4 C           0.1504   -0.8283   -0.0825 C.ar    1  UNL1        0.0352
      5 C           1.5220   -1.0344   -0.0813 C.ar    1  UNL1       -0.0461
      6 C           2.3552    0.0802   -0.0534 C.ar    1  UNL1       -0.0606
      7 N          -1.8389    0.4557   -0.0641 N.pl3   1  UNL1       -0.2969
      8 C          -2.3573   -0.8395   -0.0279 C.2     1  UNL1        0.0732
      9 S          -1.0828   -2.1136   -0.0849 S.3     1  UNL1       -0.0721
     10 C          -3.6569   -1.2032    0.0577 C.2     1  UNL1       -0.0260
     11 C          -4.0849   -2.6042    0.1399 C.ar    1  UNL1       -0.0116
     12 C          -2.5535    1.7160   -0.0003 C.3     1  UNL1        0.0063
     13 C          -4.1218   -3.2379    1.3797 C.ar    1  UNL1        0.0093
     14 C          -4.2229   -4.6205    1.4275 C.ar    1  UNL1        0.1715
     15 N          -4.2964   -5.3461    0.2887 N.ar    1  UNL1       -0.2064
     16 C          -4.3385   -4.7399   -0.9191 C.ar    1  UNL1        0.1715
     17 C          -4.2404   -3.3586   -1.0202 C.ar    1  UNL1        0.0093
     18 C          -4.2442   -6.8144    0.3776 C.3     1  UNL1        0.1404
     19 H           2.4690    2.2316   -0.0039 H       1  UNL1        0.0618
     20 H           0.0301    2.5750   -0.0156 H       1  UNL1        0.0636
     21 H           1.9397   -2.0358   -0.0967 H       1  UNL1        0.0629
     22 H           3.4349   -0.0497   -0.0468 H       1  UNL1        0.0618
     23 H          -4.4496   -0.4648    0.0989 H       1  UNL1        0.0647
     24 H          -2.3382    2.2367    0.9395 H       1  UNL1        0.0432
     25 H          -2.2730    2.3659   -0.8370 H       1  UNL1        0.0432
     26 H          -3.6378    1.5836   -0.0574 H       1  UNL1        0.0432
     27 H          -3.9854   -2.6710    2.2988 H       1  UNL1        0.0683
     28 H          -4.1927   -5.1621    2.3687 H       1  UNL1        0.1376
     29 H          -4.3988   -5.3689   -1.8026 H       1  UNL1        0.1376
     30 H          -4.1982   -2.8873   -2.0004 H       1  UNL1        0.0683
     31 H          -3.2461   -7.0825    0.7377 H       1  UNL1        0.0993
     32 H          -5.0148   -7.1431    1.0781 H       1  UNL1        0.0993
     33 H          -4.4171   -7.2561   -0.6062 H       1  UNL1        0.0993
@<TRIPOS>UNITY_ATOM_ATTR
15 1
charge 1
@<TRIPOS>BOND
     1     1     2   ar
     2     2     3   ar
     3     4     5   ar
     4     5     6   ar
     5     1     6   ar
     6     3     7    1
     7     3     4   ar
     8     4     9    1
     9     7     8    1
    10     8     9    1
    11     8    10    2
    12    10    11    1
    13     7    12    1
    14    11    13   ar
    15    11    17   ar
    16    13    14   ar
    17    14    15   ar
    18    15    16   ar
    19    16    17   ar
    20    15    18    1
    21     1    19    1
    22     2    20    1
    23     5    21    1
    24     6    22    1
    25    10    23    1
    26    12    24    1
    27    12    25    1
    28    12    26    1
    29    13    27    1
    30    14    28    1
    31    16    29    1
    32    17    30    1
    33    18    31    1
    34    18    32    1
    35    18    33    1
@<TRIPOS>MOLECULE
mol_845_akc_acsmedchemlett9b00453
*****
 55 59 0 0 0
SMALL
GASTEIGER

@<TRIPOS>ATOM
      1 C           0.0436   -0.9103   -0.1020 C.ar    1  UNL1        0.0216
      2 C           0.0753    0.3208    0.5862 C.ar    1  UNL1       -0.0502
      3 C           1.2219    1.1212    0.5817 C.ar    1  UNL1       -0.0532
      4 C           2.3830    0.7127   -0.0866 C.ar    1  UNL1       -0.0129
      5 C           2.3289   -0.5201   -0.7644 C.ar    1  UNL1       -0.0279
      6 C           1.1956   -1.3227   -0.7993 C.ar    1  UNL1        0.0733
      7 N           1.2574   -2.4662   -1.4970 N.ar    1  UNL1       -0.2548
      8 C           0.1598   -3.2444   -1.5388 C.ar    1  UNL1        0.0300
      9 C          -1.0146   -2.9460   -0.8810 C.ar    1  UNL1       -0.0217
     10 C          -1.0761   -1.7788   -0.1150 C.ar    1  UNL1        0.0431
     11 N          -2.2580   -1.4305    0.5864 N.pl3   1  UNL1       -0.2977
     12 C          -3.2246   -2.3022    1.1079 C.ar    1  UNL1        0.1412
     13 N          -3.8075   -4.3775    2.2295 N.ar    1  UNL1       -0.2583
     14 C          -2.8915   -3.5087    1.7315 C.ar    1  UNL1        0.0676
     15 N          -4.5147   -1.9142    1.0144 N.ar    1  UNL1       -0.2371
     16 C          -5.4330   -2.7729    1.5211 C.ar    1  UNL1        0.0478
     17 C          -5.0890   -3.9789    2.1071 C.ar    1  UNL1        0.0458
     18 C           3.6189    1.5131   -0.0632 C.ar    1  UNL1        0.0185
     19 C           4.5463    1.5351   -1.0875 C.ar    1  UNL1        0.0403
     20 N           5.7226    2.2024   -1.0575 N.ar    1  UNL1       -0.2222
     21 C           6.0102    2.9094    0.0430 C.ar    1  UNL1        0.2178
     22 N           5.1580    2.9962    1.0755 N.ar    1  UNL1       -0.2222
     23 C           4.0029    2.3001    1.0035 C.ar    1  UNL1        0.0403
     24 N           7.2606    3.4673    0.1770 N.pl3   1  UNL1       -0.2971
     25 C           7.4321    4.5343    1.1633 C.3     1  UNL1        0.0293
     26 C           8.9046    4.5760    1.6189 C.3     1  UNL1        0.0360
     27 N           9.8775    4.6543    0.4772 N.3     1  UNL1       -0.1784
     28 C           9.6031    3.5590   -0.5206 C.3     1  UNL1        0.0360
     29 C           8.1357    3.5489   -0.9948 C.3     1  UNL1        0.0293
     30 S          10.1570    6.1802   -0.2016 S.O2    1  UNL1        0.0291
     31 O          11.1006    6.0144   -1.2864 O.2     1  UNL1       -0.1583
     32 O           8.8831    6.8263   -0.4161 O.2     1  UNL1       -0.1583
     33 C          11.0051    7.0251    1.1204 C.3     1  UNL1        0.0707
     34 H          -0.7961    0.6657    1.1392 H       1  UNL1        0.0625
     35 H           1.1846    2.0698    1.1136 H       1  UNL1        0.0624
     36 H           3.2101   -0.9017   -1.2791 H       1  UNL1        0.0645
     37 H           0.2529   -4.1456   -2.1381 H       1  UNL1        0.0830
     38 H          -1.8622   -3.6148   -0.9791 H       1  UNL1        0.0651
     39 H          -2.7491   -0.6522    0.1519 H       1  UNL1        0.1536
     40 H          -1.8571   -3.8136    1.8486 H       1  UNL1        0.0865
     41 H          -6.4685   -2.4609    1.4406 H       1  UNL1        0.0846
     42 H          -5.8394   -4.6577    2.4976 H       1  UNL1        0.0845
     43 H           4.3857    0.9857   -2.0117 H       1  UNL1        0.0837
     44 H           3.3918    2.3859    1.8976 H       1  UNL1        0.0837
     45 H           7.1234    5.4912    0.7310 H       1  UNL1        0.0478
     46 H           6.8268    4.3780    2.0626 H       1  UNL1        0.0478
     47 H           9.1353    3.6575    2.1751 H       1  UNL1        0.0459
     48 H           9.0592    5.3995    2.3206 H       1  UNL1        0.0459
     49 H           9.8347    2.6048   -0.0272 H       1  UNL1        0.0459
     50 H          10.2840    3.6305   -1.3745 H       1  UNL1        0.0459
     51 H           8.0168    2.6893   -1.6637 H       1  UNL1        0.0478
     52 H           7.9092    4.4534   -1.5709 H       1  UNL1        0.0478
     53 H          10.3265    7.1622    1.9627 H       1  UNL1        0.0479
     54 H          11.8821    6.4444    1.4086 H       1  UNL1        0.0479
     55 H          11.3144    8.0026    0.7449 H       1  UNL1        0.0479
@<TRIPOS>BOND
     1     1     2   ar
     2     2     3   ar
     3     3     4   ar
     4     4     5   ar
     5     5     6   ar
     6     7     8   ar
     7     8     9   ar
     8     9    10   ar
     9     1     6   ar
    10     1    10   ar
    11     6     7   ar
    12    10    11    1
    13    11    12    1
    14    14    12   ar
    15    12    15   ar
    16    13    14   ar
    17    15    16   ar
    18    16    17   ar
    19    13    17   ar
    20     4    18    1
    21    23    18   ar
    22    19    18   ar
    23    19    20   ar
    24    20    21   ar
    25    21    22   ar
    26    22    23   ar
    27    21    24    1
    28    29    24    1
    29    25    24    1
    30    25    26    1
    31    26    27    1
    32    27    28    1
    33    28    29    1
    34    27    30    1
    35    30    31    2
    36    30    32    2
    37    30    33    1
    38     2    34    1
    39     3    35    1
    40     5    36    1
    41     8    37    1
    42     9    38    1
    43    11    39    1
    44    14    40    1
    45    16    41    1
    46    17    42    1
    47    19    43    1
    48    23    44    1
    49    25    45    1
    50    25    46    1
    51    26    47    1
    52    26    48    1
    53    28    49    1
    54    28    50    1
    55    29    51    1
    56    29    52    1
    57    33    53    1
    58    33    54    1
    59    33    55    1
@<TRIPOS>MOLECULE
mol_846_akc_jhet4414
Methyl 4-(7-fluoro-8-methyl-3-([4-phenyl-1H-1,2,3-triazol-1-yl]methyl)quinolin-2-yl)piperazine-1-carboxylate
 59 63 0 0 0
SMALL
GASTEIGER

@<TRIPOS>ATOM
      1 C           0.9596    1.0771    0.1793 C.3     1  UNL1        0.0336
      2 C           0.0296    0.1195    0.9249 C.3     1  UNL1        0.0295
      3 N          -1.3206    0.1111    0.3525 N.pl3   1  UNL1       -0.3119
      4 C          -1.3670   -0.1317   -1.1058 C.3     1  UNL1        0.0295
      5 C          -0.3806    0.7928   -1.8646 C.3     1  UNL1        0.0336
      6 N           0.9517    0.8134   -1.2509 N.am    1  UNL1       -0.2645
      7 C           2.1006    0.7604   -2.0069 C.2     1  UNL1        0.4027
      8 O           2.1220    0.6461   -3.2300 O.2     1  UNL1       -0.2263
      9 O           3.2217    0.8388   -1.2388 O.3     1  UNL1       -0.4535
     10 C          -7.0027    1.6490    1.5423 C.ar    1  UNL1        0.1283
     11 C          -5.8682    1.4476    0.7381 C.ar    1  UNL1        0.0107
     12 C          -4.7450    0.7681    1.2464 C.ar    1  UNL1        0.0787
     13 C          -4.8585    0.2543    2.5488 C.ar    1  UNL1        0.0013
     14 C          -6.0114    0.4280    3.3301 C.ar    1  UNL1       -0.0498
     15 C          -7.0795    1.1519    2.8337 C.ar    1  UNL1       -0.0255
     16 C          -3.7805   -0.4429    3.0718 C.ar    1  UNL1       -0.0443
     17 C          -2.5787   -0.5725    2.3604 C.ar    1  UNL1        0.0144
     18 C          -2.4828    0.0224    1.0925 C.ar    1  UNL1        0.1270
     19 N          -3.5837    0.6185    0.5488 N.ar    1  UNL1       -0.2313
     20 C          -1.5133   -1.3890    3.0560 C.3     1  UNL1        0.0714
     21 N          -1.0401   -2.5198    2.2840 N.ar    1  UNL1       -0.2467
     22 N           0.2291   -2.9445    2.4421 N.ar    1  UNL1       -0.0648
     23 N           0.3849   -4.0145    1.6741 N.ar    1  UNL1       -0.1295
     24 C          -0.8095   -4.2675    1.0535 C.ar    1  UNL1        0.1126
     25 C          -1.7386   -3.3352    1.4470 C.ar    1  UNL1        0.0537
     26 C          -1.0599   -5.3925    0.1841 C.ar    1  UNL1        0.0036
     27 C          -0.4123   -6.6073    0.4305 C.ar    1  UNL1       -0.0525
     28 C          -0.6744   -7.7192   -0.3693 C.ar    1  UNL1       -0.0611
     29 C          -1.5749   -7.6177   -1.4293 C.ar    1  UNL1       -0.0617
     30 C          -2.2159   -6.4072   -1.6899 C.ar    1  UNL1       -0.0611
     31 C          -1.9613   -5.2963   -0.8847 C.ar    1  UNL1       -0.0525
     32 C          -5.8845    1.9595   -0.6735 C.3     1  UNL1       -0.0349
     33 F          -8.0485    2.3444    1.0738 F       1  UNL1       -0.2051
     34 C           4.4611    0.7702   -1.9371 C.3     1  UNL1        0.0833
     35 H           0.6314    2.1143    0.3208 H       1  UNL1        0.0481
     36 H           1.9611    0.9897    0.6091 H       1  UNL1        0.0481
     37 H           0.0293    0.4568    1.9614 H       1  UNL1        0.0480
     38 H           0.4575   -0.8828    0.8549 H       1  UNL1        0.0480
     39 H          -1.0748   -1.1760   -1.2835 H       1  UNL1        0.0480
     40 H          -2.3686   -0.0054   -1.5306 H       1  UNL1        0.0480
     41 H          -0.7541    1.8238   -1.8376 H       1  UNL1        0.0481
     42 H          -0.3151    0.4914   -2.9153 H       1  UNL1        0.0481
     43 H          -6.0703    0.0209    4.3378 H       1  UNL1        0.0625
     44 H          -7.9665    1.3280    3.4349 H       1  UNL1        0.0646
     45 H          -3.8721   -0.8871    4.0631 H       1  UNL1        0.0628
     46 H          -0.6686   -0.7704    3.3632 H       1  UNL1        0.0560
     47 H          -1.8994   -1.8323    3.9826 H       1  UNL1        0.0560
     48 H          -2.7852   -3.1965    1.2228 H       1  UNL1        0.0849
     49 H           0.2864   -6.6972    1.2604 H       1  UNL1        0.0624
     50 H          -0.1782   -8.6631   -0.1621 H       1  UNL1        0.0618
     51 H          -1.7776   -8.4847   -2.0532 H       1  UNL1        0.0618
     52 H          -2.9138   -6.3280   -2.5195 H       1  UNL1        0.0618
     53 H          -2.4651   -4.3588   -1.1065 H       1  UNL1        0.0624
     54 H          -5.0678    2.6689   -0.8405 H       1  UNL1        0.0279
     55 H          -5.7997    1.1244   -1.3766 H       1  UNL1        0.0279
     56 H          -6.8214    2.4792   -0.9041 H       1  UNL1        0.0279
     57 H           4.5198   -0.1408   -2.5404 H       1  UNL1        0.0661
     58 H           4.5945    1.6616   -2.5551 H       1  UNL1        0.0661
     59 H           5.2644    0.7411   -1.1940 H       1  UNL1        0.0661
@<TRIPOS>BOND
     1     1     2    1
     2     2     3    1
     3     3     4    1
     4     4     5    1
     5     5     6    1
     6     1     6    1
     7     7     8    2
     8     7     9    1
     9     6     7   am
    10    10    11   ar
    11    11    12   ar
    12    12    13   ar
    13    13    14   ar
    14    14    15   ar
    15    10    15   ar
    16    13    16   ar
    17    16    17   ar
    18    17    18   ar
    19    18    19   ar
    20    12    19   ar
    21    21    22   ar
    22    22    23   ar
    23    23    24   ar
    24    24    25   ar
    25    21    25   ar
    26    26    27   ar
    27    27    28   ar
    28    28    29   ar
    29    29    30   ar
    30    30    31   ar
    31    26    31   ar
    32    24    26    1
    33    20    21    1
    34    17    20    1
    35    11    32    1
    36    10    33    1
    37     3    18    1
    38     9    34    1
    39     1    35    1
    40     1    36    1
    41     2    37    1
    42     2    38    1
    43     4    39    1
    44     4    40    1
    45     5    41    1
    46     5    42    1
    47    14    43    1
    48    15    44    1
    49    16    45    1
    50    20    46    1
    51    20    47    1
    52    25    48    1
    53    27    49    1
    54    28    50    1
    55    29    51    1
    56    30    52    1
    57    31    53    1
    58    32    54    1
    59    32    55    1
    60    32    56    1
    61    34    57    1
    62    34    58    1
    63    34    59    1
@<TRIPOS>MOLECULE
mol_848_akc_jejmech2024116256
*****
 64 68 0 0 0
SMALL
GASTEIGER

@<TRIPOS>ATOM
      1 C          -1.3111    1.3806    0.0821 C.ar    1  UNL1        0.1343
      2 N          -2.4239    0.6541    0.2467 N.ar    1  UNL1       -0.1989
      3 C          -2.2850   -0.6758    0.3541 C.ar    1  UNL1        0.2177
      4 N          -1.1148   -1.3214    0.2731 N.ar    1  UNL1       -0.2143
      5 C          -0.0017   -0.5988    0.1577 C.ar    1  UNL1        0.0816
      6 C          -0.0369    0.7858    0.0788 C.ar    1  UNL1        0.0441
      7 C           1.1642    1.4981   -0.0824 C.ar    1  UNL1       -0.0038
      8 C           1.2450   -1.2227    0.0899 C.ar    1  UNL1        0.0099
      9 C           2.4511   -0.5247   -0.1319 C.ar    1  UNL1        0.1643
     10 C           2.3958    0.8619   -0.2607 C.ar    1  UNL1        0.1623
     11 N          -1.4115    2.7422   -0.2510 N.pl3   1  UNL1       -0.3146
     12 N          -3.3757   -1.4763    0.5814 N.pl3   1  UNL1       -0.3093
     13 C          -1.8226    5.5128   -0.7687 C.3     1  UNL1       -0.0502
     14 C          -2.2284    4.4315   -1.7755 C.3     1  UNL1       -0.0371
     15 C          -2.5561    3.1000   -1.0876 C.3     1  UNL1        0.0135
     16 C          -1.1690    3.6831    0.8446 C.3     1  UNL1        0.0135
     17 C          -0.7529    5.0136    0.2082 C.3     1  UNL1       -0.0371
     18 O           3.5056    1.6053   -0.5471 O.3     1  UNL1       -0.4914
     19 O           3.5248   -1.3648   -0.1812 O.3     1  UNL1       -0.4851
     20 C           3.2630    2.7653   -1.3534 C.3     1  UNL1        0.0790
     21 C           4.7779   -1.0741   -0.7841 C.3     1  UNL1        0.1004
     22 C          -4.6513   -0.8673    0.8578 C.3     1  UNL1        0.0370
     23 C          -5.5775   -1.9111    1.4455 C.ar    1  UNL1       -0.0303
     24 C          -5.1224   -2.7744    2.4624 C.ar    1  UNL1       -0.0560
     25 C          -5.9742   -3.7229    3.0352 C.ar    1  UNL1       -0.0475
     26 C          -7.2918   -3.8108    2.5945 C.ar    1  UNL1        0.0179
     27 C          -7.7626   -2.9577    1.5987 C.ar    1  UNL1       -0.0475
     28 C          -6.9082   -2.0138    1.0287 C.ar    1  UNL1       -0.0560
     29 BR         -8.4490   -5.0913    3.3652 Br      1  UNL1       -0.0503
     30 C           6.6588    0.4460   -0.9563 C.3     1  UNL1       -0.0496
     31 C           5.7294   -0.2248    0.0467 C.3     1  UNL1       -0.0158
     32 C           4.7621   -0.5200   -2.2018 C.3     1  UNL1       -0.0158
     33 C           6.0615    0.2585   -2.3497 C.3     1  UNL1       -0.0496
     34 H           1.1194    2.5817   -0.1015 H       1  UNL1        0.0663
     35 H           1.2776   -2.3084    0.1733 H       1  UNL1        0.0677
     36 H          -3.3568   -2.2874   -0.0228 H       1  UNL1        0.1492
     37 H          -1.4523    6.3944   -1.3044 H       1  UNL1        0.0266
     38 H          -2.7061    5.8282   -0.2008 H       1  UNL1        0.0266
     39 H          -3.0883    4.7720   -2.3625 H       1  UNL1        0.0280
     40 H          -1.4008    4.2770   -2.4793 H       1  UNL1        0.0280
     41 H          -3.4711    3.1911   -0.4897 H       1  UNL1        0.0464
     42 H          -2.7300    2.3467   -1.8665 H       1  UNL1        0.0464
     43 H          -0.3734    3.3463    1.5189 H       1  UNL1        0.0464
     44 H          -2.0745    3.8165    1.4502 H       1  UNL1        0.0464
     45 H           0.1896    4.8751   -0.3438 H       1  UNL1        0.0280
     46 H          -0.5656    5.7651    0.9784 H       1  UNL1        0.0280
     47 H           2.3672    2.6806   -1.9828 H       1  UNL1        0.0660
     48 H           3.1896    3.6486   -0.7108 H       1  UNL1        0.0660
     49 H           4.1103    2.8964   -2.0307 H       1  UNL1        0.0660
     50 H           5.2619   -2.0584   -0.8626 H       1  UNL1        0.0733
     51 H          -4.5595   -0.0661    1.6002 H       1  UNL1        0.0512
     52 H          -5.0799   -0.4390   -0.0577 H       1  UNL1        0.0512
     53 H          -4.0947   -2.7066    2.8112 H       1  UNL1        0.0621
     54 H          -5.5942   -4.3826    3.8085 H       1  UNL1        0.0629
     55 H          -8.7980   -3.0229    1.2621 H       1  UNL1        0.0629
     56 H          -7.2936   -1.3474    0.2507 H       1  UNL1        0.0621
     57 H           6.7795    1.5091   -0.7204 H       1  UNL1        0.0266
     58 H           7.6585   -0.0025   -0.9157 H       1  UNL1        0.0266
     59 H           5.2234    0.5042    0.6828 H       1  UNL1        0.0301
     60 H           6.3038   -0.8571    0.7361 H       1  UNL1        0.0301
     61 H           4.7144   -1.3388   -2.9309 H       1  UNL1        0.0301
     62 H           3.8973    0.1065   -2.4278 H       1  UNL1        0.0301
     63 H           5.8808    1.2257   -2.8304 H       1  UNL1        0.0266
     64 H           6.7642   -0.2866   -2.9900 H       1  UNL1        0.0266
@<TRIPOS>BOND
     1     1     2   ar
     2     1     6   ar
     3     2     3   ar
     4     3     4   ar
     5     4     5   ar
     6     7     6   ar
     7     5     6   ar
     8     5     8   ar
     9     7    10   ar
    10     8     9   ar
    11     9    10   ar
    12     1    11    1
    13     3    12    1
    14    15    11    1
    15    11    16    1
    16    13    14    1
    17    13    17    1
    18    14    15    1
    19    16    17    1
    20    10    18    1
    21     9    19    1
    22    18    20    1
    23    19    21    1
    24    12    22    1
    25    22    23    1
    26    23    24   ar
    27    23    28   ar
    28    24    25   ar
    29    25    26   ar
    30    26    27   ar
    31    27    28   ar
    32    26    29    1
    33    31    21    1
    34    21    32    1
    35    30    31    1
    36    30    33    1
    37    32    33    1
    38     7    34    1
    39     8    35    1
    40    12    36    1
    41    13    37    1
    42    13    38    1
    43    14    39    1
    44    14    40    1
    45    15    41    1
    46    15    42    1
    47    16    43    1
    48    16    44    1
    49    17    45    1
    50    17    46    1
    51    20    47    1
    52    20    48    1
    53    20    49    1
    54    21    50    1
    55    22    51    1
    56    22    52    1
    57    24    53    1
    58    25    54    1
    59    27    55    1
    60    28    56    1
    61    30    57    1
    62    30    58    1
    63    31    59    1
    64    31    60    1
    65    32    61    1
    66    32    62    1
    67    33    63    1
    68    33    64    1
@<TRIPOS>MOLECULE
mol_849_akc
*****
 73 77 0 0 0
SMALL
GASTEIGER

@<TRIPOS>ATOM
      1 C          -1.1771   -1.3167    0.1488 C.2     1  UNL1        0.1621
      2 C          -2.2887   -0.4968   -0.4737 C.3     1  UNL1        0.0157
      3 C          -2.2747    0.9249    0.1061 C.3     1  UNL1       -0.0228
      4 C          -0.8946    1.5558   -0.1681 C.3     1  UNL1       -0.0086
      5 C           0.2846    0.6206    0.0009 C.2     1  UNL1        0.0158
      6 C           0.1867   -0.7188    0.1388 C.2     1  UNL1        0.0240
      7 C           1.4357   -1.5962    0.3051 C.3     1  UNL1        0.0471
      8 N           1.5263    1.2199   -0.0081 N.pl3   1  UNL1       -0.3205
      9 C           2.7234    0.5289   -0.1188 C.2     1  UNL1        0.0157
     10 C           2.7313   -0.8251   -0.0170 C.2     1  UNL1        0.0650
     11 C          -2.5623    0.8844    1.6211 C.3     1  UNL1       -0.0591
     12 C          -3.3626    1.7797   -0.5662 C.3     1  UNL1       -0.0591
     13 O          -1.3973   -2.4091    0.6552 O.2     1  UNL1       -0.2923
     14 C           1.3178   -2.9307   -0.4357 C.ar    1  UNL1       -0.0350
     15 C           3.9160    1.4290   -0.3495 C.3     1  UNL1       -0.0260
     16 C           3.9849   -1.5759   -0.2678 C.2     1  UNL1        0.3375
     17 O           4.8288   -1.2348   -1.0880 O.2     1  UNL1       -0.2452
     18 O           4.0645   -2.6841    0.5072 O.3     1  UNL1       -0.4616
     19 C           5.2205   -3.5081    0.2798 C.3     1  UNL1        0.0900
     20 C           5.1754   -4.2324   -1.0591 C.3     1  UNL1       -0.0306
     21 C           1.0449   -5.4280   -1.7222 C.ar    1  UNL1        0.1211
     22 C           0.9774   -4.2420   -2.4563 C.ar    1  UNL1       -0.0196
     23 C           1.1182   -3.0022   -1.8194 C.ar    1  UNL1       -0.0542
     24 C           1.3921   -4.1351    0.2924 C.ar    1  UNL1       -0.0542
     25 C           1.2569   -5.3664   -0.3465 C.ar    1  UNL1       -0.0196
     26 O           0.8670   -6.6898   -2.2216 O.3     1  UNL1       -0.4858
     27 C           1.1191   -6.8871   -3.6190 C.3     1  UNL1        0.1346
     28 C          -0.0440   -6.5957   -4.5012 C.ar    1  UNL1        0.1199
     29 C          -1.4013   -6.6994   -4.2752 C.ar    1  UNL1        0.0524
     30 N           0.1598   -6.1278   -5.7752 N.ar    1  UNL1       -0.1310
     31 N          -1.0223   -5.9258   -6.3396 N.ar    1  UNL1       -0.0650
     32 N          -1.9645   -6.2410   -5.4304 N.ar    1  UNL1       -0.2470
     33 C          -3.3727   -6.1568   -5.7771 C.3     1  UNL1        0.0682
     34 C          -4.0230   -4.9000   -5.2504 C.ar    1  UNL1       -0.0261
     35 C          -3.6014   -3.6312   -5.6793 C.ar    1  UNL1       -0.0568
     36 C          -4.2099   -2.4751   -5.1853 C.ar    1  UNL1       -0.0614
     37 C          -5.2517   -2.5725   -4.2655 C.ar    1  UNL1       -0.0617
     38 C          -5.6949   -3.8256   -3.8487 C.ar    1  UNL1       -0.0614
     39 C          -5.0875   -4.9830   -4.3401 C.ar    1  UNL1       -0.0568
     40 H          -3.2490   -0.9903   -0.2797 H       1  UNL1        0.0350
     41 H          -2.1413   -0.4901   -1.5622 H       1  UNL1        0.0350
     42 H          -0.7616    2.4333    0.4794 H       1  UNL1        0.0331
     43 H          -0.8580    1.9294   -1.2016 H       1  UNL1        0.0331
     44 H           1.4855   -1.8217    1.3820 H       1  UNL1        0.0450
     45 H           1.5587    2.2229   -0.1752 H       1  UNL1        0.1516
     46 H          -2.5983    1.8949    2.0422 H       1  UNL1        0.0235
     47 H          -3.5277    0.4053    1.8217 H       1  UNL1        0.0235
     48 H          -1.7974    0.3302    2.1754 H       1  UNL1        0.0235
     49 H          -4.3588    1.3538   -0.4046 H       1  UNL1        0.0235
     50 H          -3.3646    2.7994   -0.1640 H       1  UNL1        0.0235
     51 H          -3.2029    1.8509   -1.6479 H       1  UNL1        0.0235
     52 H           3.7805    1.9945   -1.2783 H       1  UNL1        0.0290
     53 H           3.9949    2.1483    0.4744 H       1  UNL1        0.0290
     54 H           4.8791    0.9234   -0.4035 H       1  UNL1        0.0290
     55 H           6.1293   -2.9029    0.3760 H       1  UNL1        0.0695
     56 H           5.2423   -4.2510    1.0840 H       1  UNL1        0.0695
     57 H           5.0383   -3.5463   -1.8997 H       1  UNL1        0.0262
     58 H           6.1043   -4.7870   -1.2230 H       1  UNL1        0.0262
     59 H           4.3396   -4.9370   -1.0908 H       1  UNL1        0.0262
     60 H           0.7865   -4.2392   -3.5246 H       1  UNL1        0.0654
     61 H           1.0462   -2.0929   -2.4136 H       1  UNL1        0.0622
     62 H           1.5493   -4.1171    1.3678 H       1  UNL1        0.0622
     63 H           1.3172   -6.2821    0.2356 H       1  UNL1        0.0654
     64 H           2.0123   -6.3322   -3.9333 H       1  UNL1        0.0764
     65 H           1.3695   -7.9484   -3.7357 H       1  UNL1        0.0764
     66 H          -1.9789   -7.0171   -3.4196 H       1  UNL1        0.0846
     67 H          -3.4642   -6.2020   -6.8686 H       1  UNL1        0.0559
     68 H          -3.8526   -7.0544   -5.3702 H       1  UNL1        0.0559
     69 H          -2.7898   -3.5332   -6.3995 H       1  UNL1        0.0621
     70 H          -3.8691   -1.4980   -5.5183 H       1  UNL1        0.0618
     71 H          -5.7203   -1.6728   -3.8754 H       1  UNL1        0.0618
     72 H          -6.5140   -3.9022   -3.1380 H       1  UNL1        0.0618
     73 H          -5.4550   -5.9499   -4.0030 H       1  UNL1        0.0621
@<TRIPOS>BOND
     1     1     2    1
     2     1     6    1
     3     2     3    1
     4     3     4    1
     5     4     5    1
     6     7     6    1
     7     6     5    2
     8     5     8    1
     9     7    10    1
    10     8     9    1
    11     9    10    2
    12     3    11    1
    13     3    12    1
    14     1    13    2
    15     7    14    1
    16     9    15    1
    17    10    16    1
    18    16    17    2
    19    16    18    1
    20    18    19    1
    21    19    20    1
    22    23    14   ar
    23    14    24   ar
    24    21    22   ar
    25    21    25   ar
    26    22    23   ar
    27    24    25   ar
    28    21    26    1
    29    26    27    1
    30    27    28    1
    31    29    28   ar
    32    28    30   ar
    33    29    32   ar
    34    30    31   ar
    35    31    32   ar
    36    32    33    1
    37    33    34    1
    38    34    35   ar
    39    34    39   ar
    40    35    36   ar
    41    36    37   ar
    42    37    38   ar
    43    38    39   ar
    44     2    40    1
    45     2    41    1
    46     4    42    1
    47     4    43    1
    48     7    44    1
    49     8    45    1
    50    11    46    1
    51    11    47    1
    52    11    48    1
    53    12    49    1
    54    12    50    1
    55    12    51    1
    56    15    52    1
    57    15    53    1
    58    15    54    1
    59    19    55    1
    60    19    56    1
    61    20    57    1
    62    20    58    1
    63    20    59    1
    64    22    60    1
    65    23    61    1
    66    24    62    1
    67    25    63    1
    68    27    64    1
    69    27    65    1
    70    29    66    1
    71    33    67    1
    72    33    68    1
    73    35    69    1
    74    36    70    1
    75    37    71    1
    76    38    72    1
    77    39    73    1
@<TRIPOS>MOLECULE
mol_84_acsinfecdis2c00325
>83.sdf
 40 42 0 0 0
SMALL
GASTEIGER

@<TRIPOS>ATOM
      1 O           1.3276    0.8189   -0.6859 O.2     1  UNL1       -0.2693
      2 C           2.5112    0.6360   -0.4170 C.2     1  UNL1        0.2549
      3 N           3.1421    1.1397    0.7092 N.am    1  UNL1       -0.2811
      4 C           2.5034    1.8986    1.7035 C.ar    1  UNL1        0.0340
      5 C           1.2131    1.6160    2.1538 C.ar    1  UNL1       -0.0405
      6 C           0.6244    2.4166    3.1346 C.ar    1  UNL1       -0.0597
      7 C           1.3067    3.5265    3.6332 C.ar    1  UNL1       -0.0570
      8 C           2.6002    3.8244    3.1835 C.ar    1  UNL1       -0.0287
      9 C           3.2971    5.0897    3.6226 C.3     1  UNL1        0.0344
     10 N           2.7435    6.2133    2.8838 N.pl3   1  UNL1       -0.3397
     11 C           3.3552    7.4660    2.9321 C.ar    1  UNL1        0.0274
     12 C           4.2827    7.8373    3.9168 C.ar    1  UNL1       -0.0408
     13 C           4.8120    9.1285    3.9656 C.ar    1  UNL1       -0.0600
     14 C           4.4021   10.0908    3.0508 C.ar    1  UNL1       -0.0616
     15 C           3.4491    9.7574    2.0888 C.ar    1  UNL1       -0.0600
     16 C           2.9265    8.4611    2.0440 C.ar    1  UNL1       -0.0408
     17 C           3.2067    2.9773    2.2446 C.ar    1  UNL1       -0.0358
     18 C           3.4083   -0.0410   -1.3448 C.ar    1  UNL1        0.0763
     19 C           3.3246   -0.0595   -2.7260 C.ar    1  UNL1       -0.0402
     20 C           4.3326   -0.8757   -3.3226 C.ar    1  UNL1       -0.0234
     21 C           5.1284   -1.4650   -2.3659 C.ar    1  UNL1        0.1641
     22 S           4.7185   -0.9959   -0.7859 S.2     1  UNL1       -0.0599
     23 N           6.2080   -2.3919   -2.5965 N.pl3   1  UNL1        0.0632
     24 O           6.4238   -2.6991   -3.7765 O.2     1  UNL1       -0.1256
     25 O           6.8392   -2.8121   -1.6185 O.2     1  UNL1       -0.1256
     26 H           4.1501    1.2057    0.6554 H       1  UNL1        0.1551
     27 H           0.6597    0.7638    1.7673 H       1  UNL1        0.0636
     28 H          -0.3762    2.1871    3.4923 H       1  UNL1        0.0618
     29 H           0.8169    4.1771    4.3557 H       1  UNL1        0.0621
     30 H           3.1543    5.2242    4.7012 H       1  UNL1        0.0511
     31 H           4.3740    4.9924    3.4366 H       1  UNL1        0.0511
     32 H           2.4239    5.9708    1.9489 H       1  UNL1        0.1464
     33 H           4.6130    7.1243    4.6666 H       1  UNL1        0.0636
     34 H           5.5420    9.3840    4.7318 H       1  UNL1        0.0618
     35 H           4.8017   11.1042    3.0926 H       1  UNL1        0.0618
     36 H           3.1058   10.5077    1.3839 H       1  UNL1        0.0618
     37 H           2.1649    8.2338    1.2993 H       1  UNL1        0.0636
     38 H           4.2025    3.2158    1.8785 H       1  UNL1        0.0639
     39 H           2.5675    0.4887   -3.2782 H       1  UNL1        0.0631
     40 H           4.4440   -1.0336   -4.3900 H       1  UNL1        0.0646
@<TRIPOS>BOND
     1     2     1    2
     2     3     2   am
     3     3    26    1
     4     4     3    1
     5     5     4   ar
     6     5    27    1
     7     6     5   ar
     8     6    28    1
     9     7     6   ar
    10     7    29    1
    11     8     7   ar
    12     9     8    1
    13     9    30    1
    14     9    31    1
    15    10     9    1
    16    10    32    1
    17    11    10    1
    18    12    11   ar
    19    12    33    1
    20    13    12   ar
    21    13    34    1
    22    14    13   ar
    23    14    35    1
    24    15    14   ar
    25    15    36    1
    26    16    15   ar
    27    16    11   ar
    28    16    37    1
    29    17     8   ar
    30    17     4   ar
    31    17    38    1
    32    18     2    1
    33    19    18   ar
    34    19    39    1
    35    20    19   ar
    36    20    40    1
    37    21    20   ar
    38    22    21   ar
    39    22    18   ar
    40    23    21    1
    41    24    23    2
    42    25    23    2
@<TRIPOS>MOLECULE
mol_850_akc
*****
 73 77 0 0 0
SMALL
GASTEIGER

@<TRIPOS>ATOM
      1 C          -1.0099   -1.3030   -0.2274 C.2     1  UNL1        0.1621
      2 C          -2.1953   -0.4349   -0.6064 C.3     1  UNL1        0.0157
      3 C          -2.1135    1.0011   -0.0645 C.3     1  UNL1       -0.0228
      4 C          -0.7349    1.5965   -0.3975 C.3     1  UNL1       -0.0086
      5 C           0.4173    0.6833   -0.0668 C.2     1  UNL1        0.0158
      6 C           0.2986   -0.6497    0.0628 C.2     1  UNL1        0.0240
      7 C           1.5172   -1.5151    0.3563 C.3     1  UNL1        0.0471
      8 N           1.6615    1.2757    0.0396 N.pl3   1  UNL1       -0.3205
      9 C           2.8529    0.5682   -0.1153 C.2     1  UNL1        0.0157
     10 C           2.8330   -0.7889   -0.0181 C.2     1  UNL1        0.0650
     11 C          -2.3549    1.0216    1.4581 C.3     1  UNL1       -0.0591
     12 C          -3.2002    1.8618   -0.7362 C.3     1  UNL1       -0.0591
     13 O          -1.1038   -2.5305   -0.2512 O.2     1  UNL1       -0.2923
     14 C           1.5298   -1.9711    1.8286 C.ar    1  UNL1       -0.0350
     15 C           4.0289    1.4659   -0.4133 C.3     1  UNL1       -0.0260
     16 C           3.9627   -1.7210   -0.2682 C.2     1  UNL1        0.3375
     17 O           3.8098   -2.8767   -0.6394 O.2     1  UNL1       -0.2452
     18 O           5.1589   -1.1428   -0.0130 O.3     1  UNL1       -0.4616
     19 C           6.3223   -1.9389   -0.2779 C.3     1  UNL1        0.0900
     20 C           6.6684   -2.7521    0.9510 C.3     1  UNL1       -0.0306
     21 C           1.5897   -2.8338    4.5245 C.ar    1  UNL1        0.1211
     22 C           0.9419   -3.5946    3.5522 C.ar    1  UNL1       -0.0196
     23 C           0.9173   -3.1763    2.2146 C.ar    1  UNL1       -0.0542
     24 C           2.1260   -1.1865    2.8328 C.ar    1  UNL1       -0.0542
     25 C           2.1605   -1.6150    4.1626 C.ar    1  UNL1       -0.0196
     26 O           1.6040   -3.3593    5.7903 O.3     1  UNL1       -0.4858
     27 C           2.5956   -2.8116    6.6740 C.3     1  UNL1        0.1346
     28 C           2.8501   -3.6809    7.8503 C.ar    1  UNL1        0.1199
     29 C           2.1767   -4.7913    8.3152 C.ar    1  UNL1        0.0524
     30 N           3.9486   -3.4651    8.6444 N.ar    1  UNL1       -0.1310
     31 N           4.0077   -4.4304    9.5479 N.ar    1  UNL1       -0.0650
     32 N           2.9527   -5.2427    9.3421 N.ar    1  UNL1       -0.2470
     33 C           2.8934   -6.5433    9.9805 C.3     1  UNL1        0.0682
     34 C           2.1513   -6.5395   11.2915 C.ar    1  UNL1       -0.0261
     35 C           0.9688   -7.2802   11.4367 C.ar    1  UNL1       -0.0568
     36 C           0.3498   -7.3894   12.6830 C.ar    1  UNL1       -0.0614
     37 C           0.9013   -6.7557   13.7943 C.ar    1  UNL1       -0.0617
     38 C           2.0553   -5.9875   13.6559 C.ar    1  UNL1       -0.0614
     39 C           2.6756   -5.8749   12.4105 C.ar    1  UNL1       -0.0568
     40 H          -3.1061   -0.9222   -0.2378 H       1  UNL1        0.0350
     41 H          -2.2405   -0.4279   -1.7030 H       1  UNL1        0.0350
     42 H          -0.6135    2.5511    0.1288 H       1  UNL1        0.0331
     43 H          -0.6711    1.8256   -1.4712 H       1  UNL1        0.0331
     44 H           1.4464   -2.4068   -0.2823 H       1  UNL1        0.0450
     45 H           1.7051    2.2740   -0.1538 H       1  UNL1        0.1516
     46 H          -2.1514    2.0156    1.8731 H       1  UNL1        0.0235
     47 H          -3.3960    0.7746    1.6944 H       1  UNL1        0.0235
     48 H          -1.7189    0.3068    1.9899 H       1  UNL1        0.0235
     49 H          -4.1980    1.4414   -0.5683 H       1  UNL1        0.0235
     50 H          -3.1950    2.8842   -0.3419 H       1  UNL1        0.0235
     51 H          -3.0463    1.9232   -1.8197 H       1  UNL1        0.0235
     52 H           3.8352    2.0322   -1.3309 H       1  UNL1        0.0290
     53 H           4.1514    2.1863    0.4051 H       1  UNL1        0.0290
     54 H           4.9872    0.9726   -0.5483 H       1  UNL1        0.0290
     55 H           6.1848   -2.5730   -1.1618 H       1  UNL1        0.0695
     56 H           7.1382   -1.2447   -0.5067 H       1  UNL1        0.0695
     57 H           5.8803   -3.4793    1.1698 H       1  UNL1        0.0262
     58 H           7.6110   -3.2877    0.8113 H       1  UNL1        0.0262
     59 H           6.7537   -2.1016    1.8275 H       1  UNL1        0.0262
     60 H           0.4673   -4.5316    3.8267 H       1  UNL1        0.0654
     61 H           0.4167   -3.7971    1.4761 H       1  UNL1        0.0622
     62 H           2.5854   -0.2312    2.5969 H       1  UNL1        0.0622
     63 H           2.6436   -0.9660    4.8870 H       1  UNL1        0.0654
     64 H           3.5527   -2.7065    6.1449 H       1  UNL1        0.0764
     65 H           2.2621   -1.8292    7.0274 H       1  UNL1        0.0764
     66 H           1.2901   -5.3036    7.9724 H       1  UNL1        0.0846
     67 H           2.4262   -7.2322    9.2663 H       1  UNL1        0.0559
     68 H           3.9211   -6.8951   10.1330 H       1  UNL1        0.0559
     69 H           0.5316   -7.8002   10.5868 H       1  UNL1        0.0621
     70 H          -0.5539   -7.9839   12.7906 H       1  UNL1        0.0618
     71 H           0.4336   -6.8627   14.7696 H       1  UNL1        0.0618
     72 H           2.4830   -5.4873   14.5211 H       1  UNL1        0.0618
     73 H           3.5848   -5.2811   12.3243 H       1  UNL1        0.0621
@<TRIPOS>BOND
     1     1     2    1
     2     1     6    1
     3     2     3    1
     4     3     4    1
     5     4     5    1
     6     7     6    1
     7     6     5    2
     8     5     8    1
     9     7    10    1
    10     8     9    1
    11     9    10    2
    12     3    11    1
    13     3    12    1
    14     1    13    2
    15     9    15    1
    16    10    16    1
    17    16    17    2
    18    16    18    1
    19    18    19    1
    20    19    20    1
    21    23    14   ar
    22    14    24   ar
    23    21    22   ar
    24    21    25   ar
    25    22    23   ar
    26    24    25   ar
    27    21    26    1
    28    26    27    1
    29    27    28    1
    30    29    28   ar
    31    28    30   ar
    32    29    32   ar
    33    30    31   ar
    34    31    32   ar
    35    32    33    1
    36    33    34    1
    37    34    35   ar
    38    34    39   ar
    39    35    36   ar
    40    36    37   ar
    41    37    38   ar
    42    38    39   ar
    43     2    40    1
    44     2    41    1
    45     4    42    1
    46     4    43    1
    47     8    45    1
    48    11    46    1
    49    11    47    1
    50    11    48    1
    51    12    49    1
    52    12    50    1
    53    12    51    1
    54    15    52    1
    55    15    53    1
    56    15    54    1
    57    19    55    1
    58    19    56    1
    59    20    57    1
    60    20    58    1
    61    20    59    1
    62    22    60    1
    63    23    61    1
    64    24    62    1
    65    25    63    1
    66    27    64    1
    67    27    65    1
    68    29    66    1
    69    33    67    1
    70    33    68    1
    71    35    69    1
    72    36    70    1
    73    37    71    1
    74    38    72    1
    75    39    73    1
    76     7    44    1
    77     7    14    1
@<TRIPOS>MOLECULE
mol_851_akc_jijpddr2024100531
*****
 20 20 0 0 0
SMALL
GASTEIGER

@<TRIPOS>ATOM
      1 C           1.2036    1.2151    0.0087 C.ar    1  UNL1       -0.0443
      2 C           2.5967    1.0842    0.0291 C.ar    1  UNL1       -0.0182
      3 C           3.1754   -0.1897    0.0279 C.ar    1  UNL1        0.1320
      4 C           2.3677   -1.3276   -0.0346 C.ar    1  UNL1       -0.0182
      5 C           0.9752   -1.1941   -0.0450 C.ar    1  UNL1       -0.0443
      6 C           0.3987    0.0765   -0.0205 C.ar    1  UNL1        0.0181
      7 BR         -1.4826    0.2524   -0.0357 Br      1  UNL1       -0.0503
      8 O           4.5924   -0.2337    0.0286 O.3     1  UNL1       -0.4227
      9 C           5.2592   -1.2604    0.6786 C.2     1  UNL1        0.3379
     10 O           4.7631   -2.1937    1.2942 O.2     1  UNL1       -0.2452
     11 C           6.7307   -1.1311    0.5812 C.2     1  UNL1        0.0330
     12 C           7.4169   -0.1334    0.0072 C.2     1  UNL1        0.0221
     13 C           8.9366   -0.1506    0.0296 C.1     1  UNL1        0.0916
     14 N          10.1974   -0.1648    0.0481 N.1     1  UNL1       -0.1915
     15 H           0.7548    2.2067    0.0166 H       1  UNL1        0.0630
     16 H           3.2190    1.9715    0.0521 H       1  UNL1        0.0655
     17 H           2.7936   -2.3254   -0.0688 H       1  UNL1        0.0655
     18 H           0.3526   -2.0839   -0.0703 H       1  UNL1        0.0630
     19 H           7.2553   -1.9558    1.0588 H       1  UNL1        0.0696
     20 H           6.9529    0.7175   -0.4769 H       1  UNL1        0.0735
@<TRIPOS>BOND
     1     1     2   ar
     2     2     3   ar
     3     3     4   ar
     4     4     5   ar
     5     5     6   ar
     6     1     6   ar
     7     6     7    1
     8     3     8    1
     9     8     9    1
    10     9    10    2
    11     9    11    1
    12    11    12    2
    13    12    13    1
    14    13    14    3
    15     1    15    1
    16     2    16    1
    17     4    17    1
    18     5    18    1
    19    11    19    1
    20    12    20    1
@<TRIPOS>MOLECULE
mol_852_akc_jmolstruc2024138015
*****
 47 50 0 0 0
SMALL
GASTEIGER

@<TRIPOS>ATOM
      1 C           0.7774    0.1226    0.8056 C.ar    1  UNL1       -0.0527
      2 C          -0.3153   -0.6797    1.1493 C.ar    1  UNL1       -0.0611
      3 C          -1.6072   -0.2713    0.8293 C.ar    1  UNL1       -0.0617
      4 C          -1.8057    0.9332    0.1612 C.ar    1  UNL1       -0.0611
      5 C          -0.7109    1.7200   -0.2135 C.ar    1  UNL1       -0.0527
      6 C           0.5946    1.3162    0.0944 C.ar    1  UNL1        0.0011
      7 C           1.7629    2.1909   -0.2646 C.2     1  UNL1        0.1035
      8 C           1.5323    3.7144   -0.3058 C.3     1  UNL1        0.1334
      9 O           0.9664    4.1947   -1.5189 O.3     1  UNL1       -0.4858
     10 C           1.8291    4.6754   -2.4675 C.ar    1  UNL1        0.1211
     11 C           3.1192    4.2029   -2.7049 C.ar    1  UNL1       -0.0199
     12 C           1.3167    5.6813   -3.2902 C.ar    1  UNL1       -0.0199
     13 C           2.0878    6.2181   -4.3231 C.ar    1  UNL1       -0.0583
     14 C           3.3755    5.7393   -4.5545 C.ar    1  UNL1       -0.0615
     15 C           3.8889    4.7301   -3.7460 C.ar    1  UNL1       -0.0583
     16 N           2.9904    1.8294   -0.4950 N.2     1  UNL1       -0.1814
     17 N           3.3721    0.5374   -0.5767 N.pl3   1  UNL1       -0.2149
     18 C           4.6339    0.1198   -0.2942 C.ar    1  UNL1        0.1783
     19 C           6.9547   -0.0892    0.4004 C.ar    1  UNL1        0.0049
     20 C           6.2866   -1.2832    0.2177 C.ar    1  UNL1        0.0803
     21 N           4.9715   -1.1494   -0.2143 N.ar    1  UNL1       -0.2236
     22 S           5.9196    1.2238    0.0552 S.2     1  UNL1       -0.0586
     23 C           6.8533   -2.5962    0.5218 C.ar    1  UNL1        0.0010
     24 C           8.7239   -4.0425    1.1101 C.ar    1  UNL1       -0.0428
     25 C           7.8517   -5.1172    1.2594 C.ar    1  UNL1        0.0410
     26 C           6.4902   -4.9546    1.0214 C.ar    1  UNL1       -0.0428
     27 C           5.9957   -3.7002    0.6512 C.ar    1  UNL1       -0.0512
     28 C           8.2274   -2.7884    0.7381 C.ar    1  UNL1       -0.0512
     29 CL          8.4594   -6.6492    1.7503 Cl      1  UNL1       -0.0835
     30 H           1.7636   -0.1976    1.1309 H       1  UNL1        0.0624
     31 H          -0.1558   -1.6148    1.6804 H       1  UNL1        0.0618
     32 H          -2.4584   -0.8870    1.1112 H       1  UNL1        0.0618
     33 H          -2.8162    1.2640   -0.0706 H       1  UNL1        0.0618
     34 H          -0.9076    2.6474   -0.7461 H       1  UNL1        0.0624
     35 H           0.8325    3.9734    0.4982 H       1  UNL1        0.0764
     36 H           2.4626    4.2407   -0.0518 H       1  UNL1        0.0764
     37 H           3.5588    3.4084   -2.1189 H       1  UNL1        0.0654
     38 H           0.3095    6.0561   -3.1217 H       1  UNL1        0.0654
     39 H           1.6824    7.0073   -4.9521 H       1  UNL1        0.0619
     40 H           3.9750    6.1444   -5.3650 H       1  UNL1        0.0618
     41 H           4.8873    4.3392   -3.9259 H       1  UNL1        0.0619
     42 H           2.7220   -0.1726   -0.9036 H       1  UNL1        0.1765
     43 H           7.9601    0.0947    0.7453 H       1  UNL1        0.0716
     44 H           9.7884   -4.1679    1.2894 H       1  UNL1        0.0632
     45 H           5.8056   -5.7908    1.1320 H       1  UNL1        0.0632
     46 H           4.9264   -3.5842    0.4815 H       1  UNL1        0.0625
     47 H           8.9362   -1.9721    0.6289 H       1  UNL1        0.0625
@<TRIPOS>BOND
     1     1     2   ar
     2     2     3   ar
     3     3     4   ar
     4     4     5   ar
     5     5     6   ar
     6     1     6   ar
     7     6     7    1
     8     7     8    1
     9     8     9    1
    10     9    10    1
    11    12    13   ar
    12    13    14   ar
    13    14    15   ar
    14    11    15   ar
    15    11    10   ar
    16    10    12   ar
    17     7    16    2
    18    16    17    1
    19    17    18    1
    20    19    20   ar
    21    20    21   ar
    22    19    22   ar
    23    21    18   ar
    24    18    22   ar
    25    20    23    1
    26    24    25   ar
    27    25    26   ar
    28    26    27   ar
    29    24    28   ar
    30    27    23   ar
    31    23    28   ar
    32    25    29    1
    33     1    30    1
    34     2    31    1
    35     3    32    1
    36     4    33    1
    37     5    34    1
    38     8    35    1
    39     8    36    1
    40    11    37    1
    41    12    38    1
    42    13    39    1
    43    14    40    1
    44    15    41    1
    45    17    42    1
    46    19    43    1
    47    24    44    1
    48    26    45    1
    49    27    46    1
    50    28    47    1
@<TRIPOS>MOLECULE
mol_853_akc_jmolstruc2024138015
*****
 47 50 0 0 0
SMALL
GASTEIGER

@<TRIPOS>ATOM
      1 C           1.4027    0.0236    0.2765 C.ar    1  UNL1       -0.0527
      2 C           0.6362   -1.1385    0.3927 C.ar    1  UNL1       -0.0611
      3 C          -0.6920   -1.1426   -0.0288 C.ar    1  UNL1       -0.0617
      4 C          -1.2559    0.0102   -0.5721 C.ar    1  UNL1       -0.0611
      5 C          -0.4927    1.1770   -0.6832 C.ar    1  UNL1       -0.0527
      6 C           0.8372    1.1925   -0.2501 C.ar    1  UNL1        0.0011
      7 C           1.6684    2.4393   -0.3189 C.2     1  UNL1        0.1035
      8 C           0.9297    3.7643   -0.1234 C.3     1  UNL1        0.1334
      9 O           0.4844    4.2517   -1.3831 O.3     1  UNL1       -0.4858
     10 C          -0.3545    5.3360   -1.3672 C.ar    1  UNL1        0.1211
     11 C          -0.6892    6.0945   -0.2437 C.ar    1  UNL1       -0.0199
     12 C          -0.8916    5.6866   -2.6091 C.ar    1  UNL1       -0.0199
     13 C          -1.7543    6.7808   -2.7295 C.ar    1  UNL1       -0.0583
     14 C          -2.0838    7.5338   -1.6057 C.ar    1  UNL1       -0.0615
     15 C          -1.5522    7.1897   -0.3639 C.ar    1  UNL1       -0.0583
     16 N           2.9527    2.3015   -0.5076 N.2     1  UNL1       -0.1814
     17 N           3.7537    3.4020   -0.5852 N.pl3   1  UNL1       -0.2149
     18 C           5.0650    3.3674   -0.9541 C.ar    1  UNL1        0.1783
     19 C           7.3291    2.8120   -1.6603 C.ar    1  UNL1        0.0049
     20 C           7.0355    4.1607   -1.6503 C.ar    1  UNL1        0.0803
     21 N           5.7444    4.4625   -1.2295 N.ar    1  UNL1       -0.2236
     22 S           5.9726    1.9089   -1.1312 S.2     1  UNL1       -0.0586
     23 C           7.9461    5.2127   -2.1035 C.ar    1  UNL1        0.0010
     24 C          10.1601    6.0249   -2.7302 C.ar    1  UNL1       -0.0428
     25 C           9.6120    7.2522   -3.0970 C.ar    1  UNL1        0.0410
     26 C           8.2474    7.4815   -2.9508 C.ar    1  UNL1       -0.0428
     27 C           7.4235    6.4680   -2.4532 C.ar    1  UNL1       -0.0512
     28 C           9.3293    5.0098   -2.2336 C.ar    1  UNL1       -0.0512
     29 CL         10.6261    8.4848   -3.7381 Cl      1  UNL1       -0.0835
     30 H           2.4390    0.0144    0.6085 H       1  UNL1        0.0624
     31 H           1.0773   -2.0398    0.8113 H       1  UNL1        0.0618
     32 H          -1.2890   -2.0484    0.0631 H       1  UNL1        0.0618
     33 H          -2.2880    0.0014   -0.9130 H       1  UNL1        0.0618
     34 H          -0.9530    2.0546   -1.1321 H       1  UNL1        0.0624
     35 H           0.0807    3.5864    0.5490 H       1  UNL1        0.0764
     36 H           1.5914    4.4921    0.3569 H       1  UNL1        0.0764
     37 H          -0.2944    5.8703    0.7414 H       1  UNL1        0.0654
     38 H          -0.6404    5.1049   -3.4924 H       1  UNL1        0.0654
     39 H          -2.1644    7.0456   -3.7007 H       1  UNL1        0.0619
     40 H          -2.7490    8.3879   -1.6962 H       1  UNL1        0.0618
     41 H          -1.8065    7.7783    0.5143 H       1  UNL1        0.0619
     42 H           3.3481    4.3297   -0.6714 H       1  UNL1        0.1765
     43 H           8.2330    2.3075   -1.9665 H       1  UNL1        0.0716
     44 H          11.2258    5.8460   -2.8345 H       1  UNL1        0.0632
     45 H           7.8148    8.4396   -3.2282 H       1  UNL1        0.0632
     46 H           6.3541    6.6602   -2.3572 H       1  UNL1        0.0625
     47 H           9.7904    4.0657   -1.9526 H       1  UNL1        0.0625
@<TRIPOS>BOND
     1     1     2   ar
     2     2     3   ar
     3     3     4   ar
     4     4     5   ar
     5     5     6   ar
     6     1     6   ar
     7     6     7    1
     8     7     8    1
     9     8     9    1
    10     9    10    1
    11    12    13   ar
    12    13    14   ar
    13    14    15   ar
    14    11    15   ar
    15    11    10   ar
    16    10    12   ar
    17     7    16    2
    18    16    17    1
    19    17    18    1
    20    19    20   ar
    21    20    21   ar
    22    19    22   ar
    23    21    18   ar
    24    18    22   ar
    25    20    23    1
    26    24    25   ar
    27    25    26   ar
    28    26    27   ar
    29    24    28   ar
    30    27    23   ar
    31    23    28   ar
    32    25    29    1
    33     1    30    1
    34     2    31    1
    35     3    32    1
    36     4    33    1
    37     5    34    1
    38     8    35    1
    39     8    36    1
    40    11    37    1
    41    12    38    1
    42    13    39    1
    43    14    40    1
    44    15    41    1
    45    17    42    1
    46    19    43    1
    47    24    44    1
    48    26    45    1
    49    27    46    1
    50    28    47    1
@<TRIPOS>MOLECULE
mol_85_akc_ph15080998
>84.sdf
 38 40 0 0 0
SMALL
GASTEIGER

@<TRIPOS>ATOM
      1 F           3.7983   -1.2651    7.2499 F       1  UNL1       -0.1707
      2 C           2.7132   -1.3890    6.4561 C.3     1  UNL1        0.3917
      3 F           2.2213   -2.6338    6.6312 F       1  UNL1       -0.1707
      4 F           1.7838   -0.5149    6.8963 F       1  UNL1       -0.1707
      5 C           3.0396   -1.1394    5.0018 C.3     1  UNL1        0.0626
      6 C           4.5146   -0.8301    4.8053 C.3     1  UNL1        0.0808
      7 S           4.8846   -0.5466    3.0910 S.O2    1  UNL1        0.0179
      8 O           4.5709   -1.7358    2.3268 O.2     1  UNL1       -0.1678
      9 O           4.4254    0.7642    2.6870 O.2     1  UNL1       -0.1678
     10 C           6.6133   -0.4490    3.0662 C.ar    1  UNL1        0.2263
     11 C           7.3953    0.6729    3.1162 C.ar    1  UNL1        0.2455
     12 N           8.7048    0.2700    3.0854 N.ar    1  UNL1       -0.2771
     13 C           9.8958    0.9892    3.1648 C.ar    1  UNL1        0.0317
     14 C          11.0589    0.3262    3.1163 C.ar    1  UNL1        0.0582
     15 CL         12.5638    1.1456    3.2345 Cl      1  UNL1       -0.0820
     16 C          11.0556   -1.1166    2.9543 C.ar    1  UNL1       -0.0307
     17 C           9.9144   -1.8500    2.9068 C.ar    1  UNL1        0.0265
     18 C           8.6639   -1.1293    2.9955 C.ar    1  UNL1        0.1493
     19 N           7.4192   -1.5707    3.0237 N.ar    1  UNL1       -0.2069
     20 C          10.0152   -3.3286    2.7124 C.ar    1  UNL1       -0.0115
     21 C          11.0689   -4.0809    3.2487 C.ar    1  UNL1       -0.0358
     22 C          11.1140   -5.4473    3.0131 C.ar    1  UNL1        0.0281
     23 N          10.1829   -6.1179    2.3081 N.ar    1  UNL1       -0.2632
     24 C           9.1576   -5.3910    1.8211 C.ar    1  UNL1        0.0281
     25 C           9.0342   -4.0201    1.9911 C.ar    1  UNL1       -0.0358
     26 N           7.0234    2.0192    3.2674 N.pl3   1  UNL1        0.0774
     27 O           6.3566    2.2804    4.2741 O.2     1  UNL1       -0.1245
     28 O           7.4618    2.8156    2.4333 O.2     1  UNL1       -0.1245
     29 H           2.7627   -2.0208    4.4111 H       1  UNL1        0.0368
     30 H           2.4295   -0.3126    4.6204 H       1  UNL1        0.0368
     31 H           4.8067    0.0677    5.3590 H       1  UNL1        0.0507
     32 H           5.1287   -1.6745    5.1350 H       1  UNL1        0.0507
     33 H           9.8454    2.0669    3.2710 H       1  UNL1        0.0829
     34 H          12.0336   -1.5785    2.8466 H       1  UNL1        0.0640
     35 H          11.8527   -3.6326    3.8492 H       1  UNL1        0.0639
     36 H          11.9270   -6.0551    3.4005 H       1  UNL1        0.0830
     37 H           8.4096   -5.9542    1.2696 H       1  UNL1        0.0830
     38 H           8.1752   -3.5169    1.5578 H       1  UNL1        0.0639
@<TRIPOS>BOND
     1     2     1    1
     2     3     2    1
     3     4     2    1
     4     5     2    1
     5     5    29    1
     6     5    30    1
     7     6     5    1
     8     6    31    1
     9     6    32    1
    10     7     6    1
    11     8     7    2
    12     9     7    2
    13    10     7    1
    14    11    10   ar
    15    12    11   ar
    16    13    12   ar
    17    13    33    1
    18    14    13   ar
    19    15    14    1
    20    16    14   ar
    21    16    34    1
    22    17    16   ar
    23    18    17   ar
    24    18    12   ar
    25    19    18   ar
    26    19    10   ar
    27    20    17    1
    28    21    20   ar
    29    21    35    1
    30    22    21   ar
    31    22    36    1
    32    23    22   ar
    33    24    23   ar
    34    24    37    1
    35    25    24   ar
    36    25    20   ar
    37    25    38    1
    38    26    11    1
    39    27    26    2
    40    28    26    2
@<TRIPOS>MOLECULE
mol_87_akc_jphymed2022154221
>86.sdf
 28 29 0 0 0
SMALL
GASTEIGER

@<TRIPOS>ATOM
      1 C           1.1144   -0.5484   -0.0238 C.3     1  UNL1       -0.0596
      2 C           2.5499    0.0006   -0.0454 C.3     1  UNL1       -0.0109
      3 C           2.7121    0.9534   -1.2336 C.3     1  UNL1       -0.0596
      4 C           2.9776    0.6169    1.3157 C.3     1  UNL1        0.1250
      5 C           4.4270    1.1597    1.2959 C.3     1  UNL1       -0.0138
      6 C           4.8006    1.6790    2.6979 C.3     1  UNL1       -0.0143
      7 C           3.6118    1.4481    3.6455 C.3     1  UNL1        0.1200
      8 C           3.9247    1.8945    5.0670 C.3     1  UNL1       -0.0291
      9 O           3.3670    0.0246    3.6558 O.3     1  UNL1       -0.2234
     10 O           2.9739   -0.4634    2.2937 O.3     1  UNL1       -0.2229
     11 C           2.3793    2.1159    3.0847 C.2     1  UNL1       -0.0510
     12 C           2.0555    1.6923    1.8554 C.2     1  UNL1       -0.0505
     13 H           0.9108   -1.1166   -0.9387 H       1  UNL1        0.0233
     14 H           0.9547   -1.2235    0.8227 H       1  UNL1        0.0233
     15 H           0.3724    0.2546    0.0322 H       1  UNL1        0.0233
     16 H           3.1982   -0.8675   -0.2298 H       1  UNL1        0.0327
     17 H           2.1847    1.8986   -1.0723 H       1  UNL1        0.0233
     18 H           3.7677    1.1756   -1.4183 H       1  UNL1        0.0233
     19 H           2.3184    0.5015   -2.1508 H       1  UNL1        0.0233
     20 H           4.5472    1.9732    0.5716 H       1  UNL1        0.0298
     21 H           5.1266    0.3621    1.0168 H       1  UNL1        0.0298
     22 H           5.6882    1.1391    3.0503 H       1  UNL1        0.0298
     23 H           5.0640    2.7427    2.6454 H       1  UNL1        0.0298
     24 H           4.0987    2.9746    5.1237 H       1  UNL1        0.0261
     25 H           3.1046    1.6395    5.7482 H       1  UNL1        0.0261
     26 H           4.8146    1.3813    5.4486 H       1  UNL1        0.0261
     27 H           1.8154    2.8596    3.6314 H       1  UNL1        0.0599
     28 H           1.1998    2.0675    1.3097 H       1  UNL1        0.0599
@<TRIPOS>BOND
     1     1    13    1
     2     1    14    1
     3     1    15    1
     4     2     1    1
     5     2    16    1
     6     3     2    1
     7     3    17    1
     8     3    18    1
     9     3    19    1
    10     4     2    1
    11     5     4    1
    12     5    20    1
    13     5    21    1
    14     6     5    1
    15     6    22    1
    16     6    23    1
    17     7     6    1
    18     7     8    1
    19     8    24    1
    20     8    25    1
    21     8    26    1
    22     9     7    1
    23    10     9    1
    24    10     4    1
    25    11     7    1
    26    11    27    1
    27    12    11    2
    28    12     4    1
    29    12    28    1
@<TRIPOS>MOLECULE
mol_88_akc_slct202201664
>87.sdf
 37 39 0 0 0
SMALL
GASTEIGER

@<TRIPOS>ATOM
      1 C           1.0422   -2.4084    1.1783 C.3     1  UNL1        0.0820
      2 O           2.4468   -2.4179    0.9095 O.3     1  UNL1       -0.4643
      3 C           2.9791   -1.1785    0.6944 C.2     1  UNL1        0.3445
      4 O           2.3091   -0.1567    0.6545 O.2     1  UNL1       -0.2448
      5 C           4.4179   -1.2048    0.5803 C.ar    1  UNL1        0.1289
      6 C           5.2683   -0.1703    0.9263 C.ar    1  UNL1        0.1815
      7 O           6.5512   -0.5487    0.6664 O.2     1  UNL1       -0.3535
      8 N           6.5726   -1.8344    0.1671 N.ar    1  UNL1       -0.0815
      9 C           5.2910   -2.2251    0.0977 C.ar    1  UNL1        0.1025
     10 C           4.9704   -3.5806   -0.4438 C.3     1  UNL1        0.0189
     11 C           4.6979   -3.3891   -1.9192 C.ar    1  UNL1       -0.0414
     12 C           5.7522   -3.4439   -2.8463 C.ar    1  UNL1       -0.0568
     13 C           5.5180   -3.2201   -4.2050 C.ar    1  UNL1       -0.0431
     14 C           4.2286   -2.9358   -4.6467 C.ar    1  UNL1        0.0410
     15 CL          3.9436   -2.6263   -6.3149 Cl      1  UNL1       -0.0835
     16 C           3.1682   -2.8943   -3.7448 C.ar    1  UNL1       -0.0431
     17 C           3.4002   -3.1280   -2.3873 C.ar    1  UNL1       -0.0568
     18 C           5.1146    1.1532    1.5220 C.ar    1  UNL1        0.0208
     19 C           4.1502    1.3852    2.5138 C.ar    1  UNL1       -0.0510
     20 C           3.9629    2.6592    3.0533 C.ar    1  UNL1       -0.0611
     21 C           4.7541    3.7189    2.6203 C.ar    1  UNL1       -0.0617
     22 C           5.7375    3.4997    1.6577 C.ar    1  UNL1       -0.0611
     23 C           5.9200    2.2254    1.1139 C.ar    1  UNL1       -0.0510
     24 H           0.8685   -2.0737    2.2059 H       1  UNL1        0.0661
     25 H           0.4961   -1.7756    0.4709 H       1  UNL1        0.0661
     26 H           0.6707   -3.4310    1.0763 H       1  UNL1        0.0661
     27 H           5.8099   -4.2721   -0.2998 H       1  UNL1        0.0378
     28 H           4.1112   -4.0362    0.0567 H       1  UNL1        0.0378
     29 H           6.7683   -3.6458   -2.5102 H       1  UNL1        0.0621
     30 H           6.3462   -3.2569   -4.9076 H       1  UNL1        0.0632
     31 H           2.1616   -2.6738   -4.0899 H       1  UNL1        0.0632
     32 H           2.5585   -3.0958   -1.7003 H       1  UNL1        0.0621
     33 H           3.5177    0.5782    2.8762 H       1  UNL1        0.0625
     34 H           3.1922    2.8224    3.8011 H       1  UNL1        0.0618
     35 H           4.6017    4.7138    3.0318 H       1  UNL1        0.0618
     36 H           6.3585    4.3274    1.3220 H       1  UNL1        0.0618
     37 H           6.6852    2.0828    0.3534 H       1  UNL1        0.0625
@<TRIPOS>BOND
     1     1    24    1
     2     1    25    1
     3     1    26    1
     4     2     1    1
     5     3     2    1
     6     4     3    2
     7     5     3    1
     8     6     5   ar
     9     7     6   ar
    10     8     7   ar
    11     9     8   ar
    12     9     5   ar
    13    10     9    1
    14    10    27    1
    15    10    28    1
    16    11    10    1
    17    12    11   ar
    18    12    29    1
    19    13    12   ar
    20    13    30    1
    21    14    13   ar
    22    15    14    1
    23    16    14   ar
    24    16    31    1
    25    17    16   ar
    26    17    11   ar
    27    17    32    1
    28    18     6    1
    29    19    18   ar
    30    19    33    1
    31    20    19   ar
    32    20    34    1
    33    21    20   ar
    34    21    35    1
    35    22    21   ar
    36    22    36    1
    37    23    22   ar
    38    23    18   ar
    39    23    37    1
@<TRIPOS>MOLECULE
mol_89_akc_jejmech2022114367
>88.sdf
 43 46 0 0 0
SMALL
GASTEIGER

@<TRIPOS>ATOM
      1 C           0.9501    0.1967    0.1015 C.3     1  UNL1       -0.0216
      2 C           2.4344   -0.0006    0.0736 C.ar    1  UNL1        0.0512
      3 C           3.1022   -1.2434    0.0596 C.ar    1  UNL1        0.0491
      4 C           4.4965   -1.1890    0.0567 C.ar    1  UNL1        0.1468
      5 N           5.2546   -0.0823    0.0361 N.ar    1  UNL1       -0.2176
      6 C           4.5190    1.0374    0.0365 C.ar    1  UNL1        0.1185
      7 N           3.1832    1.1405    0.0575 N.ar    1  UNL1       -0.2399
      8 N           4.9793   -2.4765    0.0504 N.ar    1  UNL1       -0.3025
      9 C           3.9220   -3.3556    0.0557 C.ar    1  UNL1        0.0189
     10 C           2.7390   -2.6351    0.0415 C.ar    1  UNL1        0.0289
     11 C           1.4329   -3.2799   -0.0602 C.ar    1  UNL1        0.0731
     12 N           0.4771   -2.5738   -0.7041 N.ar    1  UNL1       -0.2549
     13 C          -0.7312   -3.1516   -0.8668 C.ar    1  UNL1        0.0283
     14 C          -1.0391   -4.4235   -0.4277 C.ar    1  UNL1       -0.0436
     15 C          -0.0495   -5.1407    0.2321 C.ar    1  UNL1       -0.0583
     16 C           1.2022   -4.5613    0.4280 C.ar    1  UNL1       -0.0356
     17 C1*         6.3765   -2.8818   -0.0290 C.3     1  UNL1        0.1654
     18 O4*         7.0965   -2.3678    1.1117 O.3     1  UNL1       -0.3457
     19 C4*         8.3867   -1.9137    0.6576 C.3     1  UNL1        0.1126
     20 C5*         8.4912   -0.4002    0.8488 C.3     1  UNL1        0.0730
     21 O5*         9.7757    0.0593    0.4423 O.3     1  UNL1       -0.3924
     22 C3*         8.5380   -2.3349   -0.8095 C.3     1  UNL1        0.1135
     23 O3*         9.1409   -3.6350   -0.9126 O.3     1  UNL1       -0.3864
     24 C2*         7.0954   -2.4050   -1.2919 C.3     1  UNL1        0.1285
     25 O2*         6.9015   -3.2758   -2.4058 O.3     1  UNL1       -0.3847
     26 H           0.5145   -0.0830   -0.8601 H       1  UNL1        0.0293
     27 H           0.5028   -0.3906    0.9081 H       1  UNL1        0.0293
     28 H           0.7005    1.2482    0.2784 H       1  UNL1        0.0293
     29 H           5.0669    1.9732    0.0175 H       1  UNL1        0.1047
     30 H           4.1051   -4.4245    0.0204 H       1  UNL1        0.0817
     31 H          -1.4705   -2.5383   -1.3765 H       1  UNL1        0.0830
     32 H          -2.0231   -4.8463   -0.5967 H       1  UNL1        0.0633
     33 H          -0.2470   -6.1495    0.5869 H       1  UNL1        0.0619
     34 H           1.9748   -5.1160    0.9484 H       1  UNL1        0.0639
     35 H1*         6.4008   -3.9771    0.0402 H       1  UNL1        0.0866
     36 H4*         9.1479   -2.4047    1.2744 H       1  UNL1        0.0647
     37 H5*1        7.7381    0.1326    0.2654 H       1  UNL1        0.0584
     38 H5*2        8.3385   -0.1426    1.9024 H       1  UNL1        0.0584
     39 H5*         9.7917    1.0192    0.6089 H       1  UNL1        0.2095
     40 H3*         9.1448   -1.6573   -1.4171 H       1  UNL1        0.0647
     41 H3*        10.0480   -3.5556   -0.5514 H       1  UNL1        0.2100
     42 H2*         6.7696   -1.4065   -1.5976 H       1  UNL1        0.0665
     43 H2*         7.7540   -3.3376   -2.8734 H       1  UNL1        0.2101
@<TRIPOS>BOND
     1     1    26    1
     2     1    27    1
     3     1    28    1
     4     2     1    1
     5     3     2   ar
     6     4     3   ar
     7     5     4   ar
     8     6     5   ar
     9     6    29    1
    10     7     6   ar
    11     7     2   ar
    12     8     4   ar
    13     9     8   ar
    14     9    30    1
    15    10     9   ar
    16    10     3   ar
    17    11    10    1
    18    12    11   ar
    19    13    12   ar
    20    13    31    1
    21    14    13   ar
    22    14    32    1
    23    15    14   ar
    24    15    33    1
    25    16    15   ar
    26    16    11   ar
    27    16    34    1
    28    17     8    1
    29    17    35    1
    30    18    17    1
    31    19    18    1
    32    19    36    1
    33    20    19    1
    34    20    37    1
    35    20    38    1
    36    21    20    1
    37    21    39    1
    38    22    19    1
    39    22    40    1
    40    23    22    1
    41    23    41    1
    42    24    22    1
    43    24    17    1
    44    24    42    1
    45    25    24    1
    46    25    43    1
@<TRIPOS>MOLECULE
mol_8_akc_1573406417666210216154428
>8.sdf
 24 24 0 0 0
SMALL
GASTEIGER

@<TRIPOS>ATOM
      1 N           3.0260    1.4711    1.3212 N.am    1  UNL1       -0.3394
      2 C           2.3636    0.2935    1.2266 C.2     1  UNL1        0.1473
      3 S           0.7137    0.2179    1.0858 S.2     1  UNL1       -0.0174
      4 N           3.1522   -0.8251    1.2561 N.am    1  UNL1       -0.2186
      5 N           4.5076   -0.7170    1.3734 N.2     1  UNL1       -0.1885
      6 C           5.1584   -1.8355    1.3855 C.2     1  UNL1        0.0528
      7 C           6.6308   -1.8546    1.5039 C.ar    1  UNL1       -0.0054
      8 C           7.3420   -0.6586    1.6400 C.ar    1  UNL1       -0.0526
      9 C           8.7339   -0.6795    1.7368 C.ar    1  UNL1       -0.0495
     10 C           9.4303   -1.8963    1.6978 C.ar    1  UNL1        0.0548
     11 C           8.7033   -3.0933    1.5684 C.ar    1  UNL1       -0.0495
     12 C           7.3079   -3.0751    1.4720 C.ar    1  UNL1       -0.0526
     13 C          10.9381   -1.9303    1.7883 C.3     1  UNL1        0.4174
     14 F          11.5058   -0.6962    1.8938 F       1  UNL1       -0.1659
     15 F          11.3772   -2.6371    2.8652 F       1  UNL1       -0.1659
     16 F          11.5096   -2.5125    0.6985 F       1  UNL1       -0.1659
     17 H           2.5475    2.3585    1.2895 H       1  UNL1        0.1440
     18 H           4.0361    1.4222    1.3717 H       1  UNL1        0.1440
     19 H           2.7050   -1.7336    1.1859 H       1  UNL1        0.1762
     20 H           4.6476   -2.8126    1.3047 H       1  UNL1        0.0851
     21 H           6.8191    0.2949    1.6687 H       1  UNL1        0.0624
     22 H           9.2713    0.2625    1.8390 H       1  UNL1        0.0623
     23 H           9.2293   -4.0474    1.5388 H       1  UNL1        0.0623
     24 H           6.7676   -4.0129    1.3687 H       1  UNL1        0.0624
@<TRIPOS>BOND
     1     1    17    1
     2     1    18    1
     3     2     1    1
     4     3     2    2
     5     4     2    1
     6     4    19    1
     7     5     4    1
     8     6     5    2
     9     6    20    1
    10     7     6    1
    11     8     7   ar
    12     8    21    1
    13     9     8   ar
    14     9    22    1
    15    10     9   ar
    16    11    10   ar
    17    11    23    1
    18    12    11   ar
    19    12     7   ar
    20    12    24    1
    21    13    10    1
    22    14    13    1
    23    15    13    1
    24    16    13    1
@<TRIPOS>MOLECULE
mol_91_akc_pharmaceutics14071373
>90.sdf
 41 42 0 0 0
SMALL
GASTEIGER

@<TRIPOS>ATOM
      1 C          -6.5255   -3.9484   -3.2679 C.3     1  UNL1       -0.0397
      2 C          -5.7648   -2.9897   -2.3984 C.ar    1  UNL1       -0.0503
      3 C          -4.9744   -1.9759   -2.9586 C.ar    1  UNL1       -0.0570
      4 C          -4.2586   -1.1014   -2.1378 C.ar    1  UNL1       -0.0351
      5 C          -4.3436   -1.2407   -0.7482 C.ar    1  UNL1        0.1053
      6 C          -5.1273   -2.2456   -0.1785 C.ar    1  UNL1       -0.0351
      7 C          -5.8349   -3.1177   -1.0044 C.ar    1  UNL1       -0.0570
      8 S          -3.4737   -0.1033    0.2969 S.O2    1  UNL1        0.0590
      9 O          -3.7649   -0.4428    1.6766 O.2     1  UNL1       -0.1530
     10 O          -2.1210    0.0113   -0.1970 O.2     1  UNL1       -0.1530
     11 N          -4.2233    1.3638   -0.0401 N.3     1  UNL1       -0.1794
     12 C          -5.6955    1.5013   -0.0536 C.3     1  UNL1        0.0919
     13 C          -6.3910    1.1663    1.2703 C.3     1  UNL1       -0.0037
     14 C          -6.1217    1.9056    2.5606 C.ar    1  UNL1       -0.0454
     15 C          -5.2905    3.0204    2.6928 C.ar    1  UNL1       -0.0585
     16 C          -5.2181    3.7106    3.9081 C.ar    1  UNL1       -0.0615
     17 C          -5.9516    3.2808    5.0138 C.ar    1  UNL1       -0.0617
     18 C          -6.7279    2.1327    4.9185 C.ar    1  UNL1       -0.0615
     19 C          -6.8072    1.4510    3.7045 C.ar    1  UNL1       -0.0585
     20 C          -6.0854    2.8740   -0.6234 C.2     1  UNL1        0.1665
     21 O          -5.3639    3.8688   -0.4979 O.2     1  UNL1       -0.2944
     22 C          -7.3764    2.9619   -1.4087 C.3     1  UNL1        0.0825
     23 CL         -7.2048    2.0455   -2.9212 Cl      1  UNL1       -0.1173
     24 H          -6.1884   -4.9729   -3.0793 H       1  UNL1        0.0278
     25 H          -7.5976   -3.8782   -3.0568 H       1  UNL1        0.0278
     26 H          -6.3758   -3.7347   -4.3306 H       1  UNL1        0.0278
     27 H          -4.9077   -1.8656   -4.0398 H       1  UNL1        0.0621
     28 H          -3.6442   -0.3227   -2.5837 H       1  UNL1        0.0637
     29 H          -5.1906   -2.3590    0.9017 H       1  UNL1        0.0637
     30 H          -6.4382   -3.9053   -0.5566 H       1  UNL1        0.0621
     31 H          -3.6985    1.9585   -0.6873 H       1  UNL1        0.1488
     32 H          -6.0622    0.7846   -0.7938 H       1  UNL1        0.0559
     33 H          -6.2328    0.1005    1.4735 H       1  UNL1        0.0333
     34 H          -7.4709    1.2713    1.0955 H       1  UNL1        0.0333
     35 H          -4.6839    3.3822    1.8673 H       1  UNL1        0.0620
     36 H          -4.5880    4.5934    3.9922 H       1  UNL1        0.0618
     37 H          -5.9081    3.8328    5.9485 H       1  UNL1        0.0618
     38 H          -7.2781    1.7700    5.7825 H       1  UNL1        0.0618
     39 H          -7.4200    0.5528    3.6506 H       1  UNL1        0.0620
     40 H          -8.2143    2.5664   -0.8319 H       1  UNL1        0.0508
     41 H          -7.5806    4.0030   -1.6737 H       1  UNL1        0.0508
@<TRIPOS>BOND
     1     1    24    1
     2     1    25    1
     3     1    26    1
     4     2     1    1
     5     3     2   ar
     6     3    27    1
     7     4     3   ar
     8     4    28    1
     9     5     4   ar
    10     6     5   ar
    11     6    29    1
    12     7     6   ar
    13     7     2   ar
    14     7    30    1
    15     8     5    1
    16     9     8    2
    17    10     8    2
    18    11     8    1
    19    11    31    1
    20    12    11    1
    21    12    32    1
    22    13    12    1
    23    13    33    1
    24    13    34    1
    25    14    13    1
    26    15    14   ar
    27    15    35    1
    28    16    15   ar
    29    16    36    1
    30    17    16   ar
    31    17    37    1
    32    18    17   ar
    33    18    38    1
    34    19    18   ar
    35    19    14   ar
    36    19    39    1
    37    20    12    1
    38    21    20    2
    39    22    20    1
    40    22    40    1
    41    22    41    1
    42    23    22    1
@<TRIPOS>MOLECULE
mol_92_akc_jexppara2022108269
>91.sdf
 55 57 0 0 0
SMALL
GASTEIGER

@<TRIPOS>ATOM
      1 C           2.3324   -0.5270    5.2406 C.3     1  UNL1        0.0790
      2 O           2.5843    0.8114    4.8353 O.3     1  UNL1       -0.4914
      3 C           2.7527    1.0475    3.4952 C.ar    1  UNL1        0.1618
      4 C           2.2870    0.2886    2.4150 C.ar    1  UNL1        0.1619
      5 O           1.4378   -0.7754    2.6479 O.3     1  UNL1       -0.4883
      6 C           0.6454   -1.1381    1.5122 C.3     1  UNL1        0.0901
      7 C          -0.5645   -1.9766    1.9100 C.3     1  UNL1       -0.0131
      8 C          -1.5419   -2.1140    0.7359 C.3     1  UNL1       -0.0041
      9 C          -0.9410   -2.7423   -0.4722 C.ar    1  UNL1        0.0830
     10 C          -0.9564   -4.0527   -0.8934 C.ar    1  UNL1        0.0490
     11 N          -0.2507   -4.0337   -2.0627 N.ar    1  UNL1       -0.2471
     12 C          -0.0827   -5.1124   -3.0198 C.3     1  UNL1        0.0682
     13 C           1.0894   -5.9996   -2.6870 C.ar    1  UNL1       -0.0261
     14 C           0.9300   -7.1149   -1.8531 C.ar    1  UNL1       -0.0566
     15 C           2.0145   -7.9474   -1.5628 C.ar    1  UNL1       -0.0585
     16 C           3.2785   -7.6792   -2.0969 C.ar    1  UNL1       -0.0504
     17 C           4.4472   -8.5733   -1.8031 C.3     1  UNL1       -0.0397
     18 C           3.4416   -6.5647   -2.9274 C.ar    1  UNL1       -0.0585
     19 C           2.3597   -5.7281   -3.2137 C.ar    1  UNL1       -0.0566
     20 N           0.1739   -2.7901   -2.3536 N.ar    1  UNL1       -0.0652
     21 N          -0.2457   -1.9891   -1.3839 N.ar    1  UNL1       -0.1345
     22 C           2.6504    0.6745    1.1126 C.ar    1  UNL1       -0.0160
     23 C           3.3267    1.8700    0.8719 C.ar    1  UNL1       -0.0546
     24 C           3.6940    2.6893    1.9361 C.ar    1  UNL1       -0.0400
     25 C           4.2764    4.0568    1.6716 C.3     1  UNL1       -0.0096
     26 C           3.2063    5.1159    1.6636 C.2     1  UNL1       -0.0868
     27 C           2.8679    5.8563    0.6000 C.2     1  UNL1       -0.1023
     28 C           3.4358    2.2518    3.2437 C.ar    1  UNL1       -0.0128
     29 H           1.2556   -0.7181    5.2439 H       1  UNL1        0.0660
     30 H           2.8728   -1.2675    4.6443 H       1  UNL1        0.0660
     31 H           2.6883   -0.6287    6.2727 H       1  UNL1        0.0660
     32 H           0.2687   -0.2365    1.0117 H       1  UNL1        0.0696
     33 H           1.2758   -1.7208    0.8312 H       1  UNL1        0.0696
     34 H          -0.2330   -2.9614    2.2609 H       1  UNL1        0.0302
     35 H          -1.0774   -1.5059    2.7572 H       1  UNL1        0.0302
     36 H          -2.4129   -2.6970    1.0570 H       1  UNL1        0.0330
     37 H          -1.9209   -1.1212    0.4624 H       1  UNL1        0.0330
     38 H          -1.3963   -4.9504   -0.4871 H       1  UNL1        0.0845
     39 H          -1.0145   -5.6895   -3.0320 H       1  UNL1        0.0559
     40 H           0.0299   -4.6710   -4.0171 H       1  UNL1        0.0559
     41 H          -0.0416   -7.3522   -1.4253 H       1  UNL1        0.0621
     42 H           1.8633   -8.8090   -0.9163 H       1  UNL1        0.0620
     43 H           4.7739   -9.0793   -2.7172 H       1  UNL1        0.0278
     44 H           5.2791   -7.9882   -1.3982 H       1  UNL1        0.0278
     45 H           4.1902   -9.3399   -1.0647 H       1  UNL1        0.0278
     46 H           4.4162   -6.3408   -3.3565 H       1  UNL1        0.0620
     47 H           2.5169   -4.8628   -3.8556 H       1  UNL1        0.0621
     48 H           2.3777    0.0858    0.2397 H       1  UNL1        0.0655
     49 H           3.5194    2.1718   -0.1534 H       1  UNL1        0.0622
     50 H           5.0199    4.2967    2.4395 H       1  UNL1        0.0355
     51 H           4.8201    4.0449    0.7180 H       1  UNL1        0.0355
     52 H           2.6730    5.2725    2.6001 H       1  UNL1        0.0570
     53 H           3.3565    5.7364   -0.3616 H       1  UNL1        0.0532
     54 H           2.0749    6.5950    0.6708 H       1  UNL1        0.0532
     55 H           3.7397    2.8686    4.0868 H       1  UNL1        0.0658
@<TRIPOS>BOND
     1     1    29    1
     2     1    30    1
     3     1    31    1
     4     2     1    1
     5     3     2    1
     6     4     3   ar
     7     5     4    1
     8     6     5    1
     9     6    32    1
    10     6    33    1
    11     7     6    1
    12     7    34    1
    13     7    35    1
    14     8     7    1
    15     8    36    1
    16     8    37    1
    17     9     8    1
    18    10     9   ar
    19    10    38    1
    20    11    10   ar
    21    12    11    1
    22    12    39    1
    23    12    40    1
    24    13    12    1
    25    14    13   ar
    26    14    41    1
    27    15    14   ar
    28    15    42    1
    29    16    15   ar
    30    17    16    1
    31    17    43    1
    32    17    44    1
    33    17    45    1
    34    18    16   ar
    35    18    46    1
    36    19    18   ar
    37    19    13   ar
    38    19    47    1
    39    20    11   ar
    40    21    20   ar
    41    21     9   ar
    42    22     4   ar
    43    22    48    1
    44    23    22   ar
    45    23    49    1
    46    24    23   ar
    47    25    24    1
    48    25    50    1
    49    25    51    1
    50    26    25    1
    51    26    52    1
    52    27    26    2
    53    27    53    1
    54    27    54    1
    55    28    24   ar
    56    28     3   ar
    57    28    55    1
@<TRIPOS>MOLECULE
mol_93_akc_tropicalmed7060112
>92.sdf
 27 30 0 0 0
SMALL
GASTEIGER

@<TRIPOS>ATOM
      1 O           1.0574   -0.0767    0.0706 O.2     1  UNL1       -0.2833
      2 C           2.2658   -0.0939    0.0702 C.2     1  UNL1        0.2306
      3 C           3.2024    1.1058    0.0700 C.ar    1  UNL1        0.1895
      4 N           2.8699    2.3517    0.0701 N.ar    1  UNL1       -0.2254
      5 C           3.9411    3.2677    0.0696 C.ar    1  UNL1        0.0786
      6 C           5.2869    2.8667    0.0697 C.ar    1  UNL1        0.0653
      7 C           6.3242    3.8071    0.0689 C.ar    1  UNL1       -0.0473
      8 C           6.0200    5.1663    0.0680 C.ar    1  UNL1       -0.0609
      9 C           4.6876    5.5796    0.0680 C.ar    1  UNL1       -0.0597
     10 C           3.6555    4.6349    0.0688 C.ar    1  UNL1       -0.0355
     11 C           5.5970    1.4176    0.0701 C.ar    1  UNL1        0.2666
     12 O           6.7649    1.0412    0.0708 O.2     1  UNL1       -0.2666
     13 N           4.4890    0.6035    0.0696 N.ar    1  UNL1       -0.2571
     14 C           4.4594   -0.8016    0.0696 C.ar    1  UNL1        0.0625
     15 C           5.5128   -1.6975    0.0685 C.ar    1  UNL1       -0.0370
     16 C           5.2146   -3.0656    0.0684 C.ar    1  UNL1       -0.0598
     17 C           3.8815   -3.5189    0.0688 C.ar    1  UNL1       -0.0610
     18 C           2.8202   -2.6118    0.0695 C.ar    1  UNL1       -0.0488
     19 C           3.1427   -1.2682    0.0695 C.ar    1  UNL1        0.0493
     20 H           7.3625    3.4825    0.0690 H       1  UNL1        0.0626
     21 H           6.8208    5.9023    0.0674 H       1  UNL1        0.0618
     22 H           4.4493    6.6408    0.0672 H       1  UNL1        0.0618
     23 H           2.6197    4.9663    0.0686 H       1  UNL1        0.0639
     24 H           6.5478   -1.3689    0.0682 H       1  UNL1        0.0638
     25 H           6.0284   -3.7894    0.0678 H       1  UNL1        0.0618
     26 H           3.6809   -4.5888    0.0687 H       1  UNL1        0.0618
     27 H           1.7875   -2.9450    0.0698 H       1  UNL1        0.0625
@<TRIPOS>BOND
     1     2     1    2
     2     3     2    1
     3     4     3   ar
     4     5     4   ar
     5     6     5   ar
     6     7     6   ar
     7     7    20    1
     8     8     7   ar
     9     8    21    1
    10     9     8   ar
    11     9    22    1
    12    10     9   ar
    13    10     5   ar
    14    10    23    1
    15    11     6   ar
    16    12    11    2
    17    13    11   ar
    18    13     3   ar
    19    14    13    1
    20    15    14   ar
    21    15    24    1
    22    16    15   ar
    23    16    25    1
    24    17    16   ar
    25    17    26    1
    26    18    17   ar
    27    18    27    1
    28    19    18   ar
    29    19     2    1
    30    19    14   ar
@<TRIPOS>MOLECULE
mol_94_akc_jbioorg2022105766
>93.sdf
 40 44 0 0 0
SMALL
GASTEIGER

@<TRIPOS>ATOM
      1 C           3.5463    0.1042    0.6235 C.3     1  UNL1       -0.0471
      2 C           2.3873    0.0157   -0.3587 C.3     1  UNL1        0.0210
      3 N           2.7678    0.4495   -1.6977 N.ar    1  UNL1       -0.3400
      4 C           2.7543    1.7621   -2.1253 C.ar    1  UNL1        0.0508
      5 C           2.3430    2.9070   -1.4221 C.ar    1  UNL1       -0.0356
      6 C           2.5749    4.1479   -1.9906 C.ar    1  UNL1       -0.0357
      7 C           3.1360    4.2320   -3.2545 C.ar    1  UNL1        0.0505
      8 N           3.5578    5.4969   -3.6879 N.ar    1  UNL1       -0.3216
      9 C           4.3001    5.7077   -4.8204 C.ar    1  UNL1        0.2569
     10 O           4.8186    6.7960   -5.0464 O.2     1  UNL1       -0.2672
     11 C           4.3720    4.5893   -5.7918 C.ar    1  UNL1        0.0471
     12 C           4.8666    4.8665   -7.0749 C.ar    1  UNL1       -0.0488
     13 C           4.7077    3.9347   -8.0899 C.ar    1  UNL1       -0.0610
     14 C           4.0154    2.7559   -7.8264 C.ar    1  UNL1       -0.0611
     15 C           3.5530    2.4758   -6.5308 C.ar    1  UNL1       -0.0532
     16 C           3.8001    3.3435   -5.4596 C.ar    1  UNL1       -0.0030
     17 C           3.3820    3.0937   -4.0625 C.ar    1  UNL1        0.0160
     18 C           3.2786    1.8070   -3.4308 C.ar    1  UNL1        0.0173
     19 C           3.6500    0.4348   -3.7477 C.ar    1  UNL1        0.0082
     20 C           3.2896   -0.3773   -2.6646 C.ar    1  UNL1        0.0501
     21 C           3.5099   -1.7678   -2.6463 C.ar    1  UNL1       -0.0376
     22 C           4.1108   -2.3658   -3.7509 C.ar    1  UNL1       -0.0598
     23 C           4.5118   -1.5948   -4.8297 C.ar    1  UNL1       -0.0611
     24 C           4.3094   -0.2079   -4.8257 C.ar    1  UNL1       -0.0520
     25 H           3.2198   -0.1946    1.6248 H       1  UNL1        0.0247
     26 H           4.3693   -0.5535    0.3243 H       1  UNL1        0.0247
     27 H           3.9418    1.1227    0.6852 H       1  UNL1        0.0247
     28 H           2.0095   -1.0096   -0.4211 H       1  UNL1        0.0489
     29 H           1.5480    0.6342   -0.0248 H       1  UNL1        0.0489
     30 H           1.9310    2.8448   -0.4198 H       1  UNL1        0.0639
     31 H           2.3468    5.0425   -1.4184 H       1  UNL1        0.0639
     32 H           3.4724    6.2958   -3.0725 H       1  UNL1        0.1689
     33 H           5.3310    5.8279   -7.2879 H       1  UNL1        0.0625
     34 H           5.0687    4.1516   -9.0914 H       1  UNL1        0.0618
     35 H           3.8175    2.0558   -8.6353 H       1  UNL1        0.0618
     36 H           2.9618    1.5765   -6.3849 H       1  UNL1        0.0624
     37 H           3.2349   -2.3755   -1.7896 H       1  UNL1        0.0638
     38 H           4.2863   -3.4393   -3.7541 H       1  UNL1        0.0618
     39 H           5.0023   -2.0655   -5.6782 H       1  UNL1        0.0618
     40 H           4.6969    0.3588   -5.6645 H       1  UNL1        0.0624
@<TRIPOS>BOND
     1     1    25    1
     2     1    26    1
     3     1    27    1
     4     2     1    1
     5     2    28    1
     6     2    29    1
     7     3     2    1
     8     4     3   ar
     9     5     4   ar
    10     5    30    1
    11     6     5   ar
    12     6    31    1
    13     7     6   ar
    14     8     7   ar
    15     8    32    1
    16     9     8   ar
    17    10     9    2
    18    11     9   ar
    19    12    11   ar
    20    12    33    1
    21    13    12   ar
    22    13    34    1
    23    14    13   ar
    24    14    35    1
    25    15    14   ar
    26    15    36    1
    27    16    15   ar
    28    16    11   ar
    29    17    16   ar
    30    17     7   ar
    31    18    17   ar
    32    18     4   ar
    33    19    18   ar
    34    20    19   ar
    35    20     3   ar
    36    21    20   ar
    37    21    37    1
    38    22    21   ar
    39    22    38    1
    40    23    22   ar
    41    23    39    1
    42    24    23   ar
    43    24    19   ar
    44    24    40    1
@<TRIPOS>MOLECULE
mol_95_akc_cmdc202200023
>94.sdf
 28 29 0 0 0
SMALL
GASTEIGER

@<TRIPOS>ATOM
      1 O          -2.2464    0.4762    0.1378 O.2     1  UNL1       -0.2733
      2 C          -1.0799    0.1103    0.0933 C.2     1  UNL1        0.2433
      3 C          -0.6446   -1.3397    0.0444 C.3     1  UNL1        0.1161
      4 N           0.7865   -1.1899    0.0722 N.am    1  UNL1       -0.1676
      5 N           1.5891   -2.2935   -0.0672 N.2     1  UNL1       -0.1802
      6 C           2.7928   -2.2361    0.4155 C.2     1  UNL1        0.0882
      7 C           3.6835   -3.3625    0.2794 C.ar    1  UNL1        0.1501
      8 C           3.5711   -4.5615   -0.4063 C.ar    1  UNL1       -0.0125
      9 C           4.7601   -5.2994   -0.1618 C.ar    1  UNL1        0.0086
     10 C           5.5156   -4.5015    0.6630 C.ar    1  UNL1        0.2802
     11 O           4.8868   -3.3246    0.9390 O.2     1  UNL1       -0.4330
     12 N           6.7955   -4.7042    1.2619 N.pl3   1  UNL1        0.0926
     13 O           7.3451   -5.7903    1.0294 O.2     1  UNL1       -0.1231
     14 O           7.2592   -3.7953    1.9649 O.2     1  UNL1       -0.1231
     15 C           1.1656    0.1658   -0.0165 C.2     1  UNL1        0.3319
     16 O           2.3022    0.5954   -0.1509 O.2     1  UNL1       -0.2501
     17 N           0.0194    0.9169    0.0513 N.am    1  UNL1       -0.2114
     18 C          -0.0323    2.3663    0.1181 C.3     1  UNL1        0.0849
     19 C           0.1377    2.7913    1.5675 C.1     1  UNL1       -0.0859
     20 C           0.2836    3.1560    2.8108 C.1     1  UNL1       -0.1176
     21 H          -0.9581   -1.8106   -0.8898 H       1  UNL1        0.0582
     22 H          -0.9773   -1.8849    0.9296 H       1  UNL1        0.0582
     23 H           3.1733   -1.3697    0.9828 H       1  UNL1        0.0883
     24 H           2.7253   -4.8632   -1.0109 H       1  UNL1        0.0656
     25 H           5.0274   -6.2787   -0.5303 H       1  UNL1        0.0673
     26 H           0.7809    2.7859   -0.4824 H       1  UNL1        0.0606
     27 H          -0.9941    2.7244   -0.2616 H       1  UNL1        0.0606
     28 H           0.4045    3.4522    3.8276 H       1  UNL1        0.1228
@<TRIPOS>BOND
     1     2     1    2
     2     3     2    1
     3     3    21    1
     4     3    22    1
     5     4     3    1
     6     5     4    1
     7     6     5    2
     8     6    23    1
     9     7     6    1
    10     8     7   ar
    11     8    24    1
    12     9     8   ar
    13     9    25    1
    14    10     9   ar
    15    11    10   ar
    16    11     7   ar
    17    12    10    1
    18    13    12    2
    19    14    12    2
    20    15     4   am
    21    16    15    2
    22    17    15   am
    23    17     2   am
    24    18    17    1
    25    18    26    1
    26    18    27    1
    27    19    18    1
    28    20    19    3
    29    20    28    1
@<TRIPOS>MOLECULE
mol_96_akc_jmolstruc2022132528
>95.sdf
 34 36 0 0 0
SMALL
GASTEIGER

@<TRIPOS>ATOM
      1 C           1.0692    0.2843    0.0720 C.3     1  UNL1       -0.0382
      2 C           2.5676    0.1137    0.0468 C.ar    1  UNL1       -0.0284
      3 C           3.3353    1.2937   -0.0336 C.ar    1  UNL1       -0.0143
      4 C           4.7055    1.1795   -0.0923 C.ar    1  UNL1        0.1401
      5 C           5.3259   -0.0641   -0.0507 C.ar    1  UNL1        0.0719
      6 C           6.7627    0.1779   -0.1806 C.2     1  UNL1        0.2318
      7 O           7.6510   -0.6367   -0.0849 O.2     1  UNL1       -0.2832
      8 C           6.8395    1.6487   -0.4164 C.2     1  UNL1        0.1762
      9 O           5.5810    2.2281   -0.2542 O.3     1  UNL1       -0.4514
     10 C           7.9037    2.3421   -0.8388 C.2     1  UNL1       -0.0082
     11 C           9.1777    1.7316   -1.2199 C.ar    1  UNL1       -0.0180
     12 C          10.2047    1.5614   -0.2869 C.ar    1  UNL1       -0.0543
     13 C          11.4044    0.9533   -0.6684 C.ar    1  UNL1       -0.0578
     14 C          11.5837    0.5134   -1.9809 C.ar    1  UNL1       -0.0201
     15 C          10.5570    0.6834   -2.9039 C.ar    1  UNL1        0.1174
     16 O          10.6863    0.2666   -4.1964 O.3     1  UNL1       -0.5068
     17 C           9.3593    1.2863   -2.5350 C.ar    1  UNL1       -0.0129
     18 C           4.6242   -1.2620    0.0380 C.ar    1  UNL1       -0.0174
     19 C           5.3862   -2.5557    0.0481 C.3     1  UNL1       -0.0375
     20 C           3.2173   -1.1559    0.0880 C.ar    1  UNL1        0.0477
     21 CL          2.2595   -2.6014    0.1786 Cl      1  UNL1       -0.0830
     22 H           0.7720    0.8211    0.9788 H       1  UNL1        0.0278
     23 H           0.7493    0.8605   -0.8034 H       1  UNL1        0.0278
     24 H           0.5152   -0.6560    0.0494 H       1  UNL1        0.0278
     25 H           2.8633    2.2712   -0.0756 H       1  UNL1        0.0657
     26 H           7.8226    3.4098   -1.0191 H       1  UNL1        0.0661
     27 H          10.0723    1.8813    0.7436 H       1  UNL1        0.0623
     28 H          12.1952    0.8132    0.0637 H       1  UNL1        0.0619
     29 H          12.5187    0.0384   -2.2596 H       1  UNL1        0.0654
     30 H          11.5507   -0.1645   -4.2955 H       1  UNL1        0.2921
     31 H           8.5693    1.3928   -3.2733 H       1  UNL1        0.0660
     32 H           6.0177   -2.6238   -0.8449 H       1  UNL1        0.0278
     33 H           6.0184   -2.6105    0.9408 H       1  UNL1        0.0278
     34 H           4.7504   -3.4425    0.0470 H       1  UNL1        0.0278
@<TRIPOS>BOND
     1     1    22    1
     2     1    23    1
     3     1    24    1
     4     2     1    1
     5     3     2   ar
     6     3    25    1
     7     4     3   ar
     8     5     4   ar
     9     6     5    1
    10     7     6    2
    11     8     6    1
    12     9     8    1
    13     9     4    1
    14    10     8    2
    15    10    26    1
    16    11    10    1
    17    12    11   ar
    18    12    27    1
    19    13    12   ar
    20    13    28    1
    21    14    13   ar
    22    14    29    1
    23    15    14   ar
    24    16    15    1
    25    16    30    1
    26    17    15   ar
    27    17    11   ar
    28    17    31    1
    29    18     5   ar
    30    19    18    1
    31    19    32    1
    32    19    33    1
    33    19    34    1
    34    20    18   ar
    35    20     2   ar
    36    21    20    1
@<TRIPOS>MOLECULE
mol_97_akc_d2md00078d
>96.sdf
 65 68 0 0 0
SMALL
GASTEIGER

@<TRIPOS>ATOM
      1 C          -1.0571    1.3691   -2.9316 C.3     1  UNL1        0.0788
      2 O           0.1007    1.0479   -2.1765 O.3     1  UNL1       -0.4951
      3 C           1.2598    0.8928   -2.8757 C.ar    1  UNL1        0.1201
      4 C           1.4562    1.1421   -4.2256 C.ar    1  UNL1       -0.0194
      5 C           2.7529    1.1824   -4.7550 C.ar    1  UNL1       -0.0505
      6 C           3.8865    1.0153   -3.9403 C.ar    1  UNL1       -0.0162
      7 C           3.6185    0.4307   -2.6898 C.ar    1  UNL1       -0.0505
      8 C           2.3410    0.4618   -2.1272 C.ar    1  UNL1       -0.0194
      9 C           5.1538    1.8699   -4.1589 C.ar    1  UNL1        0.0053
     10 C           5.8962    2.1956   -3.0197 C.ar    1  UNL1        0.0680
     11 C           5.7699    3.4885   -2.5612 C.ar    1  UNL1        0.0719
     12 C           5.7024    3.4825   -1.0530 C.3     1  UNL1        0.0589
     13 N           5.9799    2.0926   -0.7093 N.am    1  UNL1       -0.2779
     14 C           6.2857    1.3802   -1.8585 C.2     1  UNL1        0.2501
     15 O           6.7771    0.2717   -1.9593 O.2     1  UNL1       -0.2699
     16 C           5.9612    1.5348    0.6776 C.3     1  UNL1        0.1084
     17 C           5.3950    0.0893    0.6951 C.3     1  UNL1       -0.0352
     18 C           7.3937    1.4818    1.2250 C.3     1  UNL1       -0.0352
     19 C           5.0380    2.3508    1.6610 C.2     1  UNL1        0.2366
     20 O           4.0690    1.8420    2.2249 O.2     1  UNL1       -0.2735
     21 N           5.3960    3.6720    1.8606 N.am    1  UNL1       -0.3088
     22 C           4.6945    4.5996    2.7677 C.3     1  UNL1        0.0262
     23 C           4.8762    4.1583    4.2263 C.3     1  UNL1       -0.0442
     24 C           5.3148    5.9941    2.5876 C.3     1  UNL1       -0.0442
     25 C           3.1949    4.7107    2.4322 C.3     1  UNL1       -0.0442
     26 N           5.4033    4.5356   -3.3196 N.ar    1  UNL1       -0.2492
     27 C           5.1500    4.2602   -4.6096 C.ar    1  UNL1        0.0722
     28 C           5.0705    2.9382   -5.1158 C.ar    1  UNL1        0.0123
     29 C           4.8069    2.7616   -6.5111 C.ar    1  UNL1       -0.0102
     30 C           4.5271    3.8501   -7.3354 C.ar    1  UNL1        0.1208
     31 O           4.1977    3.8168   -8.6618 O.3     1  UNL1       -0.4951
     32 C           4.0189    2.5476   -9.2734 C.3     1  UNL1        0.0788
     33 C           4.5491    5.1296   -6.7934 C.ar    1  UNL1       -0.0179
     34 C           4.8743    5.3228   -5.4506 C.ar    1  UNL1       -0.0323
     35 H          -0.9186    2.2611   -3.5524 H       1  UNL1        0.0660
     36 H          -1.3488    0.5062   -3.5367 H       1  UNL1        0.0660
     37 H          -1.8656    1.5859   -2.2280 H       1  UNL1        0.0660
     38 H           0.6365    1.4045   -4.8865 H       1  UNL1        0.0654
     39 H           2.8305    1.4848   -5.7911 H       1  UNL1        0.0625
     40 H           4.4011    0.0565   -2.0457 H       1  UNL1        0.0625
     41 H           2.2109    0.2037   -1.0784 H       1  UNL1        0.0654
     42 H           6.4572    4.1437   -0.6254 H       1  UNL1        0.0530
     43 H           4.6871    3.7399   -0.7345 H       1  UNL1        0.0530
     44 H           5.9827   -0.6089    0.0922 H       1  UNL1        0.0255
     45 H           5.3801   -0.3181    1.7129 H       1  UNL1        0.0255
     46 H           4.3640    0.0649    0.3247 H       1  UNL1        0.0255
     47 H           7.8637    2.4708    1.2233 H       1  UNL1        0.0255
     48 H           7.4085    1.1092    2.2548 H       1  UNL1        0.0255
     49 H           8.0244    0.8249    0.6169 H       1  UNL1        0.0255
     50 H           6.3324    3.9379    1.5838 H       1  UNL1        0.1493
     51 H           5.9394    4.0706    4.4784 H       1  UNL1        0.0250
     52 H           4.4241    4.8789    4.9167 H       1  UNL1        0.0250
     53 H           4.4151    3.1841    4.4191 H       1  UNL1        0.0250
     54 H           5.2130    6.3385    1.5521 H       1  UNL1        0.0250
     55 H           4.8476    6.7322    3.2392 H       1  UNL1        0.0250
     56 H           6.3927    5.9774    2.8123 H       1  UNL1        0.0250
     57 H           3.0434    4.9883    1.3822 H       1  UNL1        0.0250
     58 H           2.6549    3.7738    2.6035 H       1  UNL1        0.0250
     59 H           2.7102    5.4721    3.0537 H       1  UNL1        0.0250
     60 H           4.8005    1.7515   -6.9080 H       1  UNL1        0.0661
     61 H           4.9359    1.9528   -9.2314 H       1  UNL1        0.0660
     62 H           3.1744    2.0116   -8.8285 H       1  UNL1        0.0660
     63 H           3.7848    2.7214  -10.3292 H       1  UNL1        0.0660
     64 H           4.3080    5.9881   -7.4156 H       1  UNL1        0.0655
     65 H           4.8850    6.3331   -5.0475 H       1  UNL1        0.0640
@<TRIPOS>BOND
     1     1    35    1
     2     1    36    1
     3     1    37    1
     4     2     1    1
     5     3     2    1
     6     4     3   ar
     7     4    38    1
     8     5     4   ar
     9     5    39    1
    10     6     5   ar
    11     7     6   ar
    12     7    40    1
    13     8     7   ar
    14     8     3   ar
    15     8    41    1
    16     9     6    1
    17    10     9   ar
    18    11    10   ar
    19    12    11    1
    20    12    42    1
    21    12    43    1
    22    13    12    1
    23    14    13   am
    24    14    10    1
    25    15    14    2
    26    16    13    1
    27    17    16    1
    28    17    44    1
    29    17    45    1
    30    17    46    1
    31    18    16    1
    32    18    47    1
    33    18    48    1
    34    18    49    1
    35    19    16    1
    36    20    19    2
    37    21    19   am
    38    21    50    1
    39    22    21    1
    40    23    22    1
    41    23    51    1
    42    23    52    1
    43    23    53    1
    44    24    22    1
    45    24    54    1
    46    24    55    1
    47    24    56    1
    48    25    22    1
    49    25    57    1
    50    25    58    1
    51    25    59    1
    52    26    11   ar
    53    27    26   ar
    54    28    27   ar
    55    28     9   ar
    56    29    28   ar
    57    29    60    1
    58    30    29   ar
    59    31    30    1
    60    32    31    1
    61    32    61    1
    62    32    62    1
    63    32    63    1
    64    33    30   ar
    65    33    64    1
    66    34    33   ar
    67    34    27   ar
    68    34    65    1
@<TRIPOS>MOLECULE
mol_98_akc_jexppara2022108253
>97.sdf
 40 43 0 0 0
SMALL
GASTEIGER

@<TRIPOS>ATOM
      1 F          -0.0077    4.9972    1.1140 F       1  UNL1       -0.2051
      2 C           1.1391    4.3104    1.0199 C.ar    1  UNL1        0.1295
      3 C           1.1516    2.9924    0.5433 C.ar    1  UNL1        0.0238
      4 C          -0.0881    2.2738    0.0496 C.3     1  UNL1        0.0526
      5 N          -1.3216    3.0276    0.0746 N.am    1  UNL1       -0.2238
      6 C          -2.1366    3.0117    1.1730 C.2     1  UNL1        0.2861
      7 O          -1.9672    2.3858    2.2093 O.2     1  UNL1       -0.2620
      8 S          -3.5324    4.0349    0.9027 S.3     1  UNL1       -0.0258
      9 C          -2.9421    4.5671   -0.6263 C.2     1  UNL1        0.0798
     10 C          -3.4622    5.5255   -1.4059 C.2     1  UNL1       -0.0336
     11 C          -4.6214    6.2937   -1.0925 C.ar    1  UNL1        0.0034
     12 C          -5.8954    5.9190   -1.4533 C.ar    1  UNL1        0.0100
     13 N          -6.7650    6.8226   -0.9059 N.ar    1  UNL1       -0.3600
     14 C          -6.0742    7.7808   -0.1972 C.ar    1  UNL1        0.0492
     15 C          -4.7069    7.5012   -0.3314 C.ar    1  UNL1        0.0370
     16 C          -3.8188    8.3949    0.3090 C.ar    1  UNL1        0.1359
     17 C          -4.2710    9.4804    1.0719 C.ar    1  UNL1       -0.0307
     18 C          -5.6383    9.7007    1.1923 C.ar    1  UNL1       -0.0576
     19 C          -6.5606    8.8624    0.5542 C.ar    1  UNL1       -0.0376
     20 N          -2.3942    8.1985    0.1609 N.pl3   1  UNL1        0.0571
     21 O          -1.9309    8.2168   -0.9878 O.2     1  UNL1       -0.1261
     22 O          -1.7305    8.0794    1.1999 O.2     1  UNL1       -0.1261
     23 C          -1.6941    3.8392   -0.9727 C.2     1  UNL1        0.2605
     24 O          -1.1067    3.9585   -2.0389 O.2     1  UNL1       -0.2690
     25 C           2.3974    2.3378    0.5161 C.ar    1  UNL1        0.0484
     26 CL          2.5474    0.6949   -0.0087 Cl      1  UNL1       -0.0831
     27 C           3.5721    2.9896    0.9135 C.ar    1  UNL1       -0.0429
     28 C           3.5279    4.3099    1.3529 C.ar    1  UNL1       -0.0577
     29 C           2.3049    4.9668    1.4144 C.ar    1  UNL1       -0.0260
     30 H           0.0862    1.9667   -0.9890 H       1  UNL1        0.0520
     31 H          -0.2344    1.3709    0.6547 H       1  UNL1        0.0520
     32 H          -2.9561    5.7748   -2.3390 H       1  UNL1        0.0637
     33 H          -6.2637    5.0744   -2.0216 H       1  UNL1        0.0813
     34 H          -7.7724    6.7820   -0.9854 H       1  UNL1        0.1654
     35 H          -3.5667   10.1469    1.5643 H       1  UNL1        0.0640
     36 H          -5.9993   10.5376    1.7877 H       1  UNL1        0.0619
     37 H          -7.6275    9.0445    0.6527 H       1  UNL1        0.0638
     38 H           4.5276    2.4709    0.8763 H       1  UNL1        0.0632
     39 H           4.4402    4.8218    1.6476 H       1  UNL1        0.0619
     40 H           2.2437    5.9945    1.7625 H       1  UNL1        0.0646
@<TRIPOS>BOND
     1     2     1    1
     2     3     2   ar
     3     4     3    1
     4     4    30    1
     5     4    31    1
     6     5     4    1
     7     6     5   am
     8     7     6    2
     9     8     6    1
    10     9     8    1
    11    10     9    2
    12    10    32    1
    13    11    10    1
    14    12    11   ar
    15    12    33    1
    16    13    12   ar
    17    13    34    1
    18    14    13   ar
    19    15    14   ar
    20    15    11   ar
    21    16    15   ar
    22    17    16   ar
    23    17    35    1
    24    18    17   ar
    25    18    36    1
    26    19    18   ar
    27    19    14   ar
    28    19    37    1
    29    20    16    1
    30    21    20    2
    31    22    20    2
    32    23     9    1
    33    23     5   am
    34    24    23    2
    35    25     3   ar
    36    26    25    1
    37    27    25   ar
    38    27    38    1
    39    28    27   ar
    40    28    39    1
    41    29    28   ar
    42    29     2   ar
    43    29    40    1
@<TRIPOS>MOLECULE
mol_99_akc_s00436_022_07431_9
>98.sdf
 51 51 0 0 0
SMALL
GASTEIGER

@<TRIPOS>ATOM
      1 C           9.2122    3.3612   -4.7275 C.3     1  UNL1       -0.0653
      2 C           8.7134    2.5368   -3.5530 C.3     1  UNL1       -0.0559
      3 C           9.2048    1.0943   -3.6402 C.3     1  UNL1       -0.0533
      4 C           8.6962    0.2691   -2.4608 C.3     1  UNL1       -0.0531
      5 C           9.1861   -1.1723   -2.5520 C.3     1  UNL1       -0.0531
      6 C           8.6749   -2.0035   -1.3766 C.3     1  UNL1       -0.0531
      7 C           9.1924   -3.4351   -1.4763 C.3     1  UNL1       -0.0530
      8 C           8.7303   -4.2888   -0.2959 C.3     1  UNL1       -0.0514
      9 C           9.2122   -5.7367   -0.3966 C.3     1  UNL1       -0.0332
     10 C          10.7332   -5.8653   -0.3811 C.3     1  UNL1        0.0469
     11 N          11.1451   -7.2612   -0.5256 N.ar    1  UNL1       -0.2114
     12 C          11.4338   -7.9194   -1.7124 C.ar    1  UNL1        0.1016
     13 C          11.8055   -9.1851   -1.3420 C.ar    1  UNL1        0.2667
     14 C          12.2558  -10.3426   -2.1460 C.3     1  UNL1        0.1801
     15 O          13.5807  -10.7452   -1.7711 O.3     1  UNL1       -0.4538
     16 C          14.5700   -9.9584   -2.2785 C.2     1  UNL1        0.3044
     17 C          15.9218  -10.4540   -1.8620 C.3     1  UNL1        0.0332
     18 O          14.3694   -8.9605   -2.9541 O.2     1  UNL1       -0.2512
     19 N          11.7038   -9.1549    0.0608 N.ar    1  UNL1       -0.0663
     20 C          12.0112  -10.2190    1.0115 C.3     1  UNL1        0.1683
     21 N          11.3038   -7.9940    0.5613 N.ar    1  UNL1        0.0946
     22 H           8.8497    4.3906   -4.6483 H       1  UNL1        0.0230
     23 H          10.3063    3.3854   -4.7517 H       1  UNL1        0.0230
     24 H           8.8564    2.9460   -5.6758 H       1  UNL1        0.0230
     25 H           9.0601    2.9922   -2.6180 H       1  UNL1        0.0263
     26 H           7.6174    2.5564   -3.5370 H       1  UNL1        0.0263
     27 H           8.8626    0.6439   -4.5802 H       1  UNL1        0.0265
     28 H          10.3016    1.0782   -3.6560 H       1  UNL1        0.0265
     29 H           9.0421    0.7161   -1.5209 H       1  UNL1        0.0265
     30 H           7.5997    0.2846   -2.4435 H       1  UNL1        0.0265
     31 H           8.8469   -1.6206   -3.4941 H       1  UNL1        0.0265
     32 H          10.2832   -1.1875   -2.5652 H       1  UNL1        0.0265
     33 H           9.0113   -1.5550   -0.4335 H       1  UNL1        0.0265
     34 H           7.5789   -2.0029   -1.3666 H       1  UNL1        0.0265
     35 H           8.8494   -3.8886   -2.4141 H       1  UNL1        0.0265
     36 H          10.2862   -3.4011   -1.5132 H       1  UNL1        0.0265
     37 H           9.0828   -3.8481    0.6444 H       1  UNL1        0.0266
     38 H           7.6340   -4.2879   -0.2558 H       1  UNL1        0.0266
     39 H           8.7947   -6.3076    0.4419 H       1  UNL1        0.0283
     40 H           8.8119   -6.1955   -1.3089 H       1  UNL1        0.0283
     41 H          11.1927   -5.3120   -1.2063 H       1  UNL1        0.0510
     42 H          11.1481   -5.4643    0.5521 H       1  UNL1        0.0510
     43 H          11.3465   -7.3938   -2.6452 H       1  UNL1        0.0893
     44 H          11.5839  -11.1844   -1.9511 H       1  UNL1        0.0812
     45 H          12.1979  -10.1237   -3.2191 H       1  UNL1        0.0812
     46 H          16.4873  -10.7596   -2.7449 H       1  UNL1        0.0342
     47 H          16.4440   -9.6579   -1.3253 H       1  UNL1        0.0342
     48 H          15.8296  -11.3128   -1.1905 H       1  UNL1        0.0342
     49 H          12.8394   -9.8982    1.6500 H       1  UNL1        0.1018
     50 H          11.1260  -10.4159    1.6230 H       1  UNL1        0.1018
     51 H          12.2925  -11.1372    0.4925 H       1  UNL1        0.1018
@<TRIPOS>UNITY_ATOM_ATTR
19 1
charge 1
@<TRIPOS>BOND
     1     1    22    1
     2     1    23    1
     3     1    24    1
     4     2     1    1
     5     2    25    1
     6     2    26    1
     7     3     2    1
     8     3    27    1
     9     3    28    1
    10     4     3    1
    11     4    29    1
    12     4    30    1
    13     5     4    1
    14     5    31    1
    15     5    32    1
    16     6     5    1
    17     6    33    1
    18     6    34    1
    19     7     6    1
    20     7    35    1
    21     7    36    1
    22     8     7    1
    23     8    37    1
    24     8    38    1
    25     9     8    1
    26     9    39    1
    27     9    40    1
    28    10     9    1
    29    10    41    1
    30    10    42    1
    31    11    10    1
    32    12    11   ar
    33    12    43    1
    34    13    12   ar
    35    14    13    1
    36    14    44    1
    37    14    45    1
    38    15    14    1
    39    16    15    1
    40    17    16    1
    41    17    46    1
    42    17    47    1
    43    17    48    1
    44    18    16    2
    45    19    13   ar
    46    20    19    1
    47    20    49    1
    48    20    50    1
    49    20    51    1
    50    21    19   ar
    51    21    11   ar
@<TRIPOS>MOLECULE
mol_9_akc_1573406417666210216154428
>9.sdf
 25 25 0 0 0
SMALL
GASTEIGER

@<TRIPOS>ATOM
      1 C           1.2895    0.6865    0.0902 C.3     1  UNL1        0.0788
      2 O           2.4572   -0.1106   -0.0737 O.3     1  UNL1       -0.4951
      3 C           3.0549   -0.0763   -1.3036 C.ar    1  UNL1        0.1201
      4 C           2.6143    0.6629   -2.4017 C.ar    1  UNL1       -0.0194
      5 C           3.3156    0.6099   -3.6085 C.ar    1  UNL1       -0.0496
      6 C           4.4596   -0.1839   -3.7230 C.ar    1  UNL1       -0.0052
      7 C           5.1916   -0.2522   -5.0036 C.2     1  UNL1        0.0528
      8 N           4.7869    0.4131   -6.0379 N.2     1  UNL1       -0.1885
      9 N           5.5372    0.2574   -7.1668 N.am    1  UNL1       -0.2186
     10 C           5.2026    0.9071   -8.3241 C.2     1  UNL1        0.1473
     11 N           4.1142    1.7079   -8.2464 N.am    1  UNL1       -0.3394
     12 S           6.0691    0.7293   -9.7268 S.2     1  UNL1       -0.0174
     13 C           4.9104   -0.9240   -2.6295 C.ar    1  UNL1       -0.0496
     14 C           4.2041   -0.8659   -1.4240 C.ar    1  UNL1       -0.0194
     15 H           1.5102    1.7477   -0.0666 H       1  UNL1        0.0660
     16 H           0.4858    0.3482   -0.5726 H       1  UNL1        0.0660
     17 H           0.9432    0.5684    1.1212 H       1  UNL1        0.0660
     18 H           1.7299    1.2888   -2.3568 H       1  UNL1        0.0654
     19 H           2.9589    1.1910   -4.4562 H       1  UNL1        0.0625
     20 H           6.0897   -0.8956   -5.0352 H       1  UNL1        0.0851
     21 H           6.3439   -0.3585   -7.1747 H       1  UNL1        0.1762
     22 H           3.7736    2.2263   -9.0426 H       1  UNL1        0.1440
     23 H           3.6378    1.7451   -7.3539 H       1  UNL1        0.1440
     24 H           5.7978   -1.5464   -2.6976 H       1  UNL1        0.0625
     25 H           4.5488   -1.4428   -0.5683 H       1  UNL1        0.0654
@<TRIPOS>BOND
     1     1    15    1
     2     1    16    1
     3     1    17    1
     4     2     1    1
     5     3     2    1
     6     4     3   ar
     7     4    18    1
     8     5     4   ar
     9     5    19    1
    10     6     5   ar
    11     7     6    1
    12     7    20    1
    13     8     7    2
    14     9     8    1
    15     9    21    1
    16    10     9    1
    17    11    10    1
    18    11    22    1
    19    11    23    1
    20    12    10    2
    21    13     6   ar
    22    13    24    1
    23    14    13   ar
    24    14     3   ar
    25    14    25    1
